data_image0
_chemical_formula_structural       Ag3Au9CO
_chemical_formula_sum              "Ag3 Au9 C1 O1"
_cell_length_a       5.93378261
_cell_length_b       5.93378261181209
_cell_length_c       99.06947929
_cell_angle_alpha    90.0
_cell_angle_beta     90.0
_cell_angle_gamma    59.999999954353925

_space_group_name_H-M_alt    "P 1"
_space_group_IT_number       1

loop_
  _space_group_symop_operation_xyz
  'x, y, z'

loop_
  _atom_site_type_symbol
  _atom_site_label
  _atom_site_symmetry_multiplicity
  _atom_site_fract_x
  _atom_site_fract_y
  _atom_site_fract_z
  _atom_site_occupancy
  Ag  Ag1       1.0  0.6707141450000002  0.7455030249999999  0.5111387438748192  1.0000
  Ag  Ag2       1.0  0.999543385  0.08428394499999999  0.4850112185365389  1.0000
  Ag  Ag3       1.0  0.339891305  0.4163600149999999  0.4606196728236367  1.0000
  Au  Au1       1.0  0.49377709500000005  0.593142765  0.4858285983750576  1.0000
  Au  Au2       1.0  0.839891305  0.9163600149999999  0.4606196728236367  1.0000
  Au  Au3       1.0  0.178278235  0.22727674499999995  0.5092211986197035  1.0000
  Au  Au4       1.0  0.00045661500000004906  0.583954415  0.48544825479482145  1.0000
  Au  Au5       1.0  0.339891305  0.9163600149999999  0.4606196728236367  1.0000
  Au  Au6       1.0  0.667397275  0.259002005  0.5096069324204029  1.0000
  Au  Au7       1.0  0.5045195650000001  0.08363998499999997  0.48521135211134553  1.0000
  Au  Au8       1.0  0.839891305  0.4163600149999999  0.4606196728236367  1.0000
  Au  Au9       1.0  0.18436850500000007  0.7410923149999998  0.5116094242636582  1.0000
  C   C1        1.0  0.9403705950000001  0.7559023149999999  0.527550157686486  1.0000
  O   O1        1.0  0.937513755  0.7587903249999999  0.5393803271763632  1.0000
