data_image0
_chemical_formula_structural       CONa18Ca18Al6As24
_chemical_formula_sum              "C1 O1 Na18 Ca18 Al6 As24"
_cell_length_a       7.30341319
_cell_length_b       25.31362523626571
_cell_length_c       108.27060408
_cell_angle_alpha    79.10660535361
_cell_angle_beta     90.0
_cell_angle_gamma    90.0

_space_group_name_H-M_alt    "P 1"
_space_group_IT_number       1

loop_
  _space_group_symop_operation_xyz
  'x, y, z'

loop_
  _atom_site_type_symbol
  _atom_site_label
  _atom_site_symmetry_multiplicity
  _atom_site_fract_x
  _atom_site_fract_y
  _atom_site_fract_z
  _atom_site_occupancy
  C   C1        1.0  0.4454946249999999  0.34600673  0.5458291991818843  1.0000
  O   O1        1.0  0.46251477499999993  0.34378656  0.5564842032922387  1.0000
  Na  Na1       1.0  0.8277257650000001  0.42493966  0.4435157967077613  1.0000
  Na  Na2       1.0  0.8181613649999999  0.08640261  0.5030585613418967  1.0000
  Na  Na3       1.0  0.8277257650000001  0.75827299  0.4729717779151951  1.0000
  Na  Na4       1.0  0.32772576499999995  0.71246983  0.4567816530251771  1.0000
  Na  Na5       1.0  0.39411851499999995  0.36410117  0.5207728495150432  1.0000
  Na  Na6       1.0  0.32772576499999995  0.04580316000000001  0.48623763423261085  1.0000
  Na  Na7       1.0  0.32772576499999995  0.71246983  0.4932094340277176  1.0000
  Na  Na8       1.0  0.32772576499999995  0.3791365  0.4637534528202838  1.0000
  Na  Na9       1.0  0.338251655  0.04961140000000001  0.5243146014899177  1.0000
  Na  Na10      1.0  0.8277257650000001  0.6208635  0.4608291842476816  1.0000
  Na  Na11      1.0  0.966560755  0.3577928  0.5275512825681808  1.0000
  Na  Na12      1.0  0.8277257650000001  0.95419684  0.4902851654551154  1.0000
  Na  Na13      1.0  0.8277257650000001  0.6208635  0.49725696525022206  1.0000
  Na  Na14      1.0  0.8277257650000001  0.28753017  0.46780098404278825  1.0000
  Na  Na15      1.0  0.751143495  0.96525928  0.5280052534557518  1.0000
  Na  Na16      1.0  0.3162236949999999  0.88785964  0.5133085504074052  1.0000
  Na  Na17      1.0  0.32772576499999995  0.57506034  0.4810668403602041  1.0000
  Na  Na18      1.0  0.32772576499999995  0.24172701  0.4516108591527703  1.0000
  Ca  Ca1       1.0  0.5089639149999999  0.5067306  0.5135853082137474  1.0000
  Ca  Ca2       1.0  0.500033565  0.17510005000000003  0.4800002710504798  1.0000
  Ca  Ca3       1.0  0.500033565  0.84176671  0.45054428984304606  1.0000
  Ca  Ca4       1.0  3.356500000006868e-05  0.82489995  0.44458236601748563  1.0000
  Ca  Ca5       1.0  0.9999664349999999  0.4827680100000001  0.5027808703700326  1.0000
  Ca  Ca6       1.0  3.356500000006868e-05  0.15823329  0.4740383472249194  1.0000
  Ca  Ca7       1.0  3.356500000006868e-05  0.82489995  0.49547350213239183  1.0000
  Ca  Ca8       1.0  3.356500000006868e-05  0.49156662  0.466017520924958  1.0000
  Ca  Ca9       1.0  0.975756085  0.165437  0.5214840983786848  1.0000
  Ca  Ca10      1.0  0.5023724549999999  0.65765453  0.5201931451775395  1.0000
  Ca  Ca11      1.0  0.500033565  0.31646657  0.49249254021961153  1.0000
  Ca  Ca12      1.0  0.500033565  0.98313324  0.4630365590121778  1.0000
  Ca  Ca13      1.0  0.0028758249999999786  0.67801735  0.5188171395946144  1.0000
  Ca  Ca14      1.0  3.356500000006868e-05  0.35020009  0.4910020592632215  1.0000
  Ca  Ca15      1.0  3.356500000006868e-05  0.01686676000000001  0.4615460780557877  1.0000
  Ca  Ca16      1.0  0.500033565  0.50843338  0.4585651161430074  1.0000
  Ca  Ca17      1.0  0.4961233949999999  0.17676951000000002  0.5157435079830096  1.0000
  Ca  Ca18      1.0  0.500033565  0.84176671  0.4880210973504412  1.0000
  Al  Al1       1.0  0.07676086499999997  0.54232617  0.5249500589326417  1.0000
  Al  Al2       1.0  0.12235577499999997  0.22222222  0.4966566322991341  1.0000
  Al  Al3       1.0  0.12235577499999997  0.88888889  0.4672006475569824  1.0000
  Al  Al4       1.0  0.606210285  0.78615545  0.5144570933596302  1.0000
  Al  Al5       1.0  0.622355775  0.44444444  0.4868379707184169  1.0000
  Al  Al6       1.0  0.622355775  0.11111111  0.4573819859762651  1.0000
  As  As1       1.0  0.19611327499999998  0.45342754  0.5285605541009685  1.0000
  As  As2       1.0  0.22930126499999995  0.12678522  0.5008734164181874  1.0000
  As  As3       1.0  0.22930126499999995  0.7934518900000002  0.4714174352107536  1.0000
  As  As4       1.0  0.729301265  0.7300592800000001  0.44900993596825145  1.0000
  As  As5       1.0  0.7244392150000001  0.3941437400000001  0.5072160328948182  1.0000
  As  As6       1.0  0.729301265  0.06339261000000002  0.47846591717568526  1.0000
  As  As7       1.0  0.729301265  0.7300592800000001  0.4994268083802018  1.0000
  As  As8       1.0  0.729301265  0.39672594  0.469970827172768  1.0000
  As  As9       1.0  0.7094943450000001  0.08014912000000002  0.5292691908080922  1.0000
  As  As10      1.0  0.22930126499999995  0.60327406  0.45461180989519745  1.0000
  As  As11      1.0  0.21855713499999999  0.26652138  0.5146319311104393  1.0000
  As  As12      1.0  0.22930126499999995  0.93660739  0.4840677911026312  1.0000
  As  As13      1.0  0.238328655  0.60190487  0.5070100613488667  1.0000
  As  As14      1.0  0.22930126499999995  0.26994072  0.475572701099714  1.0000
  As  As15      1.0  0.22930126499999995  0.93660739  0.44611671989228013  1.0000
  As  As16      1.0  0.7308968650000001  0.87461638  0.512622931783157  1.0000
  As  As17      1.0  0.729301265  0.53988145  0.4826211830646457  1.0000
  As  As18      1.0  0.729301265  0.20654811  0.4531652018572119  1.0000
  As  As19      1.0  0.7742001850000001  0.57719724  0.5269718610081081  1.0000
  As  As20      1.0  0.772112795  0.22222222  0.4966566322991341  1.0000
  As  As21      1.0  0.772112795  0.88888889  0.4672006475569824  1.0000
  As  As22      1.0  0.280775795  0.7659700900000002  0.5171446100629272  1.0000
  As  As23      1.0  0.27211279499999996  0.44444444  0.4868379707184169  1.0000
  As  As24      1.0  0.27211279499999996  0.11111111  0.4573819859762651  1.0000
