data_image0
_chemical_formula_structural       COCu4Au4Se16
_chemical_formula_sum              "C1 O1 Cu4 Au4 Se16"
_cell_length_a       11.262386246190578
_cell_length_b       4.500930579252755
_cell_length_c       103.78715872000001
_cell_angle_alpha    87.45214675411364
_cell_angle_beta     94.91693876407672
_cell_angle_gamma    92.54785326266529

_space_group_name_H-M_alt    "P 1"
_space_group_IT_number       1

loop_
  _space_group_symop_operation_xyz
  'x, y, z'

loop_
  _atom_site_type_symbol
  _atom_site_label
  _atom_site_symmetry_multiplicity
  _atom_site_fract_x
  _atom_site_fract_y
  _atom_site_fract_z
  _atom_site_occupancy
  C   C1        1.0  0.07003767000000004  0.7703394849999999  0.5506524994978096  1.0000
  O   O1        1.0  0.06290778000000004  0.9067034550000002  0.5601977552154241  1.0000
  Cu  Cu1       1.0  0.5746654900000001  0.6040427949999999  0.530488758204356  1.0000
  Cu  Cu2       1.0  0.025000860000000038  0.4817311649999999  0.47818992545828815  1.0000
  Cu  Cu3       1.0  0.6158610600000001  0.422208325  0.46833029960244915  1.0000
  Cu  Cu4       1.0  0.09203713000000004  0.440800845  0.5228398997829518  1.0000
  Au  Au1       1.0  0.8219145700000001  0.924846725  0.5275201727867723  1.0000
  Au  Au2       1.0  0.32043096000000004  0.951969745  0.4732601141580825  1.0000
  Au  Au3       1.0  0.5704309600000002  0.951969745  0.5003886769022668  1.0000
  Au  Au4       1.0  0.07043096000000003  0.951969745  0.44613154815847045  1.0000
  Se  Se1       1.0  0.42058513000000003  0.859572995  0.5174010828356143  1.0000
  Se  Se2       1.0  0.9186260800000001  0.8559092349999998  0.4629044001920646  1.0000
  Se  Se3       1.0  0.4749991400000001  0.04803025500000003  0.4567871195662067  1.0000
  Se  Se4       1.0  0.97499914  0.04803025500000002  0.511044248310003  1.0000
  Se  Se5       1.0  0.7222358400000001  0.04803025500000003  0.48361582486867266  1.0000
  Se  Se6       1.0  0.19507837000000008  0.701114805  0.540201303838538  1.0000
  Se  Se7       1.0  0.72192241  0.726234975  0.5475208920293202  1.0000
  Se  Se8       1.0  0.16586278000000002  0.8559092349999998  0.4897331054945306  1.0000
  Se  Se9       1.0  0.7621040200000001  0.522250435  0.45246085478779285  1.0000
  Se  Se10      1.0  0.26210402000000005  0.522250435  0.5067179802761616  1.0000
  Se  Se11      1.0  0.37875791000000003  0.381689055  0.43980224478457575  1.0000
  Se  Se12      1.0  0.8787579100000001  0.381689055  0.49405937027294444  1.0000
  Se  Se13      1.0  0.47890089000000013  0.5994468249999999  0.483192430458131  1.0000
  Se  Se14      1.0  0.9250982200000001  0.5237906750000001  0.5411133216636352  1.0000
  Se  Se15      1.0  0.67151448  0.275463385  0.5177345102473575  1.0000
  Se  Se16      1.0  0.16196103000000006  0.304492665  0.46332779460260637  1.0000
