data_image0
_chemical_formula_structural       COCu6Au6Se24
_chemical_formula_sum              "C1 O1 Cu6 Au6 Se24"
_cell_length_a       11.790602060989215
_cell_length_b       9.675833786875385
_cell_length_c       105.38206747000001
_cell_angle_alpha    105.24968224232803
_cell_angle_beta     80.35817299412463
_cell_angle_gamma    66.75565007787971

_space_group_name_H-M_alt    "P 1"
_space_group_IT_number       1

loop_
  _space_group_symop_operation_xyz
  'x, y, z'

loop_
  _atom_site_type_symbol
  _atom_site_label
  _atom_site_symmetry_multiplicity
  _atom_site_fract_x
  _atom_site_fract_y
  _atom_site_fract_z
  _atom_site_occupancy
  C   C1        1.0  0.062222199999999915  0.694436025  0.5470305293203787  1.0000
  O   O1        1.0  0.13203240999999996  0.661501885  0.553394536447269  1.0000
  Cu  Cu1       1.0  0.4879013199999999  0.37454178499999996  0.494703351672754  1.0000
  Cu  Cu2       1.0  0.82123465  0.37454178499999996  0.46672415582523324  1.0000
  Cu  Cu3       1.0  0.2052385999999999  0.24299007500000003  0.5166098038338077  1.0000
  Cu  Cu4       1.0  0.52863384  0.6928213849999999  0.44931556662263233  1.0000
  Cu  Cu5       1.0  0.8874482099999997  0.6857324149999999  0.4986327254730625  1.0000
  Cu  Cu6       1.0  0.19530051  0.6928213849999999  0.4772947624701531  1.0000
  Au  Au1       1.0  0.8416009099999999  0.03368158499999999  0.48599905707145363  1.0000
  Au  Au2       1.0  0.1749342499999999  0.03368158499999999  0.45801986122393284  1.0000
  Au  Au3       1.0  0.53299588  0.946529435  0.5141555291109553  1.0000
  Au  Au4       1.0  0.67493425  0.03368158499999999  0.4580198612239328  1.0000
  Au  Au5       1.0  0.007190149999999925  0.033258275  0.5154125919022892  1.0000
  Au  Au6       1.0  0.34160090999999987  0.03368158499999999  0.4859990570714535  1.0000
  Se  Se1       1.0  0.5417108199999999  0.34005464499999993  0.4694342588951346  1.0000
  Se  Se2       1.0  0.8654590499999998  0.33705936499999994  0.5268091511566729  1.0000
  Se  Se3       1.0  0.20445330999999992  0.337076565  0.49756153072551396  1.0000
  Se  Se4       1.0  0.30999986999999996  0.727308525  0.44691472321264325  1.0000
  Se  Se5       1.0  0.6803943699999998  0.665789285  0.5014095656427366  1.0000
  Se  Se6       1.0  0.97666654  0.727308525  0.47489391906016404  1.0000
  Se  Se7       1.0  0.47482433999999984  0.727308525  0.47458465940025174  1.0000
  Se  Se8       1.0  0.8081576699999999  0.727308525  0.446605463552731  1.0000
  Se  Se9       1.0  0.15746928  0.731520685  0.5027241559013699  1.0000
  Se  Se10      1.0  0.6994152299999997  0.330792415  0.49941838803889443  1.0000
  Se  Se11      1.0  0.03986861999999994  0.34005464499999993  0.46912499923522244  1.0000
  Se  Se12      1.0  0.41143402999999995  0.22939010499999998  0.5176777451603329  1.0000
  Se  Se13      1.0  0.65685158  0.377319165  0.5235851922277922  1.0000
  Se  Se14      1.0  0.9928098500000001  0.400335475  0.49429134232906924  1.0000
  Se  Se15      1.0  0.3261431799999999  0.400335475  0.4663121431240449  1.0000
  Se  Se16      1.0  0.35313673999999995  0.651970035  0.508023743723049  1.0000
  Se  Se17      1.0  0.6903919799999999  0.6670276949999999  0.47770677181383786  1.0000
  Se  Se18      1.0  0.023725309999999934  0.6670276949999999  0.4497275759663172  1.0000
  Se  Se19      1.0  0.49640655999999994  0.9667417249999999  0.4520206468670942  1.0000
  Se  Se20      1.0  0.83884046  0.9615233649999999  0.5073327728322633  1.0000
  Se  Se21      1.0  0.16307322999999999  0.9667417249999999  0.479999842714615  1.0000
  Se  Se22      1.0  0.5201285999999999  0.100621445  0.49199827142829217  1.0000
  Se  Se23      1.0  0.8534619299999998  0.100621445  0.46401907558077143  1.0000
  Se  Se24      1.0  0.10196445999999992  0.16373145500000003  0.5314567352747659  1.0000
