data_image0
_chemical_formula_structural       COSi12Pt36
_chemical_formula_sum              "C1 O1 Si12 Pt36"
_cell_length_a       7.979606192998216
_cell_length_b       9.523398538612593
_cell_length_c       103.29421726999999
_cell_angle_alpha    74.47396056960451
_cell_angle_beta     89.17825760151909
_cell_angle_gamma    65.75803930419185

_space_group_name_H-M_alt    "P 1"
_space_group_IT_number       1

loop_
  _space_group_symop_operation_xyz
  'x, y, z'

loop_
  _atom_site_type_symbol
  _atom_site_label
  _atom_site_symmetry_multiplicity
  _atom_site_fract_x
  _atom_site_fract_y
  _atom_site_fract_z
  _atom_site_occupancy
  C   C1        1.0  0.23232496000000008  0.98269815  0.5500300646656741  1.0000
  O   O1        1.0  0.23731846000000004  0.93224438  0.5621241231984332  1.0000
  Si  Si1       1.0  0.3021257  0.97046904  0.5052816335856519  1.0000
  Si  Si2       1.0  0.6354590300000001  0.30380237  0.4694678432765473  1.0000
  Si  Si3       1.0  0.9018509100000001  0.65138772  0.534686118438193  1.0000
  Si  Si4       1.0  0.8599168200000001  0.69157348  0.48152586919637824  1.0000
  Si  Si5       1.0  0.19325015000000004  0.024906809999999995  0.4457120788872737  1.0000
  Si  Si6       1.0  0.5344799600000001  0.34673108  0.5165542265460839  1.0000
  Si  Si7       1.0  0.45211482999999997  0.58885453  0.5401250993759346  1.0000
  Si  Si8       1.0  0.8067498500000001  0.97509319  0.5047848064164827  1.0000
  Si  Si9       1.0  0.14008318  0.30842652  0.4689710161073781  1.0000
  Si  Si10      1.0  0.027778139999999982  0.32976309  0.5201213939843955  1.0000
  Si  Si11      1.0  0.36454097  0.69619763  0.48102904202720903  1.0000
  Si  Si12      1.0  0.6978743000000001  0.02953095999999999  0.44521525171810444  1.0000
  Pt  Pt1       1.0  0.6731342900000001  0.53290953  0.4768072149698439  1.0000
  Pt  Pt2       1.0  0.0064676199999999595  0.86624286  0.4409934246607394  1.0000
  Pt  Pt3       1.0  0.32266842999999995  0.20027011000000003  0.5117391361672818  1.0000
  Pt  Pt4       1.0  0.3075555  0.87265477  0.5345411596135019  1.0000
  Pt  Pt5       1.0  0.6212228400000002  0.2614476  0.49578422135467165  1.0000
  Pt  Pt6       1.0  0.9545561700000001  0.59478093  0.4599704310455671  1.0000
  Pt  Pt7       1.0  0.9103889400000001  0.67532886  0.5050369380097454  1.0000
  Pt  Pt8       1.0  0.24372227  0.008662189999999995  0.46922314770064083  1.0000
  Pt  Pt9       1.0  0.54181329  0.31873889  0.5398618185914991  1.0000
  Pt  Pt10      1.0  0.75495066  0.49992752000000007  0.5316065629225738  1.0000
  Pt  Pt11      1.0  0.12858727  0.86364735  0.494992976891461  1.0000
  Pt  Pt12      1.0  0.4619206000000001  0.19698068  0.4591791865823564  1.0000
  Pt  Pt13      1.0  0.6601990400000002  0.8004238  0.43787587680156675  1.0000
  Pt  Pt14      1.0  0.9935323800000001  0.13375714000000002  0.5095034606430172  1.0000
  Pt  Pt15      1.0  0.32686571  0.46709047000000004  0.47368967033391257  1.0000
  Pt  Pt16      1.0  0.045443829999999984  0.40521907  0.4905264542581894  1.0000
  Pt  Pt17      1.0  0.37877716  0.7385524  0.4547126639490847  1.0000
  Pt  Pt18      1.0  0.6953576600000001  0.07025926  0.5279396974119407  1.0000
  Pt  Pt19      1.0  0.40651049  0.67195219  0.5158850494488454  1.0000
  Pt  Pt20      1.0  0.75627773  0.99133781  0.4812737376031155  1.0000
  Pt  Pt21      1.0  0.08961105999999998  0.32467114  0.44545994729401095  1.0000
  Pt  Pt22      1.0  0.5380794000000001  0.80301932  0.4913176987214  1.0000
  Pt  Pt23      1.0  0.8714127300000001  0.13635265  0.45550390841229543  1.0000
  Pt  Pt24      1.0  0.17633174999999998  0.47809571  0.527183979512796  1.0000
  Pt  Pt25      1.0  0.035738449999999936  0.81836367  0.5238831355985748  1.0000
  Pt  Pt26      1.0  0.38498956  0.1410953  0.4869493141117284  1.0000
  Pt  Pt27      1.0  0.7183228900000002  0.47442863  0.4511355205793827  1.0000
  Pt  Pt28      1.0  0.7264638800000001  0.47035814  0.5052935466849794  1.0000
  Pt  Pt29      1.0  0.059797209999999955  0.80369147  0.4694797563758749  1.0000
  Pt  Pt30      1.0  0.32845916999999997  0.14604618  0.5391886833541163  1.0000
  Pt  Pt31      1.0  0.61835458  0.85562237  0.5184437453092059  1.0000
  Pt  Pt32      1.0  0.9402027900000001  0.19630853  0.48101712892788157  1.0000
  Pt  Pt33      1.0  0.27353612000000005  0.52964186  0.445203338618777  1.0000
  Pt  Pt34      1.0  0.28167711000000006  0.52557137  0.49936136150113253  1.0000
  Pt  Pt35      1.0  0.6150104400000002  0.8589047  0.463547571192028  1.0000
  Pt  Pt36      1.0  0.9653095300000001  0.14762112  0.5376925063794787  1.0000
