data_image0
_chemical_formula_structural       COIn3Pd3In3Pd3In3Pd3In3Pd3
_chemical_formula_sum              "C1 O1 In12 Pd12"
_cell_length_a       6.66418112
_cell_length_b       7.450780997752563
_cell_length_c       102.98601363
_cell_angle_alpha    71.56505117707799
_cell_angle_beta     90.0
_cell_angle_gamma    90.0

_space_group_name_H-M_alt    "P 1"
_space_group_IT_number       1

loop_
  _space_group_symop_operation_xyz
  'x, y, z'

loop_
  _atom_site_type_symbol
  _atom_site_label
  _atom_site_symmetry_multiplicity
  _atom_site_fract_x
  _atom_site_fract_y
  _atom_site_fract_z
  _atom_site_occupancy
  C   C1        1.0  0.5000008499999999  0.5196441600000001  0.5398247463704398  1.0000
  O   O1        1.0  0.50000101  0.52541346  0.5512029753696068  1.0000
  In  In1       1.0  1.0899999999483544e-06  0.8381467100000001  0.4716753136382227  1.0000
  In  In2       1.0  1.0899999999483544e-06  0.50481337  0.45642311989868284  1.0000
  In  In3       1.0  1.0899999999483544e-06  0.17148004000000003  0.4869275073777625  1.0000
  Pd  Pd1       1.0  0.25000109  0.8381467100000001  0.44879702463039317  1.0000
  Pd  Pd2       1.0  0.25000109  0.50481337  0.47930140890651235  1.0000
  Pd  Pd3       1.0  0.25000109  0.17148004000000003  0.464049218369933  1.0000
  In  In4       1.0  1.1899999999483545e-06  0.83953445  0.519768118249088  1.0000
  In  In5       1.0  1.0899999999483544e-06  0.50481337  0.5021797011173024  1.0000
  In  In6       1.0  0.9999989100000001  0.23113779000000004  0.5338516958262222  1.0000
  Pd  Pd4       1.0  0.25000109  0.8381467100000001  0.49455360264605214  1.0000
  Pd  Pd5       1.0  0.28333033999999996  0.5334663900000001  0.5248622443955976  1.0000
  Pd  Pd6       1.0  0.23816861999999997  0.18129080000000003  0.5116683307428119  1.0000
  In  In7       1.0  0.50000109  0.8381467100000001  0.4716753136382227  1.0000
  In  In8       1.0  0.50000109  0.50481337  0.45642311989868284  1.0000
  In  In9       1.0  0.50000109  0.17148004000000003  0.4869275073777625  1.0000
  Pd  Pd7       1.0  0.7500010899999999  0.8381467100000001  0.44879702463039317  1.0000
  Pd  Pd8       1.0  0.7500010899999999  0.50481337  0.47930140890651235  1.0000
  Pd  Pd9       1.0  0.7500010899999999  0.17148004000000003  0.464049218369933  1.0000
  In  In10      1.0  0.50000033  0.87847534  0.5165645299436696  1.0000
  In  In11      1.0  0.50000109  0.50481337  0.5021797011173024  1.0000
  In  In12      1.0  0.50000077  0.12152466000000002  0.5384368010801531  1.0000
  Pd  Pd10      1.0  0.7500010899999999  0.8381467100000001  0.49455360264605214  1.0000
  Pd  Pd11      1.0  0.71667151  0.5334693100000001  0.5248621899452687  1.0000
  Pd  Pd12      1.0  0.76183233  0.18129130000000004  0.5116680777089304  1.0000
