data_image0
_chemical_formula_structural       COPd32Sn16
_chemical_formula_sum              "C1 O1 Pd32 Sn16"
_cell_length_a       10.12620213097826
_cell_length_b       11.044102504316756
_cell_length_c       102.47644161
_cell_angle_alpha    95.35692201907128
_cell_angle_beta     96.24848689662831
_cell_angle_gamma    108.66644779583096

_space_group_name_H-M_alt    "P 1"
_space_group_IT_number       1

loop_
  _space_group_symop_operation_xyz
  'x, y, z'

loop_
  _atom_site_type_symbol
  _atom_site_label
  _atom_site_symmetry_multiplicity
  _atom_site_fract_x
  _atom_site_fract_y
  _atom_site_fract_z
  _atom_site_occupancy
  C   C1        1.0  0.011374885000000032  0.09514961999999998  0.5398776205703967  1.0000
  O   O1        1.0  0.06804005500000003  0.14255427999999998  0.5505129723614434  1.0000
  Pd  Pd1       1.0  0.3909551150000001  0.15061018999999998  0.46033940362428755  1.0000
  Pd  Pd2       1.0  0.8909551150000001  0.58811019  0.48014666438330017  1.0000
  Pd  Pd3       1.0  0.6484540150000001  0.9484670900000001  0.47382449732687204  1.0000
  Pd  Pd4       1.0  0.148454015  0.51096709  0.4540172365678595  1.0000
  Pd  Pd5       1.0  0.0995006250000001  0.96813287  0.4520779726347598  1.0000
  Pd  Pd6       1.0  0.5995006249999999  0.40563287  0.4718852333937724  1.0000
  Pd  Pd7       1.0  0.9399085050000001  0.13094440999999996  0.48208592831639985  1.0000
  Pd  Pd8       1.0  0.439908505  0.69344441  0.4622786675573872  1.0000
  Pd  Pd9       1.0  0.15352416500000005  0.2506728  0.46486961255359044  1.0000
  Pd  Pd10      1.0  0.6535241650000001  0.6881727999999999  0.484676873312603  1.0000
  Pd  Pd11      1.0  0.8858849650000001  0.84840448  0.4692942883975692  1.0000
  Pd  Pd12      1.0  0.385884965  0.4109044799999999  0.44948702763855664  1.0000
  Pd  Pd13      1.0  0.713857895  0.19788079  0.46247951951980704  1.0000
  Pd  Pd14      1.0  0.21385789500000002  0.6353807899999999  0.4822867802788196  1.0000
  Pd  Pd15      1.0  0.3255512350000001  0.9011964900000001  0.47168438143135255  1.0000
  Pd  Pd16      1.0  0.8255512350000002  0.4636964899999999  0.45187712067234  1.0000
  Pd  Pd17      1.0  0.38640232500000005  0.03272902999999998  0.49986162013801405  1.0000
  Pd  Pd18      1.0  0.891319445  0.4778351799999999  0.5178594860421101  1.0000
  Pd  Pd19      1.0  0.6591954550000001  0.8275313  0.5121282472185854  1.0000
  Pd  Pd20      1.0  0.14876091500000002  0.38513358999999997  0.4925267252693671  1.0000
  Pd  Pd21      1.0  0.0995006250000001  0.84313287  0.4916924941527851  1.0000
  Pd  Pd22      1.0  0.611145115  0.27585830999999994  0.5107730185916453  1.0000
  Pd  Pd23      1.0  0.9528014650000001  0.03293632999999998  0.5210862884769417  1.0000
  Pd  Pd24      1.0  0.431501995  0.5807648999999998  0.5013377934837298  1.0000
  Pd  Pd25      1.0  0.174905685  0.15827406999999996  0.50489932277958  1.0000
  Pd  Pd26      1.0  0.648347855  0.57812602  0.5212956464694218  1.0000
  Pd  Pd27      1.0  0.9005741050000001  0.7390900699999999  0.5107601010884686  1.0000
  Pd  Pd28      1.0  0.3858849650000001  0.28590448  0.48910154915658177  1.0000
  Pd  Pd29      1.0  0.7411700050000002  0.08983926999999998  0.5016990303825483  1.0000
  Pd  Pd30      1.0  0.22107598500000009  0.500327  0.5192442037188684  1.0000
  Pd  Pd31      1.0  0.34742363500000006  0.7975297299999999  0.512539008607625  1.0000
  Pd  Pd32      1.0  0.8255512350000002  0.33869648999999996  0.4914916421903652  1.0000
  Sn  Sn1       1.0  0.8619462250000002  0.04062445999999998  0.4553599374985148  1.0000
  Sn  Sn2       1.0  0.36194622499999995  0.4781244599999999  0.47516719825752746  1.0000
  Sn  Sn3       1.0  0.17746290500000003  0.058452819999999975  0.47880396345264475  1.0000
  Sn  Sn4       1.0  0.677462905  0.62095282  0.45899670269363224  1.0000
  Sn  Sn5       1.0  0.9738026449999999  0.38025009000000004  0.4707360604927986  1.0000
  Sn  Sn6       1.0  0.47380264500000013  0.9427500900000001  0.450928799733786  1.0000
  Sn  Sn7       1.0  0.06560648500000003  0.71882719  0.463427840458361  1.0000
  Sn  Sn8       1.0  0.5656064850000001  0.15632719  0.48323510121737356  1.0000
  Sn  Sn9       1.0  0.866737775  0.9140792799999999  0.4951910363594217  1.0000
  Sn  Sn10      1.0  0.4032210250000001  0.37061166999999995  0.5160196450505354  1.0000
  Sn  Sn11      1.0  0.18232371500000005  0.94860644  0.5180133868736266  1.0000
  Sn  Sn12      1.0  0.690271485  0.50335544  0.49820237699629755  1.0000
  Sn  Sn13      1.0  0.9886251149999998  0.27860981999999995  0.5127089897657162  1.0000
  Sn  Sn14      1.0  0.47380264500000013  0.8177500900000001  0.49054332125181116  1.0000
  Sn  Sn15      1.0  0.08218622499999999  0.6149440399999998  0.5039266595098436  1.0000
  Sn  Sn16      1.0  0.5816948650000001  0.03186712999999998  0.5212118316493748  1.0000
