data_image0
_chemical_formula_structural       COSi12Pt8Si12Pt8
_chemical_formula_sum              "C1 O1 Si24 Pt16"
_cell_length_a       12.780169039582445
_cell_length_b       6.8486272
_cell_length_c       101.63245407
_cell_angle_alpha    90.0
_cell_angle_beta     81.10089172068083
_cell_angle_gamma    74.45830121997888

_space_group_name_H-M_alt    "P 1"
_space_group_IT_number       1

loop_
  _space_group_symop_operation_xyz
  'x, y, z'

loop_
  _atom_site_type_symbol
  _atom_site_label
  _atom_site_symmetry_multiplicity
  _atom_site_fract_x
  _atom_site_fract_y
  _atom_site_fract_z
  _atom_site_occupancy
  C   C1        1.0  0.08032027999999997  0.48053971999999995  0.5403051663307675  1.0000
  O   O1        1.0  0.023398489999999966  0.42858264  0.5488908219021655  1.0000
  Si  Si1       1.0  0.5999090499999999  0.3938504499999999  0.5197659003026398  1.0000
  Si  Si2       1.0  0.6007194499999999  0.8881105300000001  0.49950562684080124  1.0000
  Si  Si3       1.0  0.10417511999999997  0.30072185999999995  0.49001463201934087  1.0000
  Si  Si4       1.0  0.09630697999999996  0.7979769399999997  0.5100008305642657  1.0000
  Si  Si5       1.0  0.47590155999999995  0.13086479000000004  0.5205092745918087  1.0000
  Si  Si6       1.0  0.47735302999999996  0.61354385  0.5017073860761814  1.0000
  Si  Si7       1.0  0.9766015100000001  0.19326286999999992  0.5120108512729754  1.0000
  Si  Si8       1.0  0.97372922  0.69927814  0.4925521608842451  1.0000
  Si  Si9       1.0  0.27882031999999995  0.37319793  0.5062904858973705  1.0000
  Si  Si10      1.0  0.27032633999999994  0.8363262699999999  0.5225094039779133  1.0000
  Si  Si11      1.0  0.78895217  0.12499999999999997  0.4961465797481994  1.0000
  Si  Si12      1.0  0.78096037  0.6608748599999998  0.5137014395303715  1.0000
  Pt  Pt1       1.0  0.40171059000000003  0.4909832199999999  0.5212212132742092  1.0000
  Pt  Pt2       1.0  0.39890021  0.9786894  0.5033413279926678  1.0000
  Pt  Pt3       1.0  0.8989122299999999  0.9082428699999999  0.5119616187553649  1.0000
  Pt  Pt4       1.0  0.9017785700000001  0.40192012999999993  0.49395179859503474  1.0000
  Pt  Pt5       1.0  0.6725901000000001  0.026974739999999952  0.5161577804940325  1.0000
  Pt  Pt6       1.0  0.6768691499999999  0.5217010699999999  0.4977512398638464  1.0000
  Pt  Pt7       1.0  0.17215278999999997  0.5804179299999999  0.5264151473965839  1.0000
  Pt  Pt8       1.0  0.17367031999999996  0.09385748999999999  0.5076868213132313  1.0000
  Si  Si13      1.0  0.60417512  0.3840551899999999  0.4802882685389642  1.0000
  Si  Si14      1.0  0.60417512  0.88405519  0.460835541578211  1.0000
  Si  Si15      1.0  0.10417511999999997  0.30072185999999995  0.4511091780978344  1.0000
  Si  Si16      1.0  0.10417511999999997  0.80072186  0.4705619050585877  1.0000
  Si  Si17      1.0  0.47372921999999995  0.11594481000000004  0.4828257974038685  1.0000
  Si  Si18      1.0  0.47372921999999995  0.61594481  0.46337307044311526  1.0000
  Si  Si19      1.0  0.97372922  0.19927813999999994  0.47309943392349185  1.0000
  Si  Si20      1.0  0.97372922  0.69927814  0.4536467069627387  1.0000
  Si  Si21      1.0  0.28895216999999995  0.375  0.4669674893070696  1.0000
  Si  Si22      1.0  0.28895216999999995  0.8749999999999999  0.48642021626782284  1.0000
  Si  Si23      1.0  0.78895217  0.12499999999999997  0.457241125826693  1.0000
  Si  Si24      1.0  0.78895217  0.6249999999999998  0.4766938527874462  1.0000
  Pt  Pt9       1.0  0.40177856999999995  0.48525346999999996  0.4842254351146581  1.0000
  Pt  Pt10      1.0  0.40177856999999995  0.98525347  0.46477270815390487  1.0000
  Pt  Pt11      1.0  0.9017785700000001  0.9019201299999999  0.47449907163428157  1.0000
  Pt  Pt12      1.0  0.9017785700000001  0.40192012999999993  0.4550463446735283  1.0000
  Pt  Pt13      1.0  0.67612577  0.01474652999999999  0.47888863394061093  1.0000
  Pt  Pt14      1.0  0.67612577  0.5147465299999999  0.45943590697985776  1.0000
  Pt  Pt15      1.0  0.17612576999999996  0.59807987  0.48861499742098746  1.0000
  Pt  Pt16      1.0  0.17612576999999996  0.09807986999999999  0.4691622704602343  1.0000
