data_image0
_chemical_formula_structural       COCa4Ge8Mn8
_chemical_formula_sum              "C1 O1 Ca4 Ge8 Mn8"
_cell_length_a       5.60928367
_cell_length_b       6.140166201039081
_cell_length_c       103.65570203
_cell_angle_alpha    90.0
_cell_angle_beta     90.0
_cell_angle_gamma    117.1788574208774

_space_group_name_H-M_alt    "P 1"
_space_group_IT_number       1

loop_
  _space_group_symop_operation_xyz
  'x, y, z'

loop_
  _atom_site_type_symbol
  _atom_site_label
  _atom_site_symmetry_multiplicity
  _atom_site_fract_x
  _atom_site_fract_y
  _atom_site_fract_z
  _atom_site_occupancy
  C   C1        1.0  0.03233408999999995  0.7135322749999999  0.5499095160691676  1.0000
  O   O1        1.0  0.05236385000000003  0.791583735  0.5604573439291376  1.0000
  Ca  Ca1       1.0  0.5738920899999999  0.08801460499999997  0.5222825164763927  1.0000
  Ca  Ca2       1.0  0.07267547999999996  0.07013730499999997  0.49365722646110394  1.0000
  Ca  Ca3       1.0  0.5726754799999999  0.07013730499999997  0.4665999428894202  1.0000
  Ca  Ca4       1.0  0.07267547999999996  0.07013730499999997  0.43954265607086235  1.0000
  Ge  Ge1       1.0  0.001322239999999919  0.929862695  0.521461141733026  1.0000
  Ge  Ge2       1.0  0.44879593000000007  0.822378205  0.49365722646110394  1.0000
  Ge  Ge3       1.0  0.69655503  0.317896405  0.49365722646110394  1.0000
  Ge  Ge4       1.0  0.19477613999999993  0.38777488499999996  0.5211741375386617  1.0000
  Ge  Ge5       1.0  0.9487959300000001  0.822378205  0.4665999428894202  1.0000
  Ge  Ge6       1.0  0.44879593000000007  0.822378205  0.43954265607086235  1.0000
  Ge  Ge7       1.0  0.69655503  0.317896405  0.43954265607086235  1.0000
  Ge  Ge8       1.0  0.19655503  0.317896405  0.4665999428894202  1.0000
  Mn  Mn1       1.0  0.63445801  0.592745765  0.5309999937076268  1.0000
  Mn  Mn2       1.0  0.035794710000000014  0.609568705  0.5071877140949049  1.0000
  Mn  Mn3       1.0  0.99867776  0.605093955  0.5333400840979986  1.0000
  Mn  Mn4       1.0  0.64053536  0.5961167249999999  0.5092264231321384  1.0000
  Mn  Mn5       1.0  0.5726754799999999  0.5701373049999999  0.480128583051825  1.0000
  Mn  Mn6       1.0  0.07267547999999993  0.5701373049999999  0.4530712994801413  1.0000
  Mn  Mn7       1.0  0.07267547999999993  0.5701373049999999  0.480128583051825  1.0000
  Mn  Mn8       1.0  0.5726754799999999  0.5701373049999999  0.4530712994801413  1.0000
