data_image0
_chemical_formula_structural       Fe6Ga6Rh12CO
_chemical_formula_sum              "Fe6 Ga6 Rh12 C1 O1"
_cell_length_a       6.0044894
_cell_length_b       7.353967599170647
_cell_length_c       37.664835
_cell_angle_alpha    85.65224688732165
_cell_angle_beta     90.0
_cell_angle_gamma    114.09484254794526

_space_group_name_H-M_alt    "P 1"
_space_group_IT_number       1

loop_
  _space_group_symop_operation_xyz
  'x, y, z'

loop_
  _atom_site_type_symbol
  _atom_site_label
  _atom_site_symmetry_multiplicity
  _atom_site_fract_x
  _atom_site_fract_y
  _atom_site_fract_z
  _atom_site_occupancy
  Fe  Fe1       1.0  0.69791667  0.38028268  0.4402593255025757  1.0000
  Fe  Fe2       1.0  0.28049331  0.54726155  0.5110820861006163  1.0000
  Fe  Fe3       1.0  0.11458332999999994  0.21361601999999996  0.36871787375987064  1.0000
  Fe  Fe4       1.0  0.98958333  0.96361602  0.47603005566641554  1.0000
  Fe  Fe5       1.0  0.5735580299999999  0.13280732999999997  0.5543146872760695  1.0000
  Fe  Fe6       1.0  0.40624999999999994  0.7969493499999999  0.4044885953387358  1.0000
  Ga  Ga1       1.0  0.19791666999999996  0.38028268  0.4402593255025757  1.0000
  Ga  Ga2       1.0  0.7959554799999999  0.57419018  0.5123111282275048  1.0000
  Ga  Ga3       1.0  0.6145833299999999  0.21361601999999996  0.36871787375987064  1.0000
  Ga  Ga4       1.0  0.4895833299999999  0.96361602  0.47603005566641554  1.0000
  Ga  Ga5       1.0  0.06512987999999995  0.11261799999999995  0.5493279416927198  1.0000
  Ga  Ga6       1.0  0.9062499999999999  0.7969493499999999  0.4044885953387358  1.0000
  Rh  Rh1       1.0  0.51041667  0.50528268  0.38660323454930323  1.0000
  Rh  Rh2       1.0  0.09374999999999988  0.6719493499999999  0.45814468629200833  1.0000
  Rh  Rh3       1.0  0.6699546899999999  0.8525345999999999  0.528346032092039  1.0000
  Rh  Rh4       1.0  0.45790773999999995  0.41663925  0.5582839760153524  1.0000
  Rh  Rh5       1.0  0.3020833299999999  0.08861601999999996  0.4223739647131431  1.0000
  Rh  Rh6       1.0  0.8816866599999998  0.26096809  0.49312283443521016  1.0000
  Rh  Rh7       1.0  0.97140098  0.41332245  0.5586536364346096  1.0000
  Rh  Rh8       1.0  0.80208333  0.08861601999999996  0.4223739647131431  1.0000
  Rh  Rh9       1.0  0.3971491299999999  0.26161252  0.4930376028078527  1.0000
  Rh  Rh10      1.0  0.010416669999999942  0.50528268  0.38660323454930323  1.0000
  Rh  Rh11      1.0  0.5937499999999999  0.6719493499999999  0.45814468629200833  1.0000
  Rh  Rh12      1.0  0.20032581999999988  0.8521863099999999  0.5284414369142413  1.0000
  C   C1        1.0  0.52679553  0.07458437999999998  0.6001807465654585  1.0000
  O   O1        1.0  0.49347743999999993  0.036383979999999976  0.6312821262401298  1.0000
