data_image0
_chemical_formula_structural       COCa16In8Ca16In8
_chemical_formula_sum              "C1 O1 Ca32 In16"
_cell_length_a       15.72559006877771
_cell_length_b       10.16172134
_cell_length_c       102.80565418
_cell_angle_alpha    90.0
_cell_angle_beta     69.65399296084904
_cell_angle_gamma    90.0

_space_group_name_H-M_alt    "P 1"
_space_group_IT_number       1

loop_
  _space_group_symop_operation_xyz
  'x, y, z'

loop_
  _atom_site_type_symbol
  _atom_site_label
  _atom_site_symmetry_multiplicity
  _atom_site_fract_x
  _atom_site_fract_y
  _atom_site_fract_z
  _atom_site_occupancy
  C   C1        1.0  0.48959824499999993  0.6234399899999999  0.551415289664697  1.0000
  O   O1        1.0  0.48794653499999996  0.5688925699999999  0.5616680404142791  1.0000
  Ca  Ca1       1.0  0.277773955  0.2807943399999999  0.5175471175671099  1.0000
  Ca  Ca2       1.0  0.769190415  0.2981648599999999  0.4915158937084403  1.0000
  Ca  Ca3       1.0  0.234761635  0.7018351399999999  0.49334695163926473  1.0000
  Ca  Ca4       1.0  0.740547765  0.7043215199999999  0.5204709585346423  1.0000
  Ca  Ca5       1.0  0.015238364999999992  0.24256264999999996  0.5306364408321466  1.0000
  Ca  Ca6       1.0  0.519190415  0.20183513999999994  0.5048118748458431  1.0000
  Ca  Ca7       1.0  0.48272572499999994  0.7775050399999999  0.5321571737046075  1.0000
  Ca  Ca8       1.0  0.9847616349999999  0.79816486  0.5066429327766675  1.0000
  Ca  Ca9       1.0  0.3237694749999999  0.91634877  0.515984103467867  1.0000
  Ca  Ca10      1.0  0.8618163449999999  0.93027955  0.5409450921500882  1.0000
  Ca  Ca11      1.0  0.165180535  0.06486641999999995  0.49704754820383906  1.0000
  Ca  Ca12      1.0  0.661667355  0.07487239999999996  0.52497482182321  1.0000
  Ca  Ca13      1.0  0.139143875  0.5980895199999999  0.5294605983198228  1.0000
  Ca  Ca14      1.0  0.5887715149999999  0.5648664199999999  0.5011112782812687  1.0000
  Ca  Ca15      1.0  0.434978025  0.41430404999999987  0.5367622534635371  1.0000
  Ca  Ca16      1.0  0.915180535  0.4351335799999999  0.5103435293412418  1.0000
  In  In1       1.0  0.36434982499999996  0.59091556  0.5145423997925744  1.0000
  In  In2       1.0  0.923522055  0.61667072  0.5359049625003425  1.0000
  In  In3       1.0  0.13989589499999996  0.38709366999999995  0.49839228267766367  1.0000
  In  In4       1.0  0.659291125  0.4017054699999999  0.522553256301559  1.0000
  In  In5       1.0  0.08534659499999998  0.9202910899999999  0.5277367464339014  1.0000
  In  In6       1.0  0.6140561549999998  0.88709367  0.49976654380744406  1.0000
  In  In7       1.0  0.4200494449999999  0.08980578999999994  0.5352795609310359  1.0000
  In  In8       1.0  0.894923465  0.10564030999999996  0.5124970510313113  1.0000
  Ca  Ca17      1.0  0.269190415  0.2981648599999999  0.4649239250515626  1.0000
  Ca  Ca18      1.0  0.769190415  0.2981648599999999  0.43833195958572096  1.0000
  Ca  Ca19      1.0  0.234761635  0.7018351399999999  0.44016301751654546  1.0000
  Ca  Ca20      1.0  0.7347616349999999  0.7018351399999999  0.4667549829823871  1.0000
  Ca  Ca21      1.0  0.019190414999999992  0.20183513999999994  0.4782199093800014  1.0000
  Ca  Ca22      1.0  0.519190415  0.20183513999999994  0.4516279439141598  1.0000
  Ca  Ca23      1.0  0.48476163499999986  0.79816486  0.48005096731082586  1.0000
  Ca  Ca24      1.0  0.9847616349999999  0.79816486  0.4534590018449842  1.0000
  Ca  Ca25      1.0  0.3387715149999999  0.93513358  0.46122332848698827  1.0000
  Ca  Ca26      1.0  0.8387715149999999  0.93513358  0.48781529714386584  1.0000
  Ca  Ca27      1.0  0.165180535  0.06486641999999995  0.44386361408111974  1.0000
  Ca  Ca28      1.0  0.665180535  0.06486641999999995  0.4704555795469615  1.0000
  Ca  Ca29      1.0  0.088771515  0.5648664199999999  0.474519312815427  1.0000
  Ca  Ca30      1.0  0.5887715149999999  0.5648664199999999  0.4479273473495854  1.0000
  Ca  Ca31      1.0  0.41518053499999996  0.4351335799999999  0.48375156387540025  1.0000
  Ca  Ca32      1.0  0.915180535  0.4351335799999999  0.4571595984095586  1.0000
  In  In9       1.0  0.36405615499999994  0.61290633  0.45987859401316356  1.0000
  In  In10      1.0  0.8640561549999998  0.61290633  0.4864705594790052  1.0000
  In  In11      1.0  0.13989589499999996  0.38709366999999995  0.44520835174598034  1.0000
  In  In12      1.0  0.6398958949999999  0.38709366999999995  0.47180031721182203  1.0000
  In  In13      1.0  0.11405615499999998  0.88709367  0.4731745751505664  1.0000
  In  In14      1.0  0.6140561549999998  0.88709367  0.4465826096847248  1.0000
  In  In15      1.0  0.38989589499999994  0.11290632999999994  0.4850963015402609  1.0000
  In  In16      1.0  0.889895895  0.11290632999999994  0.45850433288338327  1.0000
