data_image0
_chemical_formula_structural       COCa6Si12
_chemical_formula_sum              "C1 O1 Ca6 Si12"
_cell_length_a       5.778093595658167
_cell_length_b       9.663047240006868
_cell_length_c       100.54845510999999
_cell_angle_alpha    83.50590409455774
_cell_angle_beta     86.46258990319765
_cell_angle_gamma    78.7519348951344

_space_group_name_H-M_alt    "P 1"
_space_group_IT_number       1

loop_
  _space_group_symop_operation_xyz
  'x, y, z'

loop_
  _atom_site_type_symbol
  _atom_site_label
  _atom_site_symmetry_multiplicity
  _atom_site_fract_x
  _atom_site_fract_y
  _atom_site_fract_z
  _atom_site_occupancy
  C   C1        1.0  0.08889395499999998  0.23136576000000006  0.5390398332124097  1.0000
  O   O1        1.0  0.096963985  0.13333052000000006  0.5468263363111967  1.0000
  Ca  Ca1       1.0  0.06355164499999995  0.5606849200000001  0.4809898706597351  1.0000
  Ca  Ca2       1.0  0.39688497500000003  0.31068492000000003  0.45567168159982985  1.0000
  Ca  Ca3       1.0  0.7302183149999999  0.9356849199999999  0.46833077612978236  1.0000
  Ca  Ca4       1.0  0.087455415  0.4292669300000001  0.518683889309414  1.0000
  Ca  Ca5       1.0  0.396002205  0.1836162  0.49413903009429133  1.0000
  Ca  Ca6       1.0  0.716511775  0.8224424400000001  0.5072638658401999  1.0000
  Si  Si1       1.0  0.5239882650000001  0.6840161600000001  0.4834878885707616  1.0000
  Si  Si2       1.0  0.8573215949999998  0.4340161600000001  0.4581697025490388  1.0000
  Si  Si3       1.0  0.19065493500000003  0.05901616000000004  0.470828794040809  1.0000
  Si  Si4       1.0  0.269781695  0.8123536900000001  0.46583275821875586  1.0000
  Si  Si5       1.0  0.603115025  0.4373536900000001  0.478491849710526  1.0000
  Si  Si6       1.0  0.9364483549999999  0.18735369000000002  0.45317366368880335  1.0000
  Si  Si7       1.0  0.5822048949999998  0.5401153000000002  0.5116169007297764  1.0000
  Si  Si8       1.0  0.8520672149999999  0.30842043  0.4968532845644142  1.0000
  Si  Si9       1.0  0.185401175  0.9409838399999999  0.508851823543728  1.0000
  Si  Si10      1.0  0.24489512499999996  0.7052466300000001  0.5030997724786416  1.0000
  Si  Si11      1.0  0.614425255  0.29600953  0.5173649140503946  1.0000
  Si  Si12      1.0  0.9358100749999999  0.06090839000000004  0.4914445450773323  1.0000
