data_image0
_chemical_formula_structural       COCo16Si16
_chemical_formula_sum              "C1 O1 Co16 Si16"
_cell_length_a       7.716185090929374
_cell_length_b       6.30023875
_cell_length_c       99.21300528
_cell_angle_alpha    90.0
_cell_angle_beta     84.94884743969358
_cell_angle_gamma    90.0

_space_group_name_H-M_alt    "P 1"
_space_group_IT_number       1

loop_
  _space_group_symop_operation_xyz
  'x, y, z'

loop_
  _atom_site_type_symbol
  _atom_site_label
  _atom_site_symmetry_multiplicity
  _atom_site_fract_x
  _atom_site_fract_y
  _atom_site_fract_z
  _atom_site_occupancy
  C   C1        1.0  0.348542925  0.12606564000000003  0.5332529860904662  1.0000
  O   O1        1.0  0.328065835  0.10745585000000002  0.5453213018452273  1.0000
  Co  Co1       1.0  0.8020755049999999  0.9083188500000001  0.4932690428033687  1.0000
  Co  Co2       1.0  0.48868279500000006  0.40578001  0.47499204876187523  1.0000
  Co  Co3       1.0  0.176182795  0.90578001  0.4565890901492702  1.0000
  Co  Co4       1.0  0.105154645  0.40327155000000003  0.5115191302471338  1.0000
  Co  Co5       1.0  0.6551484849999999  0.29775557  0.49655664744201927  1.0000
  Co  Co6       1.0  0.34444557500000006  0.8008802100000001  0.4788529806453795  1.0000
  Co  Co7       1.0  0.031945575  0.30088021000000004  0.4604500220327746  1.0000
  Co  Co8       1.0  0.9680544249999999  0.7929625400000001  0.5147340211157141  1.0000
  Co  Co9       1.0  0.46137551500000007  0.9534599800000001  0.5031136480959507  1.0000
  Co  Co10      1.0  0.144932795  0.44598041000000005  0.48419352806817767  1.0000
  Co  Co11      1.0  0.832432795  0.9459804100000001  0.4657905694555727  1.0000
  Co  Co12      1.0  0.7721307949999999  0.4482977000000001  0.5189097584259559  1.0000
  Co  Co13      1.0  0.5068203250000001  0.050880210000000016  0.4589704094379543  1.0000
  Co  Co14      1.0  0.44911208500000005  0.5517265100000001  0.5129357163892977  1.0000
  Co  Co15      1.0  0.129335335  0.04918569000000002  0.49524470199476334  1.0000
  Co  Co16      1.0  0.8193203250000001  0.5508802100000001  0.47737336805055924  1.0000
  Si  Si1       1.0  0.5388215649999999  0.21780999  0.5194026779918027  1.0000
  Si  Si2       1.0  0.229857365  0.7101193400000001  0.5018736596891068  1.0000
  Si  Si3       1.0  0.9143969550000001  0.20768443000000003  0.4822831360736801  1.0000
  Si  Si4       1.0  0.601896955  0.70768443  0.4638801774610752  1.0000
  Si  Si5       1.0  0.6663150149999999  0.7958509600000001  0.5160382049311457  1.0000
  Si  Si6       1.0  0.350123395  0.29839351000000003  0.49828392558161133  1.0000
  Si  Si7       1.0  0.042541155  0.8008802100000001  0.4788529806453796  1.0000
  Si  Si8       1.0  0.7300411549999999  0.30088021000000004  0.46045002203277463  1.0000
  Si  Si9       1.0  0.8846718050000001  0.13686359000000003  0.5112228573358377  1.0000
  Si  Si10      1.0  0.5688280149999999  0.6462223100000001  0.49148783663385814  1.0000
  Si  Si11      1.0  0.258146955  0.14407599000000004  0.4730816567673777  1.0000
  Si  Si12      1.0  0.9456469550000001  0.6440759900000002  0.45467869815477263  1.0000
  Si  Si13      1.0  0.5822964249999999  0.050880210000000016  0.4811941461506076  1.0000
  Si  Si14      1.0  0.269796425  0.5508802100000001  0.4627911875380027  1.0000
  Si  Si15      1.0  0.19448546500000002  0.046540020000000015  0.5180832035261193  1.0000
  Si  Si16      1.0  0.8955196950000001  0.5486984800000001  0.49894752154681493  1.0000
