data_image0
_chemical_formula_structural       Fe9Ga12CO
_chemical_formula_sum              "Fe9 Ga12 C1 O1"
_cell_length_a       6.283021091652504
_cell_length_b       6.283021090726995
_cell_length_c       39.87609474
_cell_angle_alpha    92.06179244568429
_cell_angle_beta     92.06179244538046
_cell_angle_gamma    74.68710294087703

_space_group_name_H-M_alt    "P 1"
_space_group_IT_number       1

loop_
  _space_group_symop_operation_xyz
  'x, y, z'

loop_
  _atom_site_type_symbol
  _atom_site_label
  _atom_site_symmetry_multiplicity
  _atom_site_fract_x
  _atom_site_fract_y
  _atom_site_fract_z
  _atom_site_occupancy
  Fe  Fe1       1.0  0.517527785  0.5255520199999999  0.4933949060215748  1.0000
  Fe  Fe2       1.0  0.9267784950000001  0.9351882499999999  0.4383966090167528  1.0000
  Fe  Fe3       1.0  0.06407386500000001  0.08357032999999997  0.5469190192372166  1.0000
  Fe  Fe4       1.0  0.830090965  0.83872107  0.543869445670306  1.0000
  Fe  Fe5       1.0  0.19526755500000006  0.20367730999999994  0.4288599635031496  1.0000
  Fe  Fe6       1.0  0.9091678550000001  0.48621573999999995  0.5255176882982763  1.0000
  Fe  Fe7       1.0  0.537150875  0.14331713999999995  0.46824516876340544  1.0000
  Fe  Fe8       1.0  0.13490738500000002  0.54556063  0.46824516876340544  1.0000
  Fe  Fe9       1.0  0.45844638499999996  0.93218336  0.538103227484861  1.0000
  Ga  Ga1       1.0  0.758270305  0.76668006  0.48117812619343525  1.0000
  Ga  Ga2       1.0  0.262759295  0.26501054999999996  0.5101506879385733  1.0000
  Ga  Ga3       1.0  0.4640987750000001  0.4725085299999999  0.4314609959362118  1.0000
  Ga  Ga4       1.0  0.655025635  0.60592809  0.574388010666679  1.0000
  Ga  Ga5       1.0  0.283073145  0.88582476  0.4684702438714793  1.0000
  Ga  Ga6       1.0  0.21528803500000004  0.68418687  0.530999680603807  1.0000
  Ga  Ga7       1.0  0.6721272349999999  0.22685831999999995  0.5323321291718797  1.0000
  Ga  Ga8       1.0  0.877415005  0.29148289999999993  0.4684702438714792  1.0000
  Ga  Ga9       1.0  0.935926135  0.57208324  0.41214992333883244  1.0000
  Ga  Ga10      1.0  0.20587221500000003  0.84202932  0.3930085296030508  1.0000
  Ga  Ga11      1.0  0.8336195650000001  0.21428196999999993  0.39300852960305077  1.0000
  Ga  Ga12      1.0  0.563673485  0.9443358900000001  0.41214992333883244  1.0000
  C   C1        1.0  0.315596315  0.05566410999999996  0.5779783643104995  1.0000
  O   O1        1.0  0.3323142150000001  0.10720541999999997  0.606991470396949  1.0000
