data_image0
_chemical_formula_structural       COCu24Sn20
_chemical_formula_sum              "C1 O1 Cu24 Sn20"
_cell_length_a       10.082503026199875
_cell_length_b       6.751606811478395
_cell_length_c       107.31333925999999
_cell_angle_alpha    93.77861605640612
_cell_angle_beta     95.2249815511864
_cell_angle_gamma    82.77176533921751

_space_group_name_H-M_alt    "P 1"
_space_group_IT_number       1

loop_
  _space_group_symop_operation_xyz
  'x, y, z'

loop_
  _atom_site_type_symbol
  _atom_site_label
  _atom_site_symmetry_multiplicity
  _atom_site_fract_x
  _atom_site_fract_y
  _atom_site_fract_z
  _atom_site_occupancy
  C   C1        1.0  0.9192620850000001  0.731755265  0.5547747087278074  1.0000
  O   O1        1.0  0.899997605  0.7272459450000002  0.5652794968286678  1.0000
  Cu  Cu1       1.0  0.269637055  0.8100799950000002  0.44336394869815465  1.0000
  Cu  Cu2       1.0  0.269637055  0.4767466649999999  0.5013147127311074  1.0000
  Cu  Cu3       1.0  0.325411555  0.43719054499999993  0.5441384083246961  1.0000
  Cu  Cu4       1.0  0.362098335  0.7480969550000001  0.4895209941935421  1.0000
  Cu  Cu5       1.0  0.862098335  0.7843377250000001  0.4926712672042848  1.0000
  Cu  Cu6       1.0  0.862098335  0.11767106499999991  0.4347205031713321  1.0000
  Cu  Cu7       1.0  0.769637055  0.512987435  0.5044649822648043  1.0000
  Cu  Cu8       1.0  0.769637055  0.8463207649999999  0.4465142217088973  1.0000
  Cu  Cu9       1.0  0.675622245  0.22411640499999996  0.5150042765679105  1.0000
  Cu  Cu10      1.0  0.675622245  0.557449745  0.45705351253495774  1.0000
  Cu  Cu11      1.0  0.956113145  0.04228702499999994  0.47944406700611725  1.0000
  Cu  Cu12      1.0  0.962857315  0.7158747549999999  0.5380471074407501  1.0000
  Cu  Cu13      1.0  0.45473961500000004  0.704115725  0.5359125699033263  1.0000
  Cu  Cu14      1.0  0.45611314500000005  0.03696798499999995  0.47898170336748175  1.0000
  Cu  Cu15      1.0  0.175622245  0.5521307049999999  0.4565911488963223  1.0000
  Cu  Cu16      1.0  0.175622245  0.21879736499999997  0.5145419129292751  1.0000
  Cu  Cu17      1.0  0.06586769500000002  0.2972088649999999  0.4680176079512197  1.0000
  Cu  Cu18      1.0  0.06179457500000001  0.9599585250000001  0.5251926152559758  1.0000
  Cu  Cu19      1.0  0.565867695  0.2972088649999999  0.46801760795121966  1.0000
  Cu  Cu20      1.0  0.5671888850000001  0.963032015  0.525964620251784  1.0000
  Cu  Cu21      1.0  0.328476445  0.07906491499999997  0.5349896819832688  1.0000
  Cu  Cu22      1.0  0.315867695  0.40456666499999994  0.4773498075669211  1.0000
  Cu  Cu23      1.0  0.8158676949999999  0.856517725  0.516636172368471  1.0000
  Cu  Cu24      1.0  0.8158676949999999  0.1898510549999999  0.4586854083355184  1.0000
  Sn  Sn1       1.0  0.5945927050000002  0.882833375  0.5001245860270722  1.0000
  Sn  Sn2       1.0  0.5945927050000002  0.21616671499999987  0.4421738219941194  1.0000
  Sn  Sn3       1.0  0.037142685000000016  0.5944797149999999  0.5126573228272027  1.0000
  Sn  Sn4       1.0  0.037142685000000016  0.927813045  0.45470655879424987  1.0000
  Sn  Sn5       1.0  0.5371426850000001  0.711584345  0.4359106298753673  1.0000
  Sn  Sn6       1.0  0.5371426850000001  0.3782510149999999  0.49386139390832  1.0000
  Sn  Sn7       1.0  0.08439684500000001  0.31839182499999996  0.5382298853058699  1.0000
  Sn  Sn8       1.0  0.09459270500000001  0.6666046749999999  0.4813286571081897  1.0000
  Sn  Sn9       1.0  0.42744649500000004  0.34854998499999995  0.5223944209460585  1.0000
  Sn  Sn10      1.0  0.42378317500000007  0.684968745  0.4645833959056541  1.0000
  Sn  Sn11      1.0  0.207952215  0.11527926499999995  0.4893438526196196  1.0000
  Sn  Sn12      1.0  0.22142634500000002  0.8111609450000001  0.546359169643185  1.0000
  Sn  Sn13      1.0  0.707573165  0.579185945  0.529563859843801  1.0000
  Sn  Sn14      1.0  0.707952215  0.909448975  0.47145181999678526  1.0000
  Sn  Sn15      1.0  0.923783175  0.4791384549999999  0.4466913632828199  1.0000
  Sn  Sn16      1.0  0.923783175  0.1458051249999999  0.5046421273157726  1.0000
  Sn  Sn17      1.0  0.315867695  0.8302914149999999  0.5143564194914071  1.0000
  Sn  Sn18      1.0  0.315867695  0.16362474499999993  0.45640565545845435  1.0000
  Sn  Sn19      1.0  0.811819315  0.12127021499999995  0.5377340829180408  1.0000
  Sn  Sn20      1.0  0.8158676949999999  0.43079297499999997  0.47962956044398514  1.0000
