data_image0
_chemical_formula_structural       COCa9Si18Ca9Si18
_chemical_formula_sum              "C1 O1 Ca18 Si36"
_cell_length_a       10.245935950554435
_cell_length_b       16.446374445669587
_cell_length_c       100.98079824999999
_cell_angle_alpha    96.76135181775929
_cell_angle_beta     79.10660535667083
_cell_angle_gamma    79.74687003472825

_space_group_name_H-M_alt    "P 1"
_space_group_IT_number       1

loop_
  _space_group_symop_operation_xyz
  'x, y, z'

loop_
  _atom_site_type_symbol
  _atom_site_label
  _atom_site_symmetry_multiplicity
  _atom_site_fract_x
  _atom_site_fract_y
  _atom_site_fract_z
  _atom_site_occupancy
  C   C1        1.0  0.6905322399999999  0.313210785  0.5393882622682368  1.0000
  O   O1        1.0  0.6467590999999999  0.298239915  0.5500510704562349  1.0000
  Ca  Ca1       1.0  0.005246049999999968  0.006431194999999993  0.48482165344200207  1.0000
  Ca  Ca2       1.0  0.33857938  0.006431194999999993  0.4592550760453072  1.0000
  Ca  Ca3       1.0  0.67191272  0.006431194999999993  0.4720383647436546  1.0000
  Ca  Ca4       1.0  0.7830238299999999  0.33976452499999993  0.47629946097643716  1.0000
  Ca  Ca5       1.0  0.11635715999999997  0.33976452499999993  0.4507328835797422  1.0000
  Ca  Ca6       1.0  0.44969049  0.33976452499999993  0.46351617227808967  1.0000
  Ca  Ca7       1.0  0.89413494  0.673097865  0.48056055720921964  1.0000
  Ca  Ca8       1.0  0.22746827  0.673097865  0.4549939798125247  1.0000
  Ca  Ca9       1.0  0.56080161  0.673097865  0.4677772685108722  1.0000
  Si  Si1       1.0  0.9394693899999998  0.203761175  0.4515168406837084  1.0000
  Si  Si2       1.0  0.27280272  0.203761175  0.46430012938205584  1.0000
  Si  Si3       1.0  0.60613606  0.203761175  0.47708341501241425  1.0000
  Si  Si4       1.0  0.84880049  0.142434545  0.4712544076396885  1.0000
  Si  Si5       1.0  0.18213381999999997  0.142434545  0.48403769633803595  1.0000
  Si  Si6       1.0  0.51546715  0.142434545  0.4584711220093301  1.0000
  Si  Si7       1.0  0.71724717  0.537094505  0.4813445112451967  1.0000
  Si  Si8       1.0  0.05058049999999999  0.537094505  0.4557779369164908  1.0000
  Si  Si9       1.0  0.38391382999999996  0.537094505  0.4685612256148383  1.0000
  Si  Si10      1.0  0.9599115999999999  0.47576788499999995  0.475515503872471  1.0000
  Si  Si11      1.0  0.29324493  0.47576788499999995  0.4499489295437652  1.0000
  Si  Si12      1.0  0.62657827  0.47576788499999995  0.46273221517412355  1.0000
  Si  Si13      1.0  0.82835828  0.870427845  0.48560560747797915  1.0000
  Si  Si14      1.0  0.16169160999999999  0.870427845  0.46003903314927336  1.0000
  Si  Si15      1.0  0.49502495  0.870427845  0.4728223218476208  1.0000
  Si  Si16      1.0  0.07102271  0.809101215  0.4797766001052535  1.0000
  Si  Si17      1.0  0.40435603999999997  0.809101215  0.4542100257765476  1.0000
  Si  Si18      1.0  0.7376893799999998  0.809101215  0.46699331140690603  1.0000
  Ca  Ca10      1.0  0.99475395  0.993568805  0.521301049453741  1.0000
  Ca  Ca11      1.0  0.33648086999999993  0.009331944999999994  0.4980384367200511  1.0000
  Ca  Ca12      1.0  0.65866967  0.008633724999999993  0.5122306226862864  1.0000
  Ca  Ca13      1.0  0.7874090099999999  0.344813585  0.5146271301707593  1.0000
  Ca  Ca14      1.0  0.11635715999999997  0.33976452499999993  0.48908274660679546  1.0000
  Ca  Ca15      1.0  0.43303447  0.344940885  0.5037107526884265  1.0000
  Ca  Ca16      1.0  0.8928035099999999  0.672449835  0.519043297909678  1.0000
  Ca  Ca17      1.0  0.22746827  0.673097865  0.493343842839578  1.0000
  Ca  Ca18      1.0  0.54963819  0.676390755  0.5066745037348942  1.0000
  Si  Si19      1.0  0.9394693899999998  0.203761175  0.4898667037107617  1.0000
  Si  Si20      1.0  0.26599689  0.212006245  0.5024344201590615  1.0000
  Si  Si21      1.0  0.6067014199999999  0.212106265  0.5157834644447182  1.0000
  Si  Si22      1.0  0.84167011  0.141599185  0.5095995183517155  1.0000
  Si  Si23      1.0  0.07865504999999996  0.14269297499999997  0.5101512992489377  1.0000
  Si  Si24      1.0  0.51432121  0.14539225499999997  0.49797506127040714  1.0000
  Si  Si25      1.0  0.76767961  0.538571335  0.5087385363148568  1.0000
  Si  Si26      1.0  0.05058049999999999  0.537094505  0.4941277999435441  1.0000
  Si  Si27      1.0  0.37494468  0.540405425  0.5067887955306819  1.0000
  Si  Si28      1.0  0.9709679999999999  0.47384795499999993  0.5138082010597016  1.0000
  Si  Si29      1.0  0.29324493  0.47576788499999995  0.4882987925708185  1.0000
  Si  Si30      1.0  0.6064893600000001  0.4720032149999999  0.5000857426237558  1.0000
  Si  Si31      1.0  0.8106686999999999  0.873766855  0.5256412323080524  1.0000
  Si  Si32      1.0  0.16859693  0.873531765  0.4973165419664189  1.0000
  Si  Si33      1.0  0.487457  0.873329285  0.5108074469973963  1.0000
  Si  Si34      1.0  0.007170119999999978  0.807713195  0.5092412907471853  1.0000
  Si  Si35      1.0  0.40435603999999997  0.809101215  0.49255988880360085  1.0000
  Si  Si36      1.0  0.7278164699999999  0.813880355  0.5065672008181444  1.0000
