data_image0
_chemical_formula_structural       COGa2CuGa2CuGa2CuGa2CuGa2CuGa2CuGa2CuGa2Cu
_chemical_formula_sum              "C1 O1 Ga16 Cu8"
_cell_length_a       5.75015568
_cell_length_b       5.75015568
_cell_length_c       105.82479808
_cell_angle_alpha    90.0
_cell_angle_beta     90.0
_cell_angle_gamma    90.0

_space_group_name_H-M_alt    "P 1"
_space_group_IT_number       1

loop_
  _space_group_symop_operation_xyz
  'x, y, z'

loop_
  _atom_site_type_symbol
  _atom_site_label
  _atom_site_symmetry_multiplicity
  _atom_site_fract_x
  _atom_site_fract_y
  _atom_site_fract_z
  _atom_site_occupancy
  C   C1        1.0  0.5000002849999999  0.5000008699999999  0.5514958106293114  1.0000
  O   O1        1.0  0.500000615  0.5000019499999999  0.5624901464598706  1.0000
  Ga  Ga1       1.0  0.250000385  0.2500011999999999  0.4375098535401294  1.0000
  Ga  Ga2       1.0  0.250000385  0.2500011999999999  0.46183630720120966  1.0000
  Cu  Cu1       1.0  3.8499999998294813e-07  1.1999999999488572e-06  0.47788385681200185  1.0000
  Ga  Ga3       1.0  0.250000385  0.2500011999999999  0.49393140980808725  1.0000
  Ga  Ga4       1.0  0.2557050249999999  0.2557026399999999  0.5179330344203493  1.0000
  Cu  Cu2       1.0  0.999999495  0.99999836  0.5309865900056979  1.0000
  Ga  Ga5       1.0  0.250000385  0.7500011999999999  0.4375098535401294  1.0000
  Ga  Ga6       1.0  0.250000385  0.7500011999999999  0.46183630720120966  1.0000
  Cu  Cu3       1.0  3.8499999998294813e-07  0.5000011999999999  0.47788385681200185  1.0000
  Ga  Ga7       1.0  0.250000385  0.7500011999999999  0.49393140980808725  1.0000
  Ga  Ga8       1.0  0.255705425  0.7442903999999999  0.5179330276497627  1.0000
  Cu  Cu4       1.0  0.999999615  0.4999988199999999  0.5317356673972146  1.0000
  Ga  Ga9       1.0  0.7500003849999999  0.2500011999999999  0.4375098535401294  1.0000
  Ga  Ga10      1.0  0.7500003849999999  0.2500011999999999  0.46183630720120966  1.0000
  Cu  Cu5       1.0  0.500000385  1.1999999999488572e-06  0.47788385681200185  1.0000
  Ga  Ga11      1.0  0.7500003849999999  0.2500011999999999  0.49393140980808725  1.0000
  Ga  Ga12      1.0  0.744292785  0.25570272999999993  0.5179330310350561  1.0000
  Cu  Cu6       1.0  0.49999960499999996  0.9999988  0.5317356910942678  1.0000
  Ga  Ga13      1.0  0.7500003849999999  0.7500011999999999  0.4375098535401294  1.0000
  Ga  Ga14      1.0  0.7500003849999999  0.7500011999999999  0.46183630720120966  1.0000
  Cu  Cu7       1.0  0.500000385  0.5000011999999999  0.47788385681200185  1.0000
  Ga  Ga15      1.0  0.7500003849999999  0.7500011999999999  0.49393140980808725  1.0000
  Ga  Ga16      1.0  0.744292345  0.7442903  0.5179330276497627  1.0000
  Cu  Cu8       1.0  0.4999999049999999  0.49999967999999995  0.534007815330514  1.0000
