data_image0
_chemical_formula_structural       COCa4Al8Ge8Ca4Al8Ge8
_chemical_formula_sum              "C1 O1 Ca8 Al16 Ge16"
_cell_length_a       7.35582786
_cell_length_b       15.10559560875678
_cell_length_c       99.72822435
_cell_angle_alpha    98.08102650388656
_cell_angle_beta     90.0
_cell_angle_gamma    75.90796203281481

_space_group_name_H-M_alt    "P 1"
_space_group_IT_number       1

loop_
  _space_group_symop_operation_xyz
  'x, y, z'

loop_
  _atom_site_type_symbol
  _atom_site_label
  _atom_site_symmetry_multiplicity
  _atom_site_fract_x
  _atom_site_fract_y
  _atom_site_fract_z
  _atom_site_occupancy
  C   C1        1.0  0.6047687900000001  0.07104850499999994  0.5404161705459939  1.0000
  O   O1        1.0  0.6558020500000001  0.06943662499999995  0.5513452390078933  1.0000
  Ca  Ca1       1.0  0.75451709  0.5648255449999999  0.46206225599816586  1.0000
  Ca  Ca2       1.0  0.004517090000000047  0.06482554499999994  0.4514160980770661  1.0000
  Ca  Ca3       1.0  0.5045170900000001  0.06482554499999994  0.4727084109383416  1.0000
  Ca  Ca4       1.0  0.25451709000000006  0.5648255449999999  0.4833545688594414  1.0000
  Al  Al1       1.0  0.4949718900000001  0.7505826149999999  0.4873097659504098  1.0000
  Al  Al2       1.0  0.7449718900000001  0.25058261499999995  0.4766636110102339  1.0000
  Al  Al3       1.0  0.24497189000000003  0.25058261499999995  0.45537129516803454  1.0000
  Al  Al4       1.0  0.9949718900000001  0.7505826149999999  0.4660174530891342  1.0000
  Al  Al5       1.0  0.76406229  0.879068475  0.4900455267086488  1.0000
  Al  Al6       1.0  0.01406229000000002  0.37906847499999996  0.4793993717684729  1.0000
  Al  Al7       1.0  0.5140622900000001  0.37906847499999996  0.45810705890719744  1.0000
  Al  Al8       1.0  0.26406229000000003  0.879068475  0.4687532138473733  1.0000
  Ge  Ge1       1.0  0.85634023  0.694512595  0.4861159059444009  1.0000
  Ge  Ge2       1.0  0.10634023000000008  0.19451259499999995  0.475469751004225  1.0000
  Ge  Ge3       1.0  0.6063402300000001  0.19451259499999995  0.45417743516202563  1.0000
  Ge  Ge4       1.0  0.3563402300000001  0.694512595  0.4648235930831253  1.0000
  Ge  Ge5       1.0  0.4026939500000001  0.9351384949999999  0.4486547609921066  1.0000
  Ge  Ge6       1.0  0.6526939500000001  0.4351384949999999  0.4805932317744819  1.0000
  Ge  Ge7       1.0  0.15269395000000008  0.4351384949999999  0.45930091891320635  1.0000
  Ge  Ge8       1.0  0.9026939499999999  0.9351384949999999  0.4699470738533822  1.0000
  Ca  Ca5       1.0  0.7604744  0.562130065  0.5057084990015159  1.0000
  Ca  Ca6       1.0  0.004517090000000047  0.06482554499999994  0.4940007267805411  1.0000
  Ca  Ca7       1.0  0.5099837300000001  0.06338501499999995  0.5147214892245578  1.0000
  Ca  Ca8       1.0  0.25827165000000013  0.5671489249999999  0.5254516525609619  1.0000
  Al  Al9       1.0  0.5040505500000001  0.734666685  0.5299077164026159  1.0000
  Al  Al10      1.0  0.7668860600000001  0.25683448499999995  0.5172147905787801  1.0000
  Al  Al11      1.0  0.24497189000000003  0.25058261499999995  0.4979559238715095  1.0000
  Al  Al12      1.0  0.99935854  0.7523006950000001  0.5086554850435646  1.0000
  Al  Al13      1.0  0.68821023  0.859067065  0.5237124414775015  1.0000
  Al  Al14      1.0  0.0006414599999999826  0.371038845  0.5195148624865366  1.0000
  Al  Al15      1.0  0.52335507  0.378539005  0.5013826508568467  1.0000
  Al  Al16      1.0  0.30570521000000006  0.8716392550000001  0.5126515684861995  1.0000
  Ge  Ge9       1.0  0.8603816100000001  0.7009159949999999  0.529921553851175  1.0000
  Ge  Ge10      1.0  0.11761731000000006  0.20005695499999995  0.5198459119667546  1.0000
  Ge  Ge11      1.0  0.6063402300000001  0.19451259499999995  0.4967620638655006  1.0000
  Ge  Ge12      1.0  0.3588021300000001  0.6912435250000001  0.5071390741712631  1.0000
  Ge  Ge13      1.0  0.4026939500000001  0.9351384949999999  0.49123938969558156  1.0000
  Ge  Ge14      1.0  0.6483292500000001  0.42774567499999994  0.5253765243369133  1.0000
  Ge  Ge15      1.0  0.16225998000000008  0.43607607499999995  0.5019269228398607  1.0000
  Ge  Ge16      1.0  0.9184196699999998  0.9366149850000001  0.5133896064819742  1.0000
