data_image0
_chemical_formula_structural       COCa24Si16As32
_chemical_formula_sum              "C1 O1 Ca24 Si16 As32"
_cell_length_a       8.227392430773078
_cell_length_b       19.36520273579068
_cell_length_c       106.35096597
_cell_angle_alpha    107.97548269784077
_cell_angle_beta     88.85505071512127
_cell_angle_gamma    78.10166087423934

_space_group_name_H-M_alt    "P 1"
_space_group_IT_number       1

loop_
  _space_group_symop_operation_xyz
  'x, y, z'

loop_
  _atom_site_type_symbol
  _atom_site_label
  _atom_site_symmetry_multiplicity
  _atom_site_fract_x
  _atom_site_fract_y
  _atom_site_fract_z
  _atom_site_occupancy
  C   C1        1.0  0.07814382500000007  0.11872942999999996  0.5553058483017602  1.0000
  O   O1        1.0  0.04046127500000006  0.18376499999999996  0.5599834009477838  1.0000
  Ca  Ca1       1.0  0.3279712550000001  0.17207751999999993  0.4976697909424919  1.0000
  Ca  Ca2       1.0  0.827971255  0.17207751999999998  0.44070280403517437  1.0000
  Ca  Ca3       1.0  0.592455995  0.67618695  0.5239303037327175  1.0000
  Ca  Ca4       1.0  0.09506185500000007  0.67207752  0.46836264711172615  1.0000
  Ca  Ca5       1.0  0.15455267500000006  0.05309587999999995  0.4615846190338343  1.0000
  Ca  Ca6       1.0  0.654552675  0.053095879999999936  0.5185516093591712  1.0000
  Ca  Ca7       1.0  0.911013655  0.50364234  0.5434727986107997  1.0000
  Ca  Ca8       1.0  0.387462075  0.5530958799999999  0.49089176628261955  1.0000
  Ca  Ca9       1.0  0.8431978550000001  0.17259650999999993  0.4978087607732713  1.0000
  Ca  Ca10      1.0  0.343197855  0.17259650999999993  0.44084177044793454  1.0000
  Ca  Ca11      1.0  0.07551896500000005  0.67638009  0.5239121232877887  1.0000
  Ca  Ca12      1.0  0.579316265  0.6725965100000001  0.4682828090157217  1.0000
  Ca  Ca13      1.0  0.639326085  0.05257688999999996  0.4614456526210743  1.0000
  Ca  Ca14      1.0  0.13932608500000004  0.052576889999999946  0.5184126429464112  1.0000
  Ca  Ca15      1.0  0.422467395  0.5144639099999998  0.5438961715777311  1.0000
  Ca  Ca16      1.0  0.903207665  0.55257689  0.4909716043786239  1.0000
  Ca  Ca17      1.0  0.04555251500000006  0.2864962099999999  0.5348964651017789  1.0000
  Ca  Ca18      1.0  0.533505105  0.2964877599999999  0.478451628502622  1.0000
  Ca  Ca19      1.0  0.265117765  0.79648776  0.4447883728196738  1.0000
  Ca  Ca20      1.0  0.765117765  0.79648776  0.5017553631450107  1.0000
  Ca  Ca21      1.0  0.48356750500000006  0.9199253099999998  0.5362820446962553  1.0000
  Ca  Ca22      1.0  0.949018825  0.92868564  0.4808027848917236  1.0000
  Ca  Ca23      1.0  0.21740616500000004  0.42868564  0.5144660371566525  1.0000
  Ca  Ca24      1.0  0.7174061650000001  0.4286856399999999  0.45749905024933496  1.0000
  Si  Si1       1.0  0.729901945  0.37215773999999996  0.5169610716523219  1.0000
  Si  Si2       1.0  0.22990194500000005  0.37215774  0.459994081326985  1.0000
  Si  Si3       1.0  0.4930509450000001  0.8721577399999999  0.47186730299937985  1.0000
  Si  Si4       1.0  0.9777624750000001  0.86194013  0.5281567496027944  1.0000
  Si  Si5       1.0  0.752621985  0.8530156599999998  0.4422933417420238  1.0000
  Si  Si6       1.0  0.25262198500000005  0.85301566  0.49926033206736065  1.0000
  Si  Si7       1.0  0.9894729849999999  0.35301566  0.48738711039496585  1.0000
  Si  Si8       1.0  0.4859997250000001  0.34342960999999994  0.5476825816365396  1.0000
  Si  Si9       1.0  0.805410675  0.7423445399999999  0.44812300275272343  1.0000
  Si  Si10      1.0  0.3054106750000001  0.7423445399999999  0.5050899930780602  1.0000
  Si  Si11      1.0  0.5479699149999999  0.24281238  0.5268456623220571  1.0000
  Si  Si12      1.0  0.04735541500000006  0.24234454  0.4689482461131023  1.0000
  Si  Si13      1.0  0.6771132550000001  0.48282886  0.5111314106416222  1.0000
  Si  Si14      1.0  0.17711325500000005  0.4828288599999999  0.4541644203162853  1.0000
  Si  Si15      1.0  0.866291035  0.9824216499999999  0.5432023136494455  1.0000
  Si  Si16      1.0  0.4351685150000001  0.9828288599999999  0.490306163863224  1.0000
  As  As1       1.0  0.010527015000000058  0.30922778999999995  0.5065719710722975  1.0000
  As  As2       1.0  0.5105270150000001  0.30922778999999995  0.44960498074696054  1.0000
  As  As3       1.0  0.777029355  0.79881885  0.5320679515481136  1.0000
  As  As4       1.0  0.275355825  0.8092277899999999  0.4750865440171535  1.0000
  As  As5       1.0  0.4719969150000001  0.91594561  0.4526824423220483  1.0000
  As  As6       1.0  0.9719969150000001  0.91594561  0.509649432647385  1.0000
  As  As7       1.0  0.709401405  0.39825661  0.5412564967571786  1.0000
  As  As8       1.0  0.20716810500000005  0.41594560999999997  0.484167869377192  1.0000
  As  As9       1.0  0.7143773350000001  0.42553019999999997  0.48693123548202416  1.0000
  As  As10      1.0  0.21701189500000007  0.41906052999999993  0.543961794131254  1.0000
  As  As11      1.0  0.955203095  0.9255301999999999  0.45101108554764074  1.0000
  As  As12      1.0  0.455203095  0.9255302000000001  0.5079780758729776  1.0000
  As  As13      1.0  0.7681465949999999  0.7996432000000001  0.4723231779123214  1.0000
  As  As14      1.0  0.2624505650000001  0.79960609  0.5296911634318976  1.0000
  As  As15      1.0  0.527320835  0.29964319999999994  0.5082433244286856  1.0000
  As  As16      1.0  0.027320835000000057  0.29964319999999994  0.4512763375213681  1.0000
  As  As17      1.0  0.8395389350000001  0.17393711999999997  0.46926072486020476  1.0000
  As  As18      1.0  0.345204065  0.16941879999999995  0.5256899103487526  1.0000
  As  As19      1.0  0.08163457500000007  0.67393712  0.44001659905221613  1.0000
  As  As20      1.0  0.581634575  0.67393712  0.4969835859595337  1.0000
  As  As21      1.0  0.642985005  0.051236279999999954  0.48999368853414105  1.0000
  As  As22      1.0  0.13360937500000006  0.017171139999999956  0.5486901385448357  1.0000
  As  As23      1.0  0.40088935500000006  0.5512362799999999  0.5192378143421295  1.0000
  As  As24      1.0  0.900889355  0.55123628  0.46227082743481196  1.0000
  As  As25      1.0  0.8305419350000001  0.17687961999999996  0.5259273464810004  1.0000
  As  As26      1.0  0.32832931500000007  0.18061262999999994  0.4696403095812283  1.0000
  As  As27      1.0  0.5861686950000001  0.68061263  0.4403975817431545  1.0000
  As  As28      1.0  0.08616869500000005  0.6806126299999999  0.49736456865047196  1.0000
  As  As29      1.0  0.616394435  0.055237049999999954  0.5485981733161734  1.0000
  As  As30      1.0  0.15419461500000006  0.04456076999999996  0.48961410381311726  1.0000
  As  As31      1.0  0.896355235  0.5445607699999999  0.5188568316511911  1.0000
  As  As32      1.0  0.39635523500000003  0.5445607699999999  0.46188984474387357  1.0000
