data_image0
_chemical_formula_structural       COCo4Cu8Se16Sn4
_chemical_formula_sum              "C1 O1 Co4 Cu8 Se16 Sn4"
_cell_length_a       6.981043212787364
_cell_length_b       8.13753194
_cell_length_c       109.67861567
_cell_angle_alpha    90.0
_cell_angle_beta     90.76916120237314
_cell_angle_gamma    90.0

_space_group_name_H-M_alt    "P 1"
_space_group_IT_number       1

loop_
  _space_group_symop_operation_xyz
  'x, y, z'

loop_
  _atom_site_type_symbol
  _atom_site_label
  _atom_site_symmetry_multiplicity
  _atom_site_fract_x
  _atom_site_fract_y
  _atom_site_fract_z
  _atom_site_occupancy
  C   C1        1.0  0.20003087000000006  0.11491913999999999  0.549211192141187  1.0000
  O   O1        1.0  0.17494006000000006  0.11517531  0.5596983052080768  1.0000
  Co  Co1       1.0  0.24767815000000004  0.61470809  0.44030169479192305  1.0000
  Co  Co2       1.0  0.91434481  0.11470809  0.4704493361544486  1.0000
  Co  Co3       1.0  0.24012058000000003  0.11468086  0.5336825050893413  1.0000
  Co  Co4       1.0  0.58101148  0.61470809  0.5005969738992576  1.0000
  Cu  Cu1       1.0  0.41434481  0.36470809  0.4704493361544486  1.0000
  Cu  Cu2       1.0  0.08101148000000004  0.86470809  0.5005969738992575  1.0000
  Cu  Cu3       1.0  0.74767815  0.86470809  0.4403016947919231  1.0000
  Cu  Cu4       1.0  0.76481701  0.37748128  0.5310424003743772  1.0000
  Cu  Cu5       1.0  0.41434481  0.86470809  0.4704493361544486  1.0000
  Cu  Cu6       1.0  0.08101148000000004  0.36470809  0.5005969738992575  1.0000
  Cu  Cu7       1.0  0.74767815  0.36470809  0.4403016947919231  1.0000
  Cu  Cu8       1.0  0.76292123  0.8498612400000001  0.5310017878869938  1.0000
  Se  Se1       1.0  0.09098162000000004  0.8866288600000001  0.47843710986216303  1.0000
  Se  Se2       1.0  0.75764829  0.38662885999999996  0.5085847476069718  1.0000
  Se  Se3       1.0  0.4243149500000001  0.38662885999999996  0.44828946849963736  1.0000
  Se  Se4       1.0  0.4381861900000001  0.87879397  0.5383730701139939  1.0000
  Se  Se5       1.0  0.5564274900000001  0.61470809  0.4788571014440076  1.0000
  Se  Se6       1.0  0.22309416  0.11470809  0.5090047391888165  1.0000
  Se  Se7       1.0  0.88976082  0.11470809  0.44870946008148205  1.0000
  Se  Se8       1.0  0.9153018999999999  0.61336957  0.5400182882727179  1.0000
  Se  Se9       1.0  0.25232186000000006  0.61470809  0.5063612989390788  1.0000
  Se  Se10      1.0  0.90851812  0.11337114  0.5324442945273187  1.0000
  Se  Se11      1.0  0.5856551900000001  0.11470809  0.4762136611942699  1.0000
  Se  Se12      1.0  0.91898852  0.61470809  0.44606602344946106  1.0000
  Se  Se13      1.0  0.09098162000000004  0.34278732  0.47843710986216303  1.0000
  Se  Se14      1.0  0.75764829  0.84278732  0.5085847476069718  1.0000
  Se  Se15      1.0  0.4243149500000001  0.84278732  0.44828946849963736  1.0000
  Se  Se16      1.0  0.4387677300000001  0.3505134  0.5383396568827921  1.0000
  Sn  Sn1       1.0  0.91434481  0.61470809  0.4704493361544486  1.0000
  Sn  Sn2       1.0  0.58101148  0.11470809  0.5005969738992576  1.0000
  Sn  Sn3       1.0  0.24767815000000004  0.11470809  0.44030169479192305  1.0000
  Sn  Sn4       1.0  0.25687618000000007  0.61425344  0.5309330476524696  1.0000
