data_image0
_chemical_formula_structural       COCa6Al12Ga12Ca6Al12Ga12
_chemical_formula_sum              "C1 O1 Ca12 Al24 Ga24"
_cell_length_a       14.151131480686999
_cell_length_b       8.68077696
_cell_length_c       105.96718577
_cell_angle_alpha    90.0
_cell_angle_beta     120.93696410211876
_cell_angle_gamma    90.0

_space_group_name_H-M_alt    "P 1"
_space_group_IT_number       1

loop_
  _space_group_symop_operation_xyz
  'x, y, z'

loop_
  _atom_site_type_symbol
  _atom_site_label
  _atom_site_symmetry_multiplicity
  _atom_site_fract_x
  _atom_site_fract_y
  _atom_site_fract_z
  _atom_site_occupancy
  C   C1        1.0  0.50595634  0.25653688  0.554432174171422  1.0000
  O   O1        1.0  0.55994554  0.23346791  0.5669301307257613  1.0000
  Ca  Ca1       1.0  0.7083333300000001  0.08088488999999999  0.5084961232686579  1.0000
  Ca  Ca2       1.0  0.04166667000000002  0.08088488999999999  0.4330698692742388  1.0000
  Ca  Ca3       1.0  0.375  0.08088488999999999  0.47078299627144826  1.0000
  Ca  Ca4       1.0  0.7083333300000001  0.33088489  0.4519264310757528  1.0000
  Ca  Ca5       1.0  0.04166667000000002  0.33088489  0.48963955807296233  1.0000
  Ca  Ca6       1.0  0.37428852999999995  0.32843236  0.5263927698220625  1.0000
  Al  Al1       1.0  0.79166667  0.33088489  0.48963955807296233  1.0000
  Al  Al2       1.0  0.10706423000000002  0.32949253  0.5247519681956111  1.0000
  Al  Al3       1.0  0.4583333299999999  0.33088489  0.45192643107575275  1.0000
  Al  Al4       1.0  0.625  0.08088488999999999  0.47078299627144826  1.0000
  Al  Al5       1.0  0.95833333  0.08088488999999999  0.5084961232686578  1.0000
  Al  Al6       1.0  0.29166667  0.08088488999999999  0.43306986927423874  1.0000
  Al  Al7       1.0  0.79166667  0.08088488999999999  0.4330698692742388  1.0000
  Al  Al8       1.0  0.125  0.08088488999999999  0.47078299627144826  1.0000
  Al  Al9       1.0  0.4583333299999999  0.08088488999999999  0.5084961232686578  1.0000
  Al  Al10      1.0  0.95833333  0.33088489  0.45192643107575275  1.0000
  Al  Al11      1.0  0.29166667  0.33088489  0.48963955807296233  1.0000
  Al  Al12      1.0  0.62728766  0.36019364  0.5279462561303606  1.0000
  Ga  Ga1       1.0  0.83735846  0.08088488999999999  0.47930047403278486  1.0000
  Ga  Ga2       1.0  0.18082733000000004  0.08034950999999999  0.5191847197508773  1.0000
  Ga  Ga3       1.0  0.5040251299999999  0.08088488999999999  0.44158734703557534  1.0000
  Ga  Ga4       1.0  0.5793082  0.33088489  0.4811220769174442  1.0000
  Ga  Ga5       1.0  0.91186931  0.32816997  0.5216085624351837  1.0000
  Ga  Ga6       1.0  0.24597487000000004  0.33088489  0.4434089499202347  1.0000
  Ga  Ga7       1.0  0.84093821  0.24499505999999996  0.5409541002009015  1.0000
  Ga  Ga8       1.0  0.17069180000000006  0.33088489  0.4604439122312708  1.0000
  Ga  Ga9       1.0  0.5040251299999999  0.33088489  0.49815703922848037  1.0000
  Ga  Ga10      1.0  0.91264154  0.08088488999999999  0.4622655151159302  1.0000
  Ga  Ga11      1.0  0.24597487000000004  0.08088488999999999  0.49997864211313975  1.0000
  Ga  Ga12      1.0  0.62633931  0.08329811  0.5375167685082628  1.0000
  Ca  Ca7       1.0  0.7083333300000001  0.58088489  0.5084961232686579  1.0000
  Ca  Ca8       1.0  0.04166667000000002  0.58088489  0.4330698692742388  1.0000
  Ca  Ca9       1.0  0.375  0.58088489  0.47078299627144826  1.0000
  Ca  Ca10      1.0  0.7083333300000001  0.83088489  0.4519264310757528  1.0000
  Ca  Ca11      1.0  0.04166667000000002  0.83088489  0.48963955807296233  1.0000
  Ca  Ca12      1.0  0.36843989999999993  0.82984213  0.5255637613646449  1.0000
  Al  Al13      1.0  0.79166667  0.83088489  0.48963955807296233  1.0000
  Al  Al14      1.0  0.10695957000000002  0.8310612  0.5247078370482201  1.0000
  Al  Al15      1.0  0.4583333299999999  0.83088489  0.45192643107575275  1.0000
  Al  Al16      1.0  0.625  0.58088489  0.47078299627144826  1.0000
  Al  Al17      1.0  0.95833333  0.58088489  0.5084961232686578  1.0000
  Al  Al18      1.0  0.29166667  0.58088489  0.43306986927423874  1.0000
  Al  Al19      1.0  0.79166667  0.58088489  0.4330698692742388  1.0000
  Al  Al20      1.0  0.125  0.58088489  0.47078299627144826  1.0000
  Al  Al21      1.0  0.4583333299999999  0.58088489  0.5084961232686578  1.0000
  Al  Al22      1.0  0.95833333  0.83088489  0.45192643107575275  1.0000
  Al  Al23      1.0  0.29166667  0.83088489  0.48963955807296233  1.0000
  Al  Al24      1.0  0.62527298  0.80638314  0.527860359580059  1.0000
  Ga  Ga13      1.0  0.83735846  0.58088489  0.47930047403278486  1.0000
  Ga  Ga14      1.0  0.18205100000000005  0.57967835  0.5195026663053071  1.0000
  Ga  Ga15      1.0  0.5040251299999999  0.58088489  0.44158734703557534  1.0000
  Ga  Ga16      1.0  0.5793082  0.83088489  0.4811220769174442  1.0000
  Ga  Ga17      1.0  0.91168687  0.83364635  0.5215729880192628  1.0000
  Ga  Ga18      1.0  0.24597487000000004  0.83088489  0.4434089499202347  1.0000
  Ga  Ga19      1.0  0.8403937500000002  0.91965049  0.5410343793808806  1.0000
  Ga  Ga20      1.0  0.17069180000000006  0.83088489  0.4604439122312708  1.0000
  Ga  Ga21      1.0  0.5040251299999999  0.83088489  0.49815703922848037  1.0000
  Ga  Ga22      1.0  0.91264154  0.58088489  0.4622655151159302  1.0000
  Ga  Ga23      1.0  0.24597487000000004  0.58088489  0.49997864211313975  1.0000
  Ga  Ga24      1.0  0.56165463  0.58284223  0.5386546067486988  1.0000
