data_image0
_chemical_formula_structural       COGa8Se8Ga8Se8
_chemical_formula_sum              "C1 O1 Ga16 Se16"
_cell_length_a       6.6935107
_cell_length_b       18.37939136061884
_cell_length_c       100.91600162
_cell_angle_alpha    102.13774677209607
_cell_angle_beta     90.0
_cell_angle_gamma    90.0

_space_group_name_H-M_alt    "P 1"
_space_group_IT_number       1

loop_
  _space_group_symop_operation_xyz
  'x, y, z'

loop_
  _atom_site_type_symbol
  _atom_site_label
  _atom_site_symmetry_multiplicity
  _atom_site_fract_x
  _atom_site_fract_y
  _atom_site_fract_z
  _atom_site_occupancy
  C   C1        1.0  0.22465670500000004  0.12459438499999999  0.5396405272149272  1.0000
  O   O1        1.0  0.17949515500000005  0.07851924499999999  0.5451626251075813  1.0000
  Ga  Ga1       1.0  0.36118142500000006  0.8514855749999999  0.4818458760548438  1.0000
  Ga  Ga2       1.0  0.8611814250000001  0.8514855749999999  0.46269876290894346  1.0000
  Ga  Ga3       1.0  0.194514765  0.351485575  0.4818458760548438  1.0000
  Ga  Ga4       1.0  0.6945147650000001  0.351485575  0.4626987629089434  1.0000
  Ga  Ga5       1.0  0.194514765  0.212310915  0.4765162878330658  1.0000
  Ga  Ga6       1.0  0.6945147650000001  0.212310915  0.4573691746871655  1.0000
  Ga  Ga7       1.0  0.36118142500000006  0.712310915  0.4765162878330658  1.0000
  Ga  Ga8       1.0  0.8611814250000001  0.712310915  0.4573691746871654  1.0000
  Se  Se1       1.0  0.36118142500000006  0.417600025  0.4652305627036901  1.0000
  Se  Se2       1.0  0.8611814250000001  0.417600025  0.4843776758495904  1.0000
  Se  Se3       1.0  0.194514765  0.9176000249999999  0.46523056270369006  1.0000
  Se  Se4       1.0  0.6945147650000001  0.9176000249999999  0.4843776758495904  1.0000
  Se  Se5       1.0  0.194514765  0.6461964649999999  0.4548373748924189  1.0000
  Se  Se6       1.0  0.6945147650000001  0.6461964649999999  0.47398448803831916  1.0000
  Se  Se7       1.0  0.36118142500000006  0.146196465  0.4548373748924189  1.0000
  Se  Se8       1.0  0.8611814250000001  0.146196465  0.4739844880383192  1.0000
  Ga  Ga9       1.0  0.4168619050000001  0.851200945  0.5160328014938006  1.0000
  Ga  Ga10      1.0  0.8593139850000001  0.852986065  0.5024460835303841  1.0000
  Ga  Ga11      1.0  0.13881857500000006  0.350806685  0.5162735802710329  1.0000
  Ga  Ga12      1.0  0.6955659650000001  0.353057285  0.5024382745717587  1.0000
  Ga  Ga13      1.0  0.14081892500000004  0.21151747499999995  0.5109049013030562  1.0000
  Ga  Ga14      1.0  0.6955120050000001  0.21244516499999996  0.4969531658381645  1.0000
  Ga  Ga15      1.0  0.4169376050000001  0.712053735  0.510644234036457  1.0000
  Ga  Ga16      1.0  0.859462335  0.7123514249999999  0.49706492983525075  1.0000
  Se  Se9       1.0  0.36450148500000007  0.419346815  0.5042710423691605  1.0000
  Se  Se10      1.0  0.850236795  0.421179045  0.5237028133485474  1.0000
  Se  Se11      1.0  0.19017857500000002  0.9198714249999999  0.5041874690497012  1.0000
  Se  Se12      1.0  0.7047414350000001  0.9214807549999999  0.5236716234671173  1.0000
  Se  Se13      1.0  0.18843149500000003  0.6443957849999999  0.49355552133280783  1.0000
  Se  Se14      1.0  0.7061512150000001  0.6428608849999999  0.5128864620825994  1.0000
  Se  Se15      1.0  0.3672646950000001  0.144395785  0.4935555213328078  1.0000
  Se  Se16      1.0  0.8476282450000001  0.142957485  0.5127053058839343  1.0000
