data_image0
_chemical_formula_structural       COGa12Se18
_chemical_formula_sum              "C1 O1 Ga12 Se18"
_cell_length_a       10.52525544233372
_cell_length_b       10.525255443604255
_cell_length_c       101.87967236
_cell_angle_alpha    94.38201087828337
_cell_angle_beta     98.23972473444874
_cell_angle_gamma    109.54167521079248

_space_group_name_H-M_alt    "P 1"
_space_group_IT_number       1

loop_
  _space_group_symop_operation_xyz
  'x, y, z'

loop_
  _atom_site_type_symbol
  _atom_site_label
  _atom_site_symmetry_multiplicity
  _atom_site_fract_x
  _atom_site_fract_y
  _atom_site_fract_z
  _atom_site_occupancy
  C   C1        1.0  0.23308093  0.5880586  0.5432035378858551  1.0000
  O   O1        1.0  0.30660531999999996  0.5586966600000001  0.5508125686350573  1.0000
  Ga  Ga1       1.0  0.84417864  0.09229930000000004  0.4640531162114628  1.0000
  Ga  Ga2       1.0  0.6657096  0.42997991999999996  0.5147495808842826  1.0000
  Ga  Ga3       1.0  0.26084529999999995  0.75896597  0.49012936081971303  1.0000
  Ga  Ga4       1.0  0.5547646499999999  0.42788530999999996  0.4770912369510132  1.0000
  Ga  Ga5       1.0  0.13809798000000004  0.76121865  0.4510149923427629  1.0000
  Ga  Ga6       1.0  0.9687972400000001  0.11145381000000006  0.5030798153074835  1.0000
  Ga  Ga7       1.0  0.6007927000000002  0.08554506000000005  0.48830179984189287  1.0000
  Ga  Ga8       1.0  0.18412604000000002  0.41887839000000004  0.4622255552336426  1.0000
  Ga  Ga9       1.0  0.9799492999999999  0.7895727800000001  0.5094577009694022  1.0000
  Ga  Ga10      1.0  0.6165279799999999  0.74952823  0.500644773766572  1.0000
  Ga  Ga11      1.0  0.22234512  0.08209747000000005  0.47526367597319297  1.0000
  Ga  Ga12      1.0  0.8056784499999999  0.41543081  0.4491874313649427  1.0000
  Se  Se1       1.0  0.72256103  0.007073990000000038  0.5065814274480244  1.0000
  Se  Se2       1.0  0.31046659  0.33775700000000003  0.4808093924937415  1.0000
  Se  Se3       1.0  0.89379993  0.6710903300000001  0.45473314788549113  1.0000
  Se  Se4       1.0  0.94618927  0.34847968  0.46777127175419103  1.0000
  Se  Se5       1.0  0.7710098700000001  0.68481775  0.5190620995954898  1.0000
  Se  Se6       1.0  0.36183634000000003  0.015951360000000036  0.4933713849778451  1.0000
  Se  Se7       1.0  0.6048779200000001  0.010549570000000038  0.46559382805662036  1.0000
  Se  Se8       1.0  0.55301165  0.31524335000000003  0.5296536854280954  1.0000
  Se  Se9       1.0  0.01926459999999992  0.66362826  0.49144549047767383  1.0000
  Se  Se10      1.0  0.03385298000000002  0.3447942500000001  0.501778464622508  1.0000
  Se  Se11      1.0  0.6414381199999999  0.67210978  0.47863195192532026  1.0000
  Se  Se12      1.0  0.22477144999999996  0.005443110000000038  0.4525557041879204  1.0000
  Se  Se13      1.0  0.70485368  0.34337398  0.4929554709458066  1.0000
  Se  Se14      1.0  0.28685541000000003  0.6756769  0.4669783515347253  1.0000
  Se  Se15      1.0  0.10197148999999998  0.018821510000000038  0.5187219266265699  1.0000
  Se  Se16      1.0  0.9807354  0.99455689  0.4800164754034252  1.0000
  Se  Se17      1.0  0.56406873  0.32789022  0.4539402307951748  1.0000
  Se  Se18      1.0  0.39165112999999996  0.6760663  0.5065355196960304  1.0000
