data_image0
_chemical_formula_structural       COSb16Mo8Se8
_chemical_formula_sum              "C1 O1 Sb16 Mo8 Se8"
_cell_length_a       6.70011172086478
_cell_length_b       6.607134
_cell_length_c       126.51505777
_cell_angle_alpha    90.0
_cell_angle_beta     94.29270145353209
_cell_angle_gamma    90.0

_space_group_name_H-M_alt    "P 1"
_space_group_IT_number       1

loop_
  _space_group_symop_operation_xyz
  'x, y, z'

loop_
  _atom_site_type_symbol
  _atom_site_label
  _atom_site_symmetry_multiplicity
  _atom_site_fract_x
  _atom_site_fract_y
  _atom_site_fract_z
  _atom_site_occupancy
  C   C1        1.0  0.6045151200000001  0.62990627  0.5705367703224122  1.0000
  O   O1        1.0  0.57835435  0.63238183  0.5796458195311415  1.0000
  Sb  Sb1       1.0  0.19826531  0.40191362999999997  0.5136561138199405  1.0000
  Sb  Sb2       1.0  0.7993270299999999  0.90191363  0.5208254844016887  1.0000
  Sb  Sb3       1.0  0.7993270299999999  0.5980863699999999  0.4463744579052485  1.0000
  Sb  Sb4       1.0  0.19826531  0.09808636999999995  0.4392050828564385  1.0000
  Sb  Sb5       1.0  0.19916879000000004  0.84890471  0.5137155882803259  1.0000
  Sb  Sb6       1.0  0.79842355  0.3489047099999999  0.5207660099413034  1.0000
  Sb  Sb7       1.0  0.79842355  0.15109528999999997  0.4463149789778013  1.0000
  Sb  Sb8       1.0  0.19916879000000004  0.65109529  0.4392645617838857  1.0000
  Sb  Sb9       1.0  0.07306919  0.37542172999999995  0.4910060826077604  1.0000
  Sb  Sb10      1.0  0.92712571  0.87625625  0.5443614635073476  1.0000
  Sb  Sb11      1.0  0.92452315  0.62457827  0.4690244846503669  1.0000
  Sb  Sb12      1.0  0.07287429  0.12440575999999995  0.56568802939526  1.0000
  Sb  Sb13      1.0  0.07317224000000001  0.87456041  0.49104994468726504  1.0000
  Sb  Sb14      1.0  0.9268591300000001  0.37373410999999995  0.5443123615643888  1.0000
  Sb  Sb15      1.0  0.9244201000000001  0.12543958999999993  0.46898062703792404  1.0000
  Sb  Sb16      1.0  0.07700286000000002  0.62236898  0.5661859236329116  1.0000
  Mo  Mo1       1.0  0.673002  0.87563172  0.48078329215773125  1.0000
  Mo  Mo2       1.0  0.3405901  0.3722661899999999  0.5539111928265982  1.0000
  Mo  Mo3       1.0  0.32459034  0.12436827999999996  0.47924727956745794  1.0000
  Mo  Mo4       1.0  0.6678634400000001  0.6242851599999999  0.5552513783630653  1.0000
  Mo  Mo5       1.0  0.32443341  0.62511188  0.47922318423627874  1.0000
  Mo  Mo6       1.0  0.66136216  0.12482818999999995  0.5554152212546092  1.0000
  Mo  Mo7       1.0  0.6731589299999999  0.37488811999999994  0.48080738748891033  1.0000
  Mo  Mo8       1.0  0.34031722000000003  0.8784573799999998  0.5539262780941903  1.0000
  Se  Se1       1.0  0.41126524  0.87477936  0.46520005438790996  1.0000
  Se  Se2       1.0  0.5863271  0.3747793599999999  0.42037948637377703  1.0000
  Se  Se3       1.0  0.5863271  0.12522063999999997  0.4948305173372792  1.0000
  Se  Se4       1.0  0.41126524  0.62522064  0.5396510808843502  1.0000
  Se  Se5       1.0  0.5866702899999999  0.62554889  0.49480521143236084  1.0000
  Se  Se6       1.0  0.41092205  0.12554888999999997  0.5396763867892687  1.0000
  Se  Se7       1.0  0.41092205  0.3744511099999999  0.46522536029282835  1.0000
  Se  Se8       1.0  0.5866702899999999  0.87445111  0.4203541804688587  1.0000
