data_image0
_chemical_formula_structural       COCu4Ga4Rh8Cu4Ga4Rh8Cu4Ga4Rh8Cu4Ga4Rh8
_chemical_formula_sum              "C1 O1 Cu16 Ga16 Rh32"
_cell_length_a       8.53868966
_cell_length_b       8.53868966
_cell_length_c       106.22659216
_cell_angle_alpha    90.0
_cell_angle_beta     90.0
_cell_angle_gamma    90.0

_space_group_name_H-M_alt    "P 1"
_space_group_IT_number       1

loop_
  _space_group_symop_operation_xyz
  'x, y, z'

loop_
  _atom_site_type_symbol
  _atom_site_label
  _atom_site_symmetry_multiplicity
  _atom_site_fract_x
  _atom_site_fract_y
  _atom_site_fract_z
  _atom_site_occupancy
  C   C1        1.0  0.12363757500000003  0.375261235  0.5542189489124957  1.0000
  O   O1        1.0  0.12363749500000001  0.375261325  0.5651665752212677  1.0000
  Cu  Cu1       1.0  0.12363843500000002  0.375260865  0.4774623365033913  1.0000
  Cu  Cu2       1.0  0.37363843500000005  0.12526086500000003  0.4490430597467433  1.0000
  Cu  Cu3       1.0  0.12363682500000003  0.37525667500000004  0.5367765487186887  1.0000
  Cu  Cu4       1.0  0.37363843500000005  0.12526086500000003  0.5058816098497263  1.0000
  Ga  Ga1       1.0  0.37363843500000005  0.12526086500000003  0.4774623365033913  1.0000
  Ga  Ga2       1.0  0.12363843500000002  0.375260865  0.4490430597467433  1.0000
  Ga  Ga3       1.0  0.37416110500000005  0.12472871500000002  0.532558288311642  1.0000
  Ga  Ga4       1.0  0.12363843500000002  0.375260865  0.5058816098497263  1.0000
  Rh  Rh1       1.0  0.37363843500000005  0.375260865  0.46325269812506725  1.0000
  Rh  Rh2       1.0  0.12363843500000002  0.12526086500000003  0.46325269812506725  1.0000
  Rh  Rh3       1.0  0.12363843500000002  0.12526086500000003  0.43483342477873227  1.0000
  Rh  Rh4       1.0  0.37363843500000005  0.375260865  0.43483342477873227  1.0000
  Rh  Rh5       1.0  0.370916925  0.37525709500000004  0.520384705656363  1.0000
  Rh  Rh6       1.0  0.12363950500000002  0.12799779500000003  0.5203844908066478  1.0000
  Rh  Rh7       1.0  0.12363843500000002  0.12526086500000003  0.49167197147140235  1.0000
  Rh  Rh8       1.0  0.37363843500000005  0.375260865  0.49167197147140235  1.0000
  Cu  Cu5       1.0  0.12363843500000002  0.8752608650000001  0.4774623365033913  1.0000
  Cu  Cu6       1.0  0.37363843500000005  0.625260865  0.4490430597467433  1.0000
  Cu  Cu7       1.0  0.12363708500000002  0.8752712850000001  0.5344827892881729  1.0000
  Cu  Cu8       1.0  0.37363843500000005  0.625260865  0.5058816098497263  1.0000
  Ga  Ga5       1.0  0.37363843500000005  0.625260865  0.4774623365033913  1.0000
  Ga  Ga6       1.0  0.12363843500000002  0.8752608650000001  0.4490430597467433  1.0000
  Ga  Ga7       1.0  0.37417243499999997  0.625773455  0.5325595944614973  1.0000
  Ga  Ga8       1.0  0.12363843500000002  0.8752608650000001  0.5058816098497263  1.0000
  Rh  Rh9       1.0  0.37363843500000005  0.8752608650000001  0.46325269812506725  1.0000
  Rh  Rh10      1.0  0.12363843500000002  0.625260865  0.46325269812506725  1.0000
  Rh  Rh11      1.0  0.12363843500000002  0.625260865  0.43483342477873227  1.0000
  Rh  Rh12      1.0  0.37363843500000005  0.8752608650000001  0.43483342477873227  1.0000
  Rh  Rh13      1.0  0.37312103500000005  0.875259865  0.5202370015927064  1.0000
  Rh  Rh14      1.0  0.12364362500000003  0.622535925  0.5203840679278435  1.0000
  Rh  Rh15      1.0  0.12363843500000002  0.625260865  0.49167197147140235  1.0000
  Rh  Rh16      1.0  0.37363843500000005  0.8752608650000001  0.49167197147140235  1.0000
  Cu  Cu9       1.0  0.623638435  0.375260865  0.4774623365033913  1.0000
  Cu  Cu10      1.0  0.873638435  0.12526086500000003  0.4490430597467433  1.0000
  Cu  Cu11      1.0  0.6236385550000001  0.375264435  0.5344833451691817  1.0000
  Cu  Cu12      1.0  0.873638435  0.12526086500000003  0.5058816098497263  1.0000
  Ga  Ga9       1.0  0.873638435  0.12526086500000003  0.4774623365033913  1.0000
  Ga  Ga10      1.0  0.623638435  0.375260865  0.4490430597467433  1.0000
  Ga  Ga11      1.0  0.873114415  0.12472992500000002  0.5325581007444304  1.0000
  Ga  Ga12      1.0  0.623638435  0.375260865  0.5058816098497263  1.0000
  Rh  Rh17      1.0  0.873638435  0.375260865  0.46325269812506725  1.0000
  Rh  Rh18      1.0  0.623638435  0.12526086500000003  0.46325269812506725  1.0000
  Rh  Rh19      1.0  0.623638435  0.12526086500000003  0.43483342477873227  1.0000
  Rh  Rh20      1.0  0.873638435  0.375260865  0.43483342477873227  1.0000
  Rh  Rh21      1.0  0.876363175  0.375261495  0.5203848045554381  1.0000
  Rh  Rh22      1.0  0.623640355  0.12577901500000002  0.5202374517540141  1.0000
  Rh  Rh23      1.0  0.623638435  0.12526086500000003  0.49167197147140235  1.0000
  Rh  Rh24      1.0  0.873638435  0.375260865  0.49167197147140235  1.0000
  Cu  Cu13      1.0  0.623638435  0.8752608650000001  0.4774623365033913  1.0000
  Cu  Cu14      1.0  0.873638435  0.625260865  0.4490430597467433  1.0000
  Cu  Cu15      1.0  0.623637825  0.8752594549999999  0.5345375793758345  1.0000
  Cu  Cu16      1.0  0.873638435  0.625260865  0.5058816098497263  1.0000
  Ga  Ga13      1.0  0.873638435  0.625260865  0.4774623365033913  1.0000
  Ga  Ga14      1.0  0.623638435  0.8752608650000001  0.4490430597467433  1.0000
  Ga  Ga15      1.0  0.873119755  0.625776035  0.5325589703742296  1.0000
  Ga  Ga16      1.0  0.623638435  0.8752608650000001  0.5058816098497263  1.0000
  Rh  Rh25      1.0  0.873638435  0.8752608650000001  0.46325269812506725  1.0000
  Rh  Rh26      1.0  0.623638435  0.625260865  0.46325269812506725  1.0000
  Rh  Rh27      1.0  0.623638435  0.625260865  0.43483342477873227  1.0000
  Rh  Rh28      1.0  0.873638435  0.8752608650000001  0.43483342477873227  1.0000
  Rh  Rh29      1.0  0.874156515  0.875257595  0.5202372471352379  1.0000
  Rh  Rh30      1.0  0.623641525  0.6247391349999999  0.5202355658509595  1.0000
  Rh  Rh31      1.0  0.623638435  0.625260865  0.49167197147140235  1.0000
  Rh  Rh32      1.0  0.873638435  0.8752608650000001  0.49167197147140235  1.0000
