data_image0
_chemical_formula_structural       COGa12Ge12Mn12
_chemical_formula_sum              "C1 O1 Ga12 Ge12 Mn12"
_cell_length_a       7.062621162914924
_cell_length_b       8.078208223487694
_cell_length_c       100.43616194
_cell_angle_alpha    83.69456129297383
_cell_angle_beta     86.89947352934065
_cell_angle_gamma    70.41244046760058

_space_group_name_H-M_alt    "P 1"
_space_group_IT_number       1

loop_
  _space_group_symop_operation_xyz
  'x, y, z'

loop_
  _atom_site_type_symbol
  _atom_site_label
  _atom_site_symmetry_multiplicity
  _atom_site_fract_x
  _atom_site_fract_y
  _atom_site_fract_z
  _atom_site_occupancy
  C   C1        1.0  0.8627957749999999  0.7326283000000001  0.5485544669675645  1.0000
  O   O1        1.0  0.835752335  0.7158022700000002  0.5602440089189848  1.0000
  Ga  Ga1       1.0  0.5391121150000001  0.81553253  0.5315217077612235  1.0000
  Ga  Ga2       1.0  0.149028865  0.19243979000000003  0.513139975643393  1.0000
  Ga  Ga3       1.0  0.674055125  0.5724332500000001  0.49524978329368924  1.0000
  Ga  Ga4       1.0  0.601835545  0.35183205  0.5266966099018489  1.0000
  Ga  Ga5       1.0  0.15912934499999992  0.7219282400000001  0.5104027346398479  1.0000
  Ga  Ga6       1.0  0.7254185750000001  0.10838766000000001  0.4936932674631431  1.0000
  Ga  Ga7       1.0  0.22961068500000004  0.9613221400000002  0.4784142363770727  1.0000
  Ga  Ga8       1.0  0.785166235  0.35021103  0.46157868643005734  1.0000
  Ga  Ga9       1.0  0.34072179499999994  0.7390999200000001  0.44474313648304215  1.0000
  Ga  Ga10      1.0  0.28097412499999996  0.49727655000000004  0.4768577175161278  1.0000
  Ga  Ga11      1.0  0.8365296849999999  0.8861654400000002  0.4600221705995113  1.0000
  Ga  Ga12      1.0  0.39208523500000003  0.27505433  0.44318662065249603  1.0000
  Ge  Ge1       1.0  0.265369045  0.6605043  0.5360367534030921  1.0000
  Ge  Ge2       1.0  0.8949554650000001  0.034589550000000024  0.5207510705917697  1.0000
  Ge  Ge3       1.0  0.4391520350000001  0.40800108999999996  0.5023682838951748  1.0000
  Ge  Ge4       1.0  0.8747986950000001  0.49946393000000006  0.5215844847946557  1.0000
  Ge  Ge5       1.0  0.404766105  0.88393093  0.5034103137782739  1.0000
  Ge  Ge6       1.0  0.337433965  0.15202366000000003  0.5375515557948716  1.0000
  Ge  Ge7       1.0  0.9947075949999998  0.7968899800000001  0.48553273394815955  1.0000
  Ge  Ge8       1.0  0.550263145  0.18577886000000002  0.46869718703154306  1.0000
  Ge  Ge9       1.0  0.10581870499999996  0.5746677500000001  0.4518616370845278  1.0000
  Ge  Ge10      1.0  0.515877215  0.6617087100000001  0.4697392169146422  1.0000
  Ge  Ge11      1.0  0.07143277499999999  0.05059760000000003  0.4529036699980256  1.0000
  Ge  Ge12      1.0  0.9603216550000001  0.27281982000000005  0.48657476686165746  1.0000
  Mn  Mn1       1.0  0.060847955  0.49318823  0.49868041286517  1.0000
  Mn  Mn2       1.0  0.9085546449999997  0.7520682700000001  0.5305576500379112  1.0000
  Mn  Mn3       1.0  0.5383651450000001  0.08718521000000003  0.5155976259976472  1.0000
  Mn  Mn4       1.0  0.24374017499999995  0.42457805000000004  0.5241688785461477  1.0000
  Mn  Mn5       1.0  0.783070185  0.7987437900000001  0.5070981878386777  1.0000
  Mn  Mn6       1.0  0.33862573499999993  0.18763268000000005  0.4902626378916624  1.0000
  Mn  Mn7       1.0  0.7275146250000001  0.6598549  0.4481737660545229  1.0000
  Mn  Mn8       1.0  0.616403515  0.8820771200000002  0.4818448629181547  1.0000
  Mn  Mn9       1.0  0.171959075  0.27096601  0.46500931600153816  1.0000
  Mn  Mn10      1.0  0.8941812950000001  0.5765215700000001  0.473427087944647  1.0000
  Mn  Mn11      1.0  0.44973684500000005  0.96541045  0.4565915410280305  1.0000
  Mn  Mn12      1.0  0.0052924049999999966  0.35429934  0.43975599108101515  1.0000
