data_image0
_chemical_formula_structural       CONa16Ge16
_chemical_formula_sum              "C1 O1 Na16 Ge16"
_cell_length_a       6.79819824
_cell_length_b       12.059765993972603
_cell_length_c       104.86150229
_cell_angle_alpha    115.81123120189837
_cell_angle_beta     90.0
_cell_angle_gamma    90.0

_space_group_name_H-M_alt    "P 1"
_space_group_IT_number       1

loop_
  _space_group_symop_operation_xyz
  'x, y, z'

loop_
  _atom_site_type_symbol
  _atom_site_label
  _atom_site_symmetry_multiplicity
  _atom_site_fract_x
  _atom_site_fract_y
  _atom_site_fract_z
  _atom_site_occupancy
  C   C1        1.0  0.240828625  0.70745477  0.5655206630895211  1.0000
  O   O1        1.0  0.20974725500000002  0.6575228099999999  0.5724707954411284  1.0000
  Na  Na1       1.0  0.857574055  0.13982798  0.48293800922965663  1.0000
  Na  Na2       1.0  0.358454565  0.8806753899999998  0.5311949957202186  1.0000
  Na  Na3       1.0  0.13795097500000003  0.86017202  0.4724688704128445  1.0000
  Na  Na4       1.0  0.637950975  0.13982798  0.42752920455887167  1.0000
  Na  Na5       1.0  0.814135085  0.39459622999999994  0.46688198412698556  1.0000
  Na  Na6       1.0  0.31413508500000004  0.60540377  0.4331160875202024  1.0000
  Na  Na7       1.0  0.181389945  0.60540377  0.4885248921909874  1.0000
  Na  Na8       1.0  0.689108195  0.41414314999999996  0.5285937152948365  1.0000
  Na  Na9       1.0  0.14808878500000003  0.39335049  0.5065925261497664  1.0000
  Na  Na10      1.0  0.648088785  0.60664951  0.5042231548389914  1.0000
  Na  Na11      1.0  0.847436245  0.60664951  0.4488143534927347  1.0000
  Na  Na12      1.0  0.34743624500000003  0.39335049  0.4511837214789815  1.0000
  Na  Na13      1.0  0.06313466500000002  0.0965426  0.4481490422575414  1.0000
  Na  Na14      1.0  0.563134665  0.9034574  0.4518490327141749  1.0000
  Na  Na15      1.0  0.9323903649999999  0.9034574  0.5072578340604316  1.0000
  Na  Na16      1.0  0.432390365  0.0965426  0.5035578469283262  1.0000
  Ge  Ge1       1.0  0.314901215  0.12341149  0.47682492326718073  1.0000
  Ge  Ge2       1.0  0.8404029049999999  0.87097553  0.5349715467370867  1.0000
  Ge  Ge3       1.0  0.680623815  0.87658851  0.47858195305079215  1.0000
  Ge  Ge4       1.0  0.194338215  0.11554458999999999  0.5296323477767372  1.0000
  Ge  Ge5       1.0  0.21525850500000002  0.32457482  0.4748555359193874  1.0000
  Ge  Ge6       1.0  0.717825415  0.68064195  0.5357624686217805  1.0000
  Ge  Ge7       1.0  0.780266525  0.67542518  0.4805513437231137  1.0000
  Ge  Ge8       1.0  0.24884516500000003  0.32098248  0.5304275051103753  1.0000
  Ge  Ge9       1.0  0.534723185  0.32362783  0.4887242309026841  1.0000
  Ge  Ge10      1.0  0.028081715000000028  0.6731104099999999  0.5220081473826216  1.0000
  Ge  Ge11      1.0  0.46080184500000004  0.6763721699999999  0.46668264541528875  1.0000
  Ge  Ge12      1.0  0.9608018449999999  0.32362783  0.4333154262318992  1.0000
  Ge  Ge13      1.0  0.522516485  0.19205374999999997  0.4605758627583061  1.0000
  Ge  Ge14      1.0  0.022516485000000034  0.80794625  0.43942220888888184  1.0000
  Ge  Ge15      1.0  0.473008545  0.80794625  0.4948310135596668  1.0000
  Ge  Ge16      1.0  0.9774835149999999  0.18459271  0.515034464073148  1.0000
