data_image0
_chemical_formula_structural       COAs4Pd12Pb8As4Pd12Pb8
_chemical_formula_sum              "C1 O1 As8 Pd24 Pb16"
_cell_length_a       7.00162585
_cell_length_b       13.599320118206421
_cell_length_c       105.66908866
_cell_angle_alpha    64.07826269679052
_cell_angle_beta     90.0
_cell_angle_gamma    90.0

_space_group_name_H-M_alt    "P 1"
_space_group_IT_number       1

loop_
  _space_group_symop_operation_xyz
  'x, y, z'

loop_
  _atom_site_type_symbol
  _atom_site_label
  _atom_site_symmetry_multiplicity
  _atom_site_fract_x
  _atom_site_fract_y
  _atom_site_fract_z
  _atom_site_occupancy
  C   C1        1.0  0.7409382299999999  0.49078589000000006  0.5498899190966243  1.0000
  O   O1        1.0  0.73381776  0.4702365600000001  0.5619883929974785  1.0000
  As  As1       1.0  0.7216523499999999  0.05234407000000003  0.4380116070025213  1.0000
  As  As2       1.0  0.30784651  0.05234407000000003  0.466141160597499  1.0000
  As  As3       1.0  0.22165234999999994  0.5523440700000001  0.466141160597499  1.0000
  As  As4       1.0  0.80784651  0.5523440700000001  0.43801160700252123  1.0000
  Pd  Pd1       1.0  0.058820130000000005  0.43212684  0.45629632620917254  1.0000
  Pd  Pd2       1.0  0.47067872999999993  0.17256130000000006  0.4427696992340036  1.0000
  Pd  Pd3       1.0  0.96150377  0.05234407000000003  0.4764986898145427  1.0000
  Pd  Pd4       1.0  0.06799509000000001  0.05234407000000003  0.4483691362195649  1.0000
  Pd  Pd5       1.0  0.55882013  0.17256130000000006  0.4708992494534352  1.0000
  Pd  Pd6       1.0  0.9706787299999999  0.43212684  0.48442587642860413  1.0000
  Pd  Pd7       1.0  0.55882013  0.9321268400000001  0.484425876428604  1.0000
  Pd  Pd8       1.0  0.9706787299999999  0.6725613  0.47089924945343525  1.0000
  Pd  Pd9       1.0  0.46150377  0.5523440700000001  0.44836913621956487  1.0000
  Pd  Pd10      1.0  0.5679950899999999  0.5523440700000001  0.47649868981454263  1.0000
  Pd  Pd11      1.0  0.058820130000000005  0.6725613  0.4427696992340036  1.0000
  Pd  Pd12      1.0  0.47067872999999993  0.9321268400000001  0.45629632620917254  1.0000
  Pb  Pb1       1.0  0.35074439999999996  0.37319115  0.442318773524493  1.0000
  Pb  Pb2       1.0  0.17875445999999998  0.23149699000000004  0.47841991229219255  1.0000
  Pb  Pb3       1.0  0.6787544600000001  0.37319115  0.4704483237439246  1.0000
  Pb  Pb4       1.0  0.8507444  0.23149699000000004  0.45029035869721484  1.0000
  Pb  Pb5       1.0  0.8507444  0.87319115  0.47044832374392465  1.0000
  Pb  Pb6       1.0  0.6787544600000001  0.7314969900000001  0.45029035869721473  1.0000
  Pb  Pb7       1.0  0.17875445999999998  0.87319115  0.44231877352449306  1.0000
  Pb  Pb8       1.0  0.35074439999999996  0.7314969900000001  0.4784199122921925  1.0000
  As  As5       1.0  0.7216523499999999  0.05234407000000003  0.4942707108169306  1.0000
  As  As6       1.0  0.28997553  0.05272168000000003  0.523164491438385  1.0000
  As  As7       1.0  0.23150793  0.5564870300000001  0.5228299781893408  1.0000
  As  As8       1.0  0.80784651  0.5523440700000001  0.4942707108169305  1.0000
  Pd  Pd13      1.0  0.0614793  0.43505948  0.5129219569524202  1.0000
  Pd  Pd14      1.0  0.47067872999999993  0.17256130000000006  0.49902880304841296  1.0000
  Pd  Pd15      1.0  0.94150203  0.059017650000000026  0.5315706646771963  1.0000
  Pd  Pd16      1.0  0.06799509000000001  0.05234407000000003  0.5046282400339742  1.0000
  Pd  Pd17      1.0  0.53024993  0.18367808000000002  0.5256560731998264  1.0000
  Pd  Pd18      1.0  0.92968248  0.47925182000000005  0.536291818307035  1.0000
  Pd  Pd19      1.0  0.5623645199999999  0.94765593  0.5370102661764713  1.0000
  Pd  Pd20      1.0  0.029321270000000007  0.7082643300000001  0.5239813128496017  1.0000
  Pd  Pd21      1.0  0.46150377  0.5523440700000001  0.5046282400339742  1.0000
  Pd  Pd22      1.0  0.557553  0.5439514200000001  0.5330383015149605  1.0000
  Pd  Pd23      1.0  0.058820130000000005  0.6725613  0.49902880304841296  1.0000
  Pd  Pd24      1.0  0.46551747  0.9362417300000002  0.5116784665064084  1.0000
  Pb  Pb9       1.0  0.35074439999999996  0.37319115  0.4985778773389024  1.0000
  Pb  Pb10      1.0  0.15982708  0.22578226000000004  0.5349234427796916  1.0000
  Pb  Pb11      1.0  0.68311317  0.3661117000000001  0.5264026191155098  1.0000
  Pb  Pb12      1.0  0.8507444  0.23149699000000004  0.5065494625116241  1.0000
  Pb  Pb13      1.0  0.8659720300000001  0.8667226000000001  0.5290041356643342  1.0000
  Pb  Pb14      1.0  0.6787544600000001  0.7314969900000001  0.5065494625116241  1.0000
  Pb  Pb15      1.0  0.17875445999999998  0.87319115  0.4985778773389023  1.0000
  Pb  Pb16      1.0  0.38866988  0.7354576100000001  0.5358511441312164  1.0000
