data_image0
_chemical_formula_structural       COCu3Au3Cu3Au3Cu3Au3Cu3Au3
_chemical_formula_sum              "C1 O1 Cu12 Au12"
_cell_length_a       4.695655442111897
_cell_length_b       8.18241854
_cell_length_c       103.09160557999999
_cell_angle_alpha    90.0
_cell_angle_beta     101.83433283509763
_cell_angle_gamma    64.1741199399174

_space_group_name_H-M_alt    "P 1"
_space_group_IT_number       1

loop_
  _space_group_symop_operation_xyz
  'x, y, z'

loop_
  _atom_site_type_symbol
  _atom_site_label
  _atom_site_symmetry_multiplicity
  _atom_site_fract_x
  _atom_site_fract_y
  _atom_site_fract_z
  _atom_site_occupancy
  C   C1        1.0  0.830342935  0.4158614949999999  0.5520124882684767  1.0000
  O   O1        1.0  0.804336305  0.42013903499999994  0.5629661591325308  1.0000
  Cu  Cu1       1.0  0.162032825  0.0823013749999999  0.4994489975575139  1.0000
  Cu  Cu2       1.0  0.5000128950000001  0.2468089049999999  0.5184260203702856  1.0000
  Cu  Cu3       1.0  0.8207853850000001  0.4203881549999998  0.5339522321378123  1.0000
  Au  Au1       1.0  0.16714725499999997  0.07853860499999989  0.5266288872301981  1.0000
  Au  Au2       1.0  0.495366155  0.2489680449999999  0.49053254889459497  1.0000
  Au  Au3       1.0  0.828487385  0.41429729499999995  0.508614918180793  1.0000
  Cu  Cu4       1.0  0.162032825  0.0823013749999999  0.4459502927403106  1.0000
  Cu  Cu5       1.0  0.495366155  0.2489680449999999  0.46378319327607087  1.0000
  Cu  Cu6       1.0  0.8286994950000001  0.4156347049999999  0.48161609702175356  1.0000
  Au  Au4       1.0  0.162032825  0.0823013749999999  0.4726996451489122  1.0000
  Au  Au5       1.0  0.495366155  0.2489680449999999  0.43703384086746927  1.0000
  Au  Au6       1.0  0.8286994950000001  0.4156347049999999  0.45486674461315196  1.0000
  Cu  Cu7       1.0  0.162032825  0.5823013749999999  0.4994489975575139  1.0000
  Cu  Cu8       1.0  0.504801335  0.7483873949999998  0.5181803489580677  1.0000
  Cu  Cu9       1.0  0.8026161749999999  0.9214613949999999  0.5323357633572313  1.0000
  Au  Au7       1.0  0.16768675499999997  0.584529915  0.5260762573570461  1.0000
  Au  Au8       1.0  0.495366155  0.748968045  0.49053254889459497  1.0000
  Au  Au9       1.0  0.8379671750000001  0.9152371449999996  0.5076434672603822  1.0000
  Cu  Cu10      1.0  0.162032825  0.5823013749999999  0.4459502927403106  1.0000
  Cu  Cu11      1.0  0.495366155  0.748968045  0.46378319327607087  1.0000
  Cu  Cu12      1.0  0.8286994950000001  0.9156347049999997  0.48161609702175356  1.0000
  Au  Au10      1.0  0.162032825  0.5823013749999999  0.4726996451489122  1.0000
  Au  Au11      1.0  0.495366155  0.748968045  0.43703384086746927  1.0000
  Au  Au12      1.0  0.8286994950000001  0.9156347049999997  0.45486674461315196  1.0000
