data_image0
_chemical_formula_structural       COCa4Sn4Ca4Sn4
_chemical_formula_sum              "C1 O1 Ca8 Sn8"
_cell_length_a       8.89059462
_cell_length_b       4.88803963
_cell_length_c       105.2546499
_cell_angle_alpha    90.0
_cell_angle_beta     90.0
_cell_angle_gamma    90.0

_space_group_name_H-M_alt    "P 1"
_space_group_IT_number       1

loop_
  _space_group_symop_operation_xyz
  'x, y, z'

loop_
  _atom_site_type_symbol
  _atom_site_label
  _atom_site_symmetry_multiplicity
  _atom_site_fract_x
  _atom_site_fract_y
  _atom_site_fract_z
  _atom_site_occupancy
  C   C1        1.0  0.11488674  0.74999881  0.5553048370439968  1.0000
  O   O1        1.0  0.11552649  0.74999707  0.5665326639544721  1.0000
  Ca  Ca1       1.0  0.36624192  0.25000014000000004  0.48379438619598475  1.0000
  Ca  Ca2       1.0  0.11624192  0.75000014  0.4579933361584799  1.0000
  Ca  Ca3       1.0  0.34635322999999996  0.74999646  0.5388727895290288  1.0000
  Ca  Ca4       1.0  0.11611904  0.24999986  0.5139760910073375  1.0000
  Sn  Sn1       1.0  0.36624192  0.25000014000000004  0.4524960107926887  1.0000
  Sn  Sn2       1.0  0.11624192  0.75000014  0.48929170821231355  1.0000
  Sn  Sn3       1.0  0.36624192  0.75000014  0.5083203829594743  1.0000
  Sn  Sn4       1.0  0.11624192  0.25000014000000004  0.43346733604552784  1.0000
  Ca  Ca5       1.0  0.86624192  0.25000014000000004  0.48379438619598475  1.0000
  Ca  Ca6       1.0  0.6162419200000001  0.75000014  0.4579933361584799  1.0000
  Ca  Ca7       1.0  0.88511326  0.7499967200000001  0.5388642450502833  1.0000
  Ca  Ca8       1.0  0.61607855  0.25000075  0.5152086898446219  1.0000
  Sn  Sn5       1.0  0.86624192  0.25000014000000004  0.4524960107926887  1.0000
  Sn  Sn6       1.0  0.6162419200000001  0.75000014  0.48929170821231355  1.0000
  Sn  Sn7       1.0  0.86624192  0.75000014  0.5083203829594743  1.0000
  Sn  Sn8       1.0  0.6162419200000001  0.25000014000000004  0.43346733604552784  1.0000
