data_image0
_chemical_formula_structural       COGe4Pt2Ge4Pt2Ge4Pt2
_chemical_formula_sum              "C1 O1 Ge12 Pt6"
_cell_length_a       5.88222906
_cell_length_b       6.32579513
_cell_length_c       100.0353886
_cell_angle_alpha    90.0
_cell_angle_beta     90.0
_cell_angle_gamma    90.0

_space_group_name_H-M_alt    "P 1"
_space_group_IT_number       1

loop_
  _space_group_symop_operation_xyz
  'x, y, z'

loop_
  _atom_site_type_symbol
  _atom_site_label
  _atom_site_symmetry_multiplicity
  _atom_site_fract_x
  _atom_site_fract_y
  _atom_site_fract_z
  _atom_site_occupancy
  C   C1        1.0  0.08170349000000002  0.06375727500000004  0.540526314527559  1.0000
  O   O1        1.0  0.08170350000000003  0.06375728500000004  0.5522192994466082  1.0000
  Ge  Ge1       1.0  0.91371928  0.4362427850000001  0.46279308218170684  1.0000
  Ge  Ge2       1.0  0.24968772000000003  0.691271725  0.46279308218170684  1.0000
  Ge  Ge3       1.0  0.41371928  0.19127172500000003  0.4477807005533917  1.0000
  Ge  Ge4       1.0  0.7496877200000002  0.9362427849999998  0.4477807005533917  1.0000
  Pt  Pt1       1.0  0.08170350000000003  0.06375725500000004  0.46279308218170684  1.0000
  Pt  Pt2       1.0  0.5817035  0.5637572550000001  0.4477807005533917  1.0000
  Ge  Ge5       1.0  0.91829651  0.434713035  0.4919060324104254  1.0000
  Ge  Ge6       1.0  0.24511048000000002  0.6928014849999999  0.49190602940794903  1.0000
  Ge  Ge7       1.0  0.41371928  0.19127172500000003  0.47780546381002187  1.0000
  Ge  Ge8       1.0  0.7496877200000002  0.9362427849999998  0.47780546381002187  1.0000
  Pt  Pt3       1.0  0.08170350000000003  0.06375725500000004  0.4931665470338469  1.0000
  Pt  Pt4       1.0  0.5817035  0.5637572550000001  0.47780546381002187  1.0000
  Ge  Ge9       1.0  0.9169176199999999  0.431637785  0.5198200307903038  1.0000
  Ge  Ge10      1.0  0.24648929000000003  0.695876815  0.5198200307903038  1.0000
  Ge  Ge11      1.0  0.4196749  0.19560773500000003  0.5085528150290914  1.0000
  Ge  Ge12      1.0  0.7437321200000001  0.9319068149999999  0.5085528120266151  1.0000
  Pt  Pt5       1.0  0.08170350000000003  0.06375721500000005  0.52164486384161  1.0000
  Pt  Pt6       1.0  0.58170356  0.563757225  0.5075649132461348  1.0000
