data_image0
_chemical_formula_structural       CONa8Al8Si8Na8Al8Si8
_chemical_formula_sum              "C1 O1 Na16 Al16 Si16"
_cell_length_a       15.44704738427193
_cell_length_b       5.87480763
_cell_length_c       105.24884575
_cell_angle_alpha    90.0
_cell_angle_beta     79.03790363075734
_cell_angle_gamma    79.03790363075734

_space_group_name_H-M_alt    "P 1"
_space_group_IT_number       1

loop_
  _space_group_symop_operation_xyz
  'x, y, z'

loop_
  _atom_site_type_symbol
  _atom_site_label
  _atom_site_symmetry_multiplicity
  _atom_site_fract_x
  _atom_site_fract_y
  _atom_site_fract_z
  _atom_site_occupancy
  C   C1        1.0  0.16969468499999998  0.940297795  0.5490545481071882  1.0000
  O   O1        1.0  0.16343734499999998  0.9528367449999999  0.5608302231453419  1.0000
  Na  Na1       1.0  0.9956676350000001  0.7753754549999998  0.5140385836529255  1.0000
  Na  Na2       1.0  0.48603952500000003  0.013639434999999969  0.5309479233951155  1.0000
  Na  Na3       1.0  0.495667635  0.525375455  0.5000840170894614  1.0000
  Na  Na4       1.0  0.004332364999999986  0.29815356499999995  0.5443336125617372  1.0000
  Na  Na5       1.0  0.860851335  0.3427836049999998  0.5178011888581144  1.0000
  Na  Na6       1.0  0.34062056500000004  0.5738641449999999  0.5354192407902141  1.0000
  Na  Na7       1.0  0.360851335  0.09278360499999991  0.5038466222946502  1.0000
  Na  Na8       1.0  0.853668525  0.858898575  0.5481077922416905  1.0000
  Al  Al1       1.0  0.6883615750000001  0.1924964149999999  0.5359750600628939  1.0000
  Al  Al2       1.0  0.178259485  0.43407952499999997  0.4949880364103237  1.0000
  Al  Al3       1.0  0.177583525  0.9320562849999999  0.5216109694254363  1.0000
  Al  Al4       1.0  0.678259485  0.684079525  0.5089426029737879  1.0000
  Al  Al5       1.0  0.678259485  0.18407952499999994  0.5089426029737879  1.0000
  Al  Al6       1.0  0.177075235  0.432706645  0.5242196637992479  1.0000
  Al  Al7       1.0  0.178259485  0.9340795249999999  0.4949880364103237  1.0000
  Al  Al8       1.0  0.687003065  0.6684957650000001  0.5359061725132903  1.0000
  Si  Si1       1.0  0.785942015  0.880470895  0.5191744989492771  1.0000
  Si  Si2       1.0  0.26148224499999995  0.09741741499999995  0.5361602081208807  1.0000
  Si  Si3       1.0  0.282821565  0.6317984849999999  0.506024365080133  1.0000
  Si  Si4       1.0  0.781214655  0.3885579750000001  0.5471864560126112  1.0000
  Si  Si5       1.0  0.073697405  0.23636056499999988  0.5118608408674428  1.0000
  Si  Si6       1.0  0.570715285  0.48321920499999993  0.5266817716030465  1.0000
  Si  Si7       1.0  0.573697405  0.986360565  0.49790627430397844  1.0000
  Si  Si8       1.0  0.08725167499999997  0.7693631749999998  0.5404286942326578  1.0000
  Na  Na9       1.0  0.9956676350000001  0.7753754549999998  0.4582203207481644  1.0000
  Na  Na10      1.0  0.495667635  0.025375454999999963  0.4721748873116286  1.0000
  Na  Na11      1.0  0.495667635  0.525375455  0.4442657541847002  1.0000
  Na  Na12      1.0  0.9956676350000001  0.2753754549999999  0.48612945052599704  1.0000
  Na  Na13      1.0  0.860851335  0.3427836049999998  0.4619829259533532  1.0000
  Na  Na14      1.0  0.360851335  0.5927836049999999  0.47593749251681744  1.0000
  Na  Na15      1.0  0.360851335  0.09278360499999991  0.44802836273898466  1.0000
  Na  Na16      1.0  0.860851335  0.842783605  0.48989205908028166  1.0000
  Al  Al9       1.0  0.678259485  0.18407952499999994  0.48103347319595513  1.0000
  Al  Al10      1.0  0.178259485  0.43407952499999997  0.43916977685465824  1.0000
  Al  Al11      1.0  0.178259485  0.9340795249999999  0.4670789066324909  1.0000
  Al  Al12      1.0  0.678259485  0.684079525  0.45312434006902674  1.0000
  Al  Al13      1.0  0.678259485  0.18407952499999994  0.45312434006902674  1.0000
  Al  Al14      1.0  0.178259485  0.43407952499999997  0.4670789066324909  1.0000
  Al  Al15      1.0  0.178259485  0.9340795249999999  0.43916977685465824  1.0000
  Al  Al16      1.0  0.678259485  0.684079525  0.48103347319595513  1.0000
  Si  Si9       1.0  0.782821565  0.8817984849999999  0.46416066873883605  1.0000
  Si  Si10      1.0  0.282821565  0.13179848499999994  0.4781152353023003  1.0000
  Si  Si11      1.0  0.282821565  0.6317984849999999  0.4502061055244676  1.0000
  Si  Si12      1.0  0.782821565  0.3817984849999999  0.4920698018657645  1.0000
  Si  Si13      1.0  0.073697405  0.23636056499999988  0.45604257796268155  1.0000
  Si  Si14      1.0  0.573697405  0.4863605649999999  0.4699971445261457  1.0000
  Si  Si15      1.0  0.573697405  0.986360565  0.44208801139921733  1.0000
  Si  Si16      1.0  0.073697405  0.7363605649999999  0.4839517077405143  1.0000
