data_image0
_chemical_formula_structural       COCa4Mn4Si4Ca4Mn4Si4
_chemical_formula_sum              "C1 O1 Ca8 Mn8 Si8"
_cell_length_a       7.67258217
_cell_length_b       5.54069079
_cell_length_c       103.24414474
_cell_angle_alpha    90.0
_cell_angle_beta     90.0
_cell_angle_gamma    90.0

_space_group_name_H-M_alt    "P 1"
_space_group_IT_number       1

loop_
  _space_group_symop_operation_xyz
  'x, y, z'

loop_
  _atom_site_type_symbol
  _atom_site_label
  _atom_site_symmetry_multiplicity
  _atom_site_fract_x
  _atom_site_fract_y
  _atom_site_fract_z
  _atom_site_occupancy
  C   C1        1.0  0.024345805000000054  0.3790588849999999  0.5437527786367312  1.0000
  O   O1        1.0  0.9756541950000001  0.3789962149999999  0.5550377080577322  1.0000
  Ca  Ca1       1.0  0.7955604150000001  0.8790618849999999  0.44496229194226794  1.0000
  Ca  Ca2       1.0  0.7955604150000001  0.37906188499999993  0.47179524495052566  1.0000
  Ca  Ca3       1.0  0.4478611950000001  0.37906188499999993  0.44496229194226794  1.0000
  Ca  Ca4       1.0  0.4478611950000001  0.8790618849999999  0.47179524495052566  1.0000
  Mn  Mn1       1.0  0.12171080500000006  0.6290618849999999  0.45837877005637406  1.0000
  Mn  Mn2       1.0  0.12171080500000006  0.12906188499999996  0.4852117230646319  1.0000
  Mn  Mn3       1.0  0.12171080500000006  0.6290618849999999  0.4852117230646319  1.0000
  Mn  Mn4       1.0  0.12171080500000006  0.12906188499999996  0.45837877005637406  1.0000
  Si  Si1       1.0  0.9444015750000002  0.37906188499999993  0.44496229194226794  1.0000
  Si  Si2       1.0  0.9444015750000002  0.8790618849999999  0.47179524495052566  1.0000
  Si  Si3       1.0  0.29902003500000013  0.8790618849999999  0.44496229194226794  1.0000
  Si  Si4       1.0  0.29902003500000013  0.37906188499999993  0.47179524495052566  1.0000
  Ca  Ca5       1.0  0.7955604150000001  0.8790618849999999  0.49862820117873796  1.0000
  Ca  Ca6       1.0  0.783928315  0.3790846849999999  0.5260251549755183  1.0000
  Ca  Ca7       1.0  0.4478611950000001  0.37906188499999993  0.49862820117873796  1.0000
  Ca  Ca8       1.0  0.4777294250000001  0.879115895  0.5255947919581855  1.0000
  Mn  Mn5       1.0  0.12328866500000006  0.627453945  0.5139310252315973  1.0000
  Mn  Mn6       1.0  0.13578313500000005  0.12087893499999995  0.5334619039059544  1.0000
  Mn  Mn7       1.0  0.13577794500000007  0.6373269549999999  0.533454288713586  1.0000
  Mn  Mn8       1.0  0.12330207500000007  0.13069911499999995  0.5139296084516217  1.0000
  Si  Si5       1.0  0.9444015750000002  0.37906188499999993  0.49862820117873796  1.0000
  Si  Si6       1.0  0.9050584750000001  0.879121065  0.5250160276783273  1.0000
  Si  Si7       1.0  0.29902003500000013  0.8790618849999999  0.49862820117873796  1.0000
  Si  Si8       1.0  0.35872202500000006  0.379078015  0.525836198386194  1.0000
