data_image0
_chemical_formula_structural       COCa12Si6
_chemical_formula_sum              "C1 O1 Ca12 Si6"
_cell_length_a       8.874869152499315
_cell_length_b       7.24630032
_cell_length_c       109.02252147
_cell_angle_alpha    90.0
_cell_angle_beta     85.6522468755526
_cell_angle_gamma    114.09484255495146

_space_group_name_H-M_alt    "P 1"
_space_group_IT_number       1

loop_
  _space_group_symop_operation_xyz
  'x, y, z'

loop_
  _atom_site_type_symbol
  _atom_site_label
  _atom_site_symmetry_multiplicity
  _atom_site_fract_x
  _atom_site_fract_y
  _atom_site_fract_z
  _atom_site_occupancy
  C   C1        1.0  0.35463076  0.197473925  0.5449734198452462  1.0000
  O   O1        1.0  0.36046501000000003  0.20043422499999997  0.5557083846219459  1.0000
  Ca  Ca1       1.0  0.22916667000000002  0.8854166649999999  0.49648986363410585  1.0000
  Ca  Ca2       1.0  0.36509374  0.45660446499999996  0.5258847647236069  1.0000
  Ca  Ca3       1.0  0.0625  0.302083335  0.4666622921794166  1.0000
  Ca  Ca4       1.0  0.22916667000000002  0.38541666499999994  0.49648986363410585  1.0000
  Ca  Ca5       1.0  0.3654332599999999  0.9494443549999999  0.5258725557030358  1.0000
  Ca  Ca6       1.0  0.0625  0.8020833350000001  0.4666622921794166  1.0000
  Ca  Ca7       1.0  0.8196806400000001  0.185713675  0.5115647039171871  1.0000
  Ca  Ca8       1.0  0.47916666999999996  0.010416664999999936  0.45174851003138033  1.0000
  Ca  Ca9       1.0  0.64583334  0.593749995  0.48157607790676127  1.0000
  Ca  Ca10      1.0  0.8195660100000001  0.675208425  0.5115538263992992  1.0000
  Ca  Ca11      1.0  0.47916666999999996  0.510416665  0.45174851003138033  1.0000
  Ca  Ca12      1.0  0.64583334  0.09374999499999999  0.48157607790676127  1.0000
  Si  Si1       1.0  0.35416667  0.697916665  0.47411918683274307  1.0000
  Si  Si2       1.0  0.5196642300000001  0.280519525  0.5057719334869936  1.0000
  Si  Si3       1.0  0.1875  0.11458333499999998  0.4442916153780539  1.0000
  Si  Si4       1.0  0.9375  0.9895833350000001  0.4890329689807794  1.0000
  Si  Si5       1.0  0.10512576000000001  0.5732629050000001  0.5176917674242669  1.0000
  Si  Si6       1.0  0.7708333399999999  0.40624999500000003  0.4592054011053986  1.0000
