data_image0
_chemical_formula_structural       COCa8Sn16Rh8Ca8Sn16Rh8
_chemical_formula_sum              "C1 O1 Ca16 Sn32 Rh16"
_cell_length_a       13.444032688905862
_cell_length_b       8.8104237
_cell_length_c       110.33209805
_cell_angle_alpha    90.0
_cell_angle_beta     69.80532102178356
_cell_angle_gamma    90.0

_space_group_name_H-M_alt    "P 1"
_space_group_IT_number       1

loop_
  _space_group_symop_operation_xyz
  'x, y, z'

loop_
  _atom_site_type_symbol
  _atom_site_label
  _atom_site_symmetry_multiplicity
  _atom_site_fract_x
  _atom_site_fract_y
  _atom_site_fract_z
  _atom_site_occupancy
  C   C1        1.0  0.55987409  0.500267535  0.5579087893204783  1.0000
  O   O1        1.0  0.54395709  0.5000361050000001  0.568985382000708  1.0000
  Ca  Ca1       1.0  0.40937554  0.25009026500000003  0.45265147239587505  1.0000
  Ca  Ca2       1.0  0.90937554  0.25009026500000003  0.5135767751401474  1.0000
  Ca  Ca3       1.0  0.8430082  9.026500000002064e-05  0.444564574430961  1.0000
  Ca  Ca4       1.0  0.3430082  9.026500000002064e-05  0.5054898771752334  1.0000
  Ca  Ca5       1.0  0.14152416999999998  0.00010090500000002064  0.5439132617886311  1.0000
  Ca  Ca6       1.0  0.6593755399999999  9.026500000002064e-05  0.4831141255957703  1.0000
  Ca  Ca7       1.0  0.58813666  0.26012419500000006  0.5368528150262327  1.0000
  Ca  Ca8       1.0  0.09300819999999997  0.25009026500000003  0.47502722397533814  1.0000
  Sn  Sn1       1.0  0.45228341000000005  0.25009026500000003  0.4826076974304037  1.0000
  Sn  Sn2       1.0  0.9433517299999999  0.24694484500000005  0.5435640867005265  1.0000
  Sn  Sn3       1.0  0.79669877  2.5345000000020646e-05  0.5387005039566407  1.0000
  Sn  Sn4       1.0  0.30010032999999997  9.026500000002064e-05  0.4755336557962228  1.0000
  Sn  Sn5       1.0  0.59716435  9.026500000002064e-05  0.43933622581431026  1.0000
  Sn  Sn6       1.0  0.09716434999999998  9.026500000002064e-05  0.5002615249030645  1.0000
  Sn  Sn7       1.0  0.65521939  0.25009026500000003  0.4578798246680439  1.0000
  Sn  Sn8       1.0  0.15521938999999996  0.25009026500000003  0.5188051274123162  1.0000
  Sn  Sn9       1.0  0.20228341  9.026500000002064e-05  0.4521450442305085  1.0000
  Sn  Sn10      1.0  0.70228341  9.026500000002064e-05  0.5130703469747808  1.0000
  Sn  Sn11      1.0  0.55010033  0.25009026500000003  0.5059963053405999  1.0000
  Sn  Sn12      1.0  0.05010032999999997  0.25009026500000003  0.4450710025963276  1.0000
  Sn  Sn13      1.0  0.34447112999999996  0.25013614500000003  0.5311499545726726  1.0000
  Sn  Sn14      1.0  0.84716435  0.25009026500000003  0.4697988753586875  1.0000
  Sn  Sn15      1.0  0.37718504  0.9999746549999999  0.5485809562845452  1.0000
  Sn  Sn16      1.0  0.9052193899999998  9.026500000002064e-05  0.48834247421242105  1.0000
  Rh  Rh1       1.0  0.52057692  9.026500000002064e-05  0.46620142882754373  1.0000
  Rh  Rh2       1.0  0.018193179999999972  0.00010001500000002064  0.5264559001358003  1.0000
  Rh  Rh3       1.0  0.73180682  0.25009026500000003  0.43101461799929236  1.0000
  Rh  Rh4       1.0  0.23180682  0.25009026500000003  0.49193992074356474  1.0000
  Rh  Rh5       1.0  0.27057692  0.25009026500000003  0.43573877928316657  1.0000
  Rh  Rh6       1.0  0.77057692  0.25009026500000003  0.49666407837192084  1.0000
  Rh  Rh7       1.0  0.48651089999999997  9.285500000002065e-05  0.5219635315985929  1.0000
  Rh  Rh8       1.0  0.9818068200000001  9.026500000002064e-05  0.4614772711991876  1.0000
  Ca  Ca9       1.0  0.40937554  0.750090265  0.45265147239587505  1.0000
  Ca  Ca10      1.0  0.90937554  0.750090265  0.5135767751401474  1.0000
  Ca  Ca11      1.0  0.8430082  0.5000902650000001  0.444564574430961  1.0000
  Ca  Ca12      1.0  0.3430082  0.5000902650000001  0.5054898771752334  1.0000
  Ca  Ca13      1.0  0.13064662999999999  0.5000771350000001  0.5446258502078065  1.0000
  Ca  Ca14      1.0  0.6593755399999999  0.5000902650000001  0.4831141255957703  1.0000
  Ca  Ca15      1.0  0.58814061  0.7399955250000001  0.5368574100124737  1.0000
  Ca  Ca16      1.0  0.09300819999999997  0.750090265  0.47502722397533814  1.0000
  Sn  Sn17      1.0  0.45228341000000005  0.750090265  0.4826076974304037  1.0000
  Sn  Sn18      1.0  0.9433712  0.753266645  0.5435712844156488  1.0000
  Sn  Sn19      1.0  0.80589266  0.5001178350000001  0.5384831029847004  1.0000
  Sn  Sn20      1.0  0.30010032999999997  0.5000902650000001  0.4755336557962228  1.0000
  Sn  Sn21      1.0  0.59716435  0.5000902650000001  0.43933622581431026  1.0000
  Sn  Sn22      1.0  0.09716434999999998  0.5000902650000001  0.5002615249030645  1.0000
  Sn  Sn23      1.0  0.65521939  0.750090265  0.4578798246680439  1.0000
  Sn  Sn24      1.0  0.15521938999999996  0.750090265  0.5188051274123162  1.0000
  Sn  Sn25      1.0  0.20228341  0.5000902650000001  0.4521450442305085  1.0000
  Sn  Sn26      1.0  0.70228341  0.5000902650000001  0.5130703469747808  1.0000
  Sn  Sn27      1.0  0.55010033  0.750090265  0.5059963053405999  1.0000
  Sn  Sn28      1.0  0.05010032999999997  0.750090265  0.4450710025963276  1.0000
  Sn  Sn29      1.0  0.34445685  0.7500391250000001  0.5311457690044579  1.0000
  Sn  Sn30      1.0  0.84716435  0.750090265  0.4697988753586875  1.0000
  Sn  Sn31      1.0  0.36098816  0.500158335  0.5489623437980723  1.0000
  Sn  Sn32      1.0  0.9052193899999998  0.5000902650000001  0.48834247421242105  1.0000
  Rh  Rh9       1.0  0.52057692  0.5000902650000001  0.46620142882754373  1.0000
  Rh  Rh10      1.0  0.022517919999999976  0.500103445  0.526177247302718  1.0000
  Rh  Rh11      1.0  0.73180682  0.750090265  0.43101461799929236  1.0000
  Rh  Rh12      1.0  0.23180682  0.750090265  0.49193992074356474  1.0000
  Rh  Rh13      1.0  0.27057692  0.750090265  0.43573877928316657  1.0000
  Rh  Rh14      1.0  0.77057692  0.750090265  0.49666407837192084  1.0000
  Rh  Rh15      1.0  0.48348361  0.5000780450000001  0.5221831843696777  1.0000
  Rh  Rh16      1.0  0.9818068200000001  0.5000902650000001  0.4614772711991876  1.0000
