data_image0
_chemical_formula_structural       COCa4Cu8Si8
_chemical_formula_sum              "C1 O1 Ca4 Cu8 Si8"
_cell_length_a       5.78997524
_cell_length_b       5.8068647615538795
_cell_length_c       104.73985144
_cell_angle_alpha    90.0
_cell_angle_beta     90.0
_cell_angle_gamma    119.90383268965225

_space_group_name_H-M_alt    "P 1"
_space_group_IT_number       1

loop_
  _space_group_symop_operation_xyz
  'x, y, z'

loop_
  _atom_site_type_symbol
  _atom_site_label
  _atom_site_symmetry_multiplicity
  _atom_site_fract_x
  _atom_site_fract_y
  _atom_site_fract_z
  _atom_site_occupancy
  C   C1        1.0  0.04158761999999986  0.51712431  0.5517490572682805  1.0000
  O   O1        1.0  0.060413139999999886  0.46038874  0.5621992001688172  1.0000
  Ca  Ca1       1.0  0.5631224199999999  0.11382359000000003  0.5203083260521733  1.0000
  Ca  Ca2       1.0  0.06168926999999988  0.11602175000000003  0.4930803832580916  1.0000
  Ca  Ca3       1.0  0.5616892699999999  0.11602175000000003  0.4654405932030247  1.0000
  Ca  Ca4       1.0  0.06168926999999988  0.11602175000000003  0.43780079983118286  1.0000
  Cu  Cu1       1.0  0.06669232999999987  0.61240824  0.5346217256813095  1.0000
  Cu  Cu2       1.0  0.5701546299999999  0.6194571400000001  0.5066771372764226  1.0000
  Cu  Cu3       1.0  0.5630244499999999  0.62606861  0.5325617431020221  1.0000
  Cu  Cu4       1.0  0.05938166999999982  0.6151925199999999  0.5072420901853799  1.0000
  Cu  Cu5       1.0  0.06168926999999991  0.61602175  0.47926048657217074  1.0000
  Cu  Cu6       1.0  0.5616892699999999  0.61602175  0.4516206965171038  1.0000
  Cu  Cu7       1.0  0.5616892699999999  0.61602175  0.47926048657217074  1.0000
  Cu  Cu8       1.0  0.06168926999999991  0.61602175  0.4516206965171038  1.0000
  Si  Si1       1.0  0.68053342  0.35371006000000005  0.4930803832580916  1.0000
  Si  Si2       1.0  0.18337736999999985  0.35563614  0.5208857964697514  1.0000
  Si  Si3       1.0  0.95841238  0.8861764099999999  0.5217780752639163  1.0000
  Si  Si4       1.0  0.4428451199999999  0.8783334399999999  0.4930803832580916  1.0000
  Si  Si5       1.0  0.68053342  0.35371006000000005  0.43780079983118286  1.0000
  Si  Si6       1.0  0.1805334199999999  0.35371006000000005  0.4654405932030247  1.0000
  Si  Si7       1.0  0.9428451199999999  0.8783334399999999  0.4654405932030247  1.0000
  Si  Si8       1.0  0.4428451199999999  0.8783334399999999  0.43780079983118286  1.0000
