data_image0
_chemical_formula_structural       COCa4Zn4Si4Ca4Zn4Si4Ca4Zn4Si4Ca4Zn4Si4
_chemical_formula_sum              "C1 O1 Ca16 Zn16 Si16"
_cell_length_a       17.176897393344017
_cell_length_b       8.566588473550604
_cell_length_c       104.26635387
_cell_angle_alpha    59.99999997509578
_cell_angle_beta     75.56013914439092
_cell_angle_gamma    82.8376173675824

_space_group_name_H-M_alt    "P 1"
_space_group_IT_number       1

loop_
  _space_group_symop_operation_xyz
  'x, y, z'

loop_
  _atom_site_type_symbol
  _atom_site_label
  _atom_site_symmetry_multiplicity
  _atom_site_fract_x
  _atom_site_fract_y
  _atom_site_fract_z
  _atom_site_occupancy
  C   C1        1.0  0.6343059999999999  0.17958135  0.5374910386927799  1.0000
  O   O1        1.0  0.60773921  0.17996413  0.5492264445357221  1.0000
  Ca  Ca1       1.0  0.28806655999999997  0.028683369999999996  0.52060411913902  1.0000
  Ca  Ca2       1.0  0.8032610199999999  0.9728527699999999  0.506346901461735  1.0000
  Ca  Ca3       1.0  0.038741039999999956  0.005109309999999999  0.49356554489324245  1.0000
  Ca  Ca4       1.0  0.5390536399999999  0.99489069  0.5143141188375236  1.0000
  Zn  Zn1       1.0  0.11221622999999996  0.32855334999999997  0.5192032246679892  1.0000
  Zn  Zn2       1.0  0.6637410399999999  0.33844264  0.4952772234187451  1.0000
  Zn  Zn3       1.0  0.41374103999999995  0.17177598  0.49185386636773976  1.0000
  Zn  Zn4       1.0  0.9326888899999999  0.14954849  0.5152662848564938  1.0000
  Si  Si1       1.0  0.16011849999999994  0.16222517999999997  0.5037457553309755  1.0000
  Si  Si2       1.0  0.6698979899999998  0.13311344  0.5221769264951197  1.0000
  Si  Si3       1.0  0.41341692  0.33077747999999996  0.5068081216147353  1.0000
  Si  Si4       1.0  0.96125896  0.31675577  0.5269109459358626  1.0000
  Ca  Ca5       1.0  0.28874104  0.005109309999999999  0.483295467167377  1.0000
  Ca  Ca6       1.0  0.7887410399999999  0.005109309999999999  0.46275531171564593  1.0000
  Ca  Ca7       1.0  0.038741039999999956  0.005109309999999999  0.45248523398978036  1.0000
  Ca  Ca8       1.0  0.5387410399999999  0.005109309999999999  0.47302538944151146  1.0000
  Zn  Zn5       1.0  0.16374103999999995  0.33844264  0.47473706796701404  1.0000
  Zn  Zn6       1.0  0.6637410399999999  0.33844264  0.454196912515283  1.0000
  Zn  Zn7       1.0  0.41374103999999995  0.17177598  0.45077355546427766  1.0000
  Zn  Zn8       1.0  0.9137410399999999  0.17177598  0.4713137109160087  1.0000
  Si  Si5       1.0  0.16374103999999995  0.17177598  0.46104363319014324  1.0000
  Si  Si6       1.0  0.6637410399999999  0.17177598  0.4815837886418743  1.0000
  Si  Si7       1.0  0.41374103999999995  0.33844264  0.46446699024114846  1.0000
  Si  Si8       1.0  0.9137410399999999  0.33844264  0.4850071456928795  1.0000
  Ca  Ca9       1.0  0.28785299  0.52743625  0.5205584969889432  1.0000
  Ca  Ca10      1.0  0.7957613299999999  0.49049348  0.5063470460644295  1.0000
  Ca  Ca11      1.0  0.038741039999999956  0.50510931  0.49356554489324245  1.0000
  Ca  Ca12      1.0  0.5438084299999999  0.50242846  0.5144314212004898  1.0000
  Zn  Zn9       1.0  0.10921488999999997  0.8315901499999999  0.519365386730462  1.0000
  Zn  Zn10      1.0  0.6637410399999999  0.83844264  0.4952772234187451  1.0000
  Zn  Zn11      1.0  0.41374103999999995  0.67177598  0.4918538663677398  1.0000
  Zn  Zn12      1.0  0.93743867  0.63768495  0.5166381141859543  1.0000
  Si  Si9       1.0  0.15788281999999995  0.6614218199999999  0.5040127576332989  1.0000
  Si  Si10      1.0  0.6652256199999999  0.6861371  0.5209654779858514  1.0000
  Si  Si11      1.0  0.40996015  0.83084515  0.506781547583218  1.0000
  Si  Si12      1.0  0.95798293  0.82569378  0.5268293998755069  1.0000
  Ca  Ca13      1.0  0.28874104  0.50510931  0.4832954671673769  1.0000
  Ca  Ca14      1.0  0.7887410399999999  0.50510931  0.46275531171564593  1.0000
  Ca  Ca15      1.0  0.038741039999999956  0.50510931  0.45248523398978036  1.0000
  Ca  Ca16      1.0  0.5387410399999999  0.50510931  0.4730253894415114  1.0000
  Zn  Zn13      1.0  0.16374103999999995  0.83844264  0.47473706796701404  1.0000
  Zn  Zn14      1.0  0.6637410399999999  0.83844264  0.454196912515283  1.0000
  Zn  Zn15      1.0  0.41374103999999995  0.67177598  0.45077355546427766  1.0000
  Zn  Zn16      1.0  0.9137410399999999  0.67177598  0.47131371091600877  1.0000
  Si  Si13      1.0  0.16374103999999995  0.67177598  0.4610436331901433  1.0000
  Si  Si14      1.0  0.6637410399999999  0.67177598  0.48158378864187434  1.0000
  Si  Si15      1.0  0.41374103999999995  0.83844264  0.46446699024114846  1.0000
  Si  Si16      1.0  0.9137410399999999  0.83844264  0.4850071456928795  1.0000
