data_image0
_chemical_formula_structural       COAg2Ca4Pb2
_chemical_formula_sum              "C1 O1 Ag2 Ca4 Pb2"
_cell_length_a       5.4889012
_cell_length_b       5.4889012
_cell_length_c       101.04991408000001
_cell_angle_alpha    90.0
_cell_angle_beta     90.0
_cell_angle_gamma    90.0

_space_group_name_H-M_alt    "P 1"
_space_group_IT_number       1

loop_
  _space_group_symop_operation_xyz
  'x, y, z'

loop_
  _atom_site_type_symbol
  _atom_site_label
  _atom_site_symmetry_multiplicity
  _atom_site_fract_x
  _atom_site_fract_y
  _atom_site_fract_z
  _atom_site_occupancy
  C   C1        1.0  0.25004594500000005  0.49999162500000005  0.5339752765928184  1.0000
  O   O1        1.0  0.24994327500000002  0.49998399500000007  0.5453909830971828  1.0000
  Ag  Ag1       1.0  0.249898305  0.500040735  0.511562559971008  1.0000
  Ag  Ag2       1.0  0.749980055  3.375000000016062e-06  0.47381358177225036  1.0000
  Ca  Ca1       1.0  0.749980055  0.500003375  0.4546090169028173  1.0000
  Ca  Ca2       1.0  0.750101695  0.4999907750000001  0.4934514815161278  1.0000
  Ca  Ca3       1.0  0.25008181500000004  3.395000000016062e-06  0.4934531192814198  1.0000
  Ca  Ca4       1.0  0.249980055  3.375000000016062e-06  0.4546090169028173  1.0000
  Pb  Pb1       1.0  0.749865315  0.9999966250000001  0.5117093381557571  1.0000
  Pb  Pb2       1.0  0.249980055  0.500003375  0.47381358177225036  1.0000
