data_image0
_chemical_formula_structural       V3Os3V3Os3V3Os3V3Os3CO
_chemical_formula_sum              "V12 Os12 C1 O1"
_cell_length_a       6.04986392
_cell_length_b       6.763953484989389
_cell_length_c       40.05470138
_cell_angle_alpha    108.43494882292202
_cell_angle_beta     90.0
_cell_angle_gamma    90.0

_space_group_name_H-M_alt    "P 1"
_space_group_IT_number       1

loop_
  _space_group_symop_operation_xyz
  'x, y, z'

loop_
  _atom_site_type_symbol
  _atom_site_label
  _atom_site_symmetry_multiplicity
  _atom_site_fract_x
  _atom_site_fract_y
  _atom_site_fract_z
  _atom_site_occupancy
  V   V1        1.0  0.11667177999999997  0.8401533800000002  0.5134854131039966  1.0000
  V   V2        1.0  0.11667173999999998  0.47887194  0.550032414244604  1.0000
  V   V3        1.0  0.11667171999999998  0.15574090000000002  0.476024884774768  1.0000
  Os  Os1       1.0  0.35001517  0.8065668800000002  0.5602887124979523  1.0000
  Os  Os2       1.0  0.36635359  0.49605588000000006  0.49494149822865074  1.0000
  Os  Os3       1.0  0.36706849999999996  0.16697789000000005  0.5274352415915025  1.0000
  V   V4        1.0  0.11667171999999998  0.8224075700000002  0.4048239284128151  1.0000
  V   V5        1.0  0.11667171999999998  0.48907423000000005  0.4404244028557411  1.0000
  V   V6        1.0  0.11667171999999998  0.15574090000000002  0.36922344649378813  1.0000
  Os  Os4       1.0  0.36667172000000003  0.8224075700000002  0.458224647553305  1.0000
  Os  Os5       1.0  0.36667172000000003  0.48907423000000005  0.3870236837152512  1.0000
  Os  Os6       1.0  0.36667172000000003  0.15574090000000002  0.4226241656342781  1.0000
  V   V7        1.0  0.61667168  0.8442591000000002  0.514733592994035  1.0000
  V   V8        1.0  0.6166717  0.49807116  0.5479540283096858  1.0000
  V   V9        1.0  0.61667172  0.15574090000000002  0.476024884774768  1.0000
  Os  Os7       1.0  0.8833282800000001  0.8065669200000001  0.5602887124979523  1.0000
  Os  Os8       1.0  0.86698988  0.49605587  0.49494149822865074  1.0000
  Os  Os9       1.0  0.8662749500000001  0.16697787000000003  0.5274352341154016  1.0000
  V   V10       1.0  0.61667172  0.8224075700000002  0.4048239284128151  1.0000
  V   V11       1.0  0.61667172  0.48907423000000005  0.4404244028557411  1.0000
  V   V12       1.0  0.61667172  0.15574090000000002  0.36922344649378813  1.0000
  Os  Os10      1.0  0.86667172  0.8224075700000002  0.458224647553305  1.0000
  Os  Os11      1.0  0.86667172  0.48907423000000005  0.3870236837152512  1.0000
  Os  Os12      1.0  0.86667172  0.15574090000000002  0.4226241656342781  1.0000
  C   C1        1.0  0.11667172999999999  0.80010384  0.599657380994017  1.0000
  O   O1        1.0  0.11667172999999999  0.8233031200000002  0.6307765535062122  1.0000
