data_image0
_chemical_formula_structural       COGa12Pt6
_chemical_formula_sum              "C1 O1 Ga12 Pt6"
_cell_length_a       7.399336623024873
_cell_length_b       6.04153306
_cell_length_c       102.53465119
_cell_angle_alpha    90.0
_cell_angle_beta     85.65224686240751
_cell_angle_gamma    114.0948425782658

_space_group_name_H-M_alt    "P 1"
_space_group_IT_number       1

loop_
  _space_group_symop_operation_xyz
  'x, y, z'

loop_
  _atom_site_type_symbol
  _atom_site_label
  _atom_site_symmetry_multiplicity
  _atom_site_fract_x
  _atom_site_fract_y
  _atom_site_fract_z
  _atom_site_occupancy
  C   C1        1.0  0.05755403000000001  0.38504729000000004  0.537419321626891  1.0000
  O   O1        1.0  0.002121990000000013  0.29291622  0.5478259841311827  1.0000
  Ga  Ga1       1.0  0.29051359000000004  0.8802113500000002  0.4985396481722739  1.0000
  Ga  Ga2       1.0  0.53198598  0.64492062  0.5198763502029909  1.0000
  Ga  Ga3       1.0  0.12287801000000001  0.30327018  0.4720055135700873  1.0000
  Ga  Ga4       1.0  0.27426533000000003  0.38383668  0.49888355489977065  1.0000
  Ga  Ga5       1.0  0.35563682  0.009229819999999988  0.5250426235252723  1.0000
  Ga  Ga6       1.0  0.12287801000000001  0.8032701800000002  0.4720055135700873  1.0000
  Ga  Ga7       1.0  0.84308284  0.1449999399999999  0.5120276050408432  1.0000
  Ga  Ga8       1.0  0.5395446800000001  0.011603509999999966  0.45878451721793373  1.0000
  Ga  Ga9       1.0  0.70621134  0.59493684  0.4852265130952804  1.0000
  Ga  Ga10      1.0  0.8926417799999999  0.6690161400000001  0.510943621722571  1.0000
  Ga  Ga11      1.0  0.5395446800000001  0.51160351  0.45878451721793373  1.0000
  Ga  Ga12      1.0  0.70621134  0.09493683999999995  0.4852265130952804  1.0000
  Pt  Pt1       1.0  0.41454468  0.6991035099999999  0.4786160149192037  1.0000
  Pt  Pt2       1.0  0.57353022  0.29189094  0.505733538242088  1.0000
  Pt  Pt3       1.0  0.24787801  0.11577018  0.4521740158688174  1.0000
  Pt  Pt4       1.0  0.9978780099999999  0.99077018  0.4918370112713572  1.0000
  Pt  Pt5       1.0  0.15238081  0.54967703  0.5206807252688734  1.0000
  Pt  Pt6       1.0  0.83121134  0.40743683999999997  0.4653950153940105  1.0000
