data_image0
_chemical_formula_structural       COAl16Ca8
_chemical_formula_sum              "C1 O1 Al16 Ca8"
_cell_length_a       8.08781421
_cell_length_b       5.71894828
_cell_length_c       104.31368965
_cell_angle_alpha    90.0
_cell_angle_beta     90.0
_cell_angle_gamma    90.0

_space_group_name_H-M_alt    "P 1"
_space_group_IT_number       1

loop_
  _space_group_symop_operation_xyz
  'x, y, z'

loop_
  _atom_site_type_symbol
  _atom_site_label
  _atom_site_symmetry_multiplicity
  _atom_site_fract_x
  _atom_site_fract_y
  _atom_site_fract_z
  _atom_site_occupancy
  C   C1        1.0  0.29823702500000004  0.8534831450000001  0.5503773495586536  1.0000
  O   O1        1.0  0.22749129500000007  0.8623579250000001  0.5604194938358478  1.0000
  Al  Al1       1.0  0.4366852550000001  0.37329176500000005  0.5337984170999732  1.0000
  Al  Al2       1.0  0.437348895  0.375548425  0.4806988983966716  1.0000
  Al  Al3       1.0  0.694148935  0.13187909500000003  0.5230335693819576  1.0000
  Al  Al4       1.0  0.687348895  0.12554842500000005  0.4669927665560081  1.0000
  Al  Al5       1.0  0.180821535  0.6219364150000001  0.522613711123607  1.0000
  Al  Al6       1.0  0.18734889500000004  0.6255484250000001  0.4669927665560081  1.0000
  Al  Al7       1.0  0.4347041750000001  0.875889155  0.5347886335111881  1.0000
  Al  Al8       1.0  0.437348895  0.8755484250000001  0.4806988983966716  1.0000
  Al  Al9       1.0  0.937348895  0.8755484250000001  0.4532866380048158  1.0000
  Al  Al10      1.0  0.9376511049999998  0.873871795  0.5086463590712973  1.0000
  Al  Al11      1.0  0.18734889500000004  0.6255484250000001  0.43958050616415223  1.0000
  Al  Al12      1.0  0.18734889500000004  0.6255484250000001  0.49440503023733523  1.0000
  Al  Al13      1.0  0.687348895  0.12554842500000005  0.43958050616415223  1.0000
  Al  Al14      1.0  0.687348895  0.12554842500000005  0.49440503023733523  1.0000
  Al  Al15      1.0  0.937348895  0.375548425  0.4532866380048158  1.0000
  Al  Al16      1.0  0.936237875  0.375645335  0.5083564513797584  1.0000
  Ca  Ca1       1.0  0.3090969250000001  0.12411084500000004  0.507837060296434  1.0000
  Ca  Ca2       1.0  0.312348895  0.12554842500000005  0.4532866380048158  1.0000
  Ca  Ca3       1.0  0.562348895  0.6255484250000001  0.4532866380048158  1.0000
  Ca  Ca4       1.0  0.563039165  0.6260736750000001  0.507928158916793  1.0000
  Ca  Ca5       1.0  0.795302665  0.6267222450000001  0.5356335079190109  1.0000
  Ca  Ca6       1.0  0.812348895  0.6255484250000001  0.4806988983966716  1.0000
  Ca  Ca7       1.0  0.07543699500000005  0.12488047500000003  0.535933583366581  1.0000
  Ca  Ca8       1.0  0.06234889500000004  0.12554842500000005  0.4806988983966716  1.0000
