data_image0
_chemical_formula_structural       COCa12Zn24
_chemical_formula_sum              "C1 O1 Ca12 Zn24"
_cell_length_a       14.555795990818945
_cell_length_b       5.732820955544796
_cell_length_c       112.57238328
_cell_angle_alpha    74.37612656987041
_cell_angle_beta     95.43738817156057
_cell_angle_gamma    66.80564056737336

_space_group_name_H-M_alt    "P 1"
_space_group_IT_number       1

loop_
  _space_group_symop_operation_xyz
  'x, y, z'

loop_
  _atom_site_type_symbol
  _atom_site_label
  _atom_site_symmetry_multiplicity
  _atom_site_fract_x
  _atom_site_fract_y
  _atom_site_fract_z
  _atom_site_occupancy
  C   C1        1.0  0.855894105  0.44387054999999975  0.5473514516142842  1.0000
  O   O1        1.0  0.8780171649999999  0.39843586999999986  0.5583125625613825  1.0000
  Ca  Ca1       1.0  0.593081395  0.7344124399999997  0.4973440776717793  1.0000
  Ca  Ca2       1.0  0.925587545  0.72553907  0.5294644404573552  1.0000
  Ca  Ca3       1.0  0.25974806500000003  0.7344124399999998  0.4658292532795622  1.0000
  Ca  Ca4       1.0  0.648636955  0.40107910999999985  0.45532431559726855  1.0000
  Ca  Ca5       1.0  0.9819702849999999  0.4010791100000002  0.48683913620770697  1.0000
  Ca  Ca6       1.0  0.31881085500000006  0.3887896199999999  0.5202786703584251  1.0000
  Ca  Ca7       1.0  0.7573609950000001  0.4257340199999999  0.5270741521506105  1.0000
  Ca  Ca8       1.0  0.10964470500000005  0.40107910999999996  0.46269731658498353  1.0000
  Ca  Ca9       1.0  0.442978035  0.40107910999999985  0.4942121409772006  1.0000
  Ca  Ca10      1.0  0.7207558150000001  0.7344124399999998  0.47320225804905586  1.0000
  Ca  Ca11      1.0  0.05157361500000005  0.73819824  0.5043353421433563  1.0000
  Ca  Ca12      1.0  0.38742247500000004  0.7344124399999997  0.44168743743861744  1.0000
  Zn  Zn1       1.0  0.6874018150000001  0.06774000999999998  0.5115135021145573  1.0000
  Zn  Zn2       1.0  0.01802971500000005  0.06774576999999994  0.4485058746270536  1.0000
  Zn  Zn3       1.0  0.3513630550000001  0.06774576999999987  0.48002069901927075  1.0000
  Zn  Zn4       1.0  0.8513630550000001  0.06774576999999994  0.48002069901927075  1.0000
  Zn  Zn5       1.0  0.18621929500000003  0.07159292999999994  0.510506592210442  1.0000
  Zn  Zn6       1.0  0.5180297150000001  0.06774576999999994  0.4485058746270536  1.0000
  Zn  Zn7       1.0  0.490374665  0.73367606  0.4695273600520184  1.0000
  Zn  Zn8       1.0  0.8237080050000001  0.7336760599999999  0.5010421806624569  1.0000
  Zn  Zn9       1.0  0.13382151500000003  0.78533668  0.5295183194574188  1.0000
  Zn  Zn10      1.0  0.8790180949999999  0.90071092  0.458999213594306  1.0000
  Zn  Zn11      1.0  0.21235143500000003  0.9007109199999999  0.49051403420474443  1.0000
  Zn  Zn12      1.0  0.538870275  0.9322599900000003  0.5202047895312164  1.0000
  Zn  Zn13      1.0  0.712719625  0.90071092  0.4432766126704363  1.0000
  Zn  Zn14      1.0  0.04605295500000005  0.9007109199999999  0.4747914332808747  1.0000
  Zn  Zn15      1.0  0.3798750150000001  0.90073367  0.5066175661259054  1.0000
  Zn  Zn16      1.0  0.656673145  0.23478063  0.48524996097588824  1.0000
  Zn  Zn17      1.0  0.970269195  0.25304529999999986  0.5167149982525135  1.0000
  Zn  Zn18      1.0  0.323339815  0.23478063  0.45373514036544976  1.0000
  Zn  Zn19      1.0  0.490374665  0.23478063  0.4695273600520184  1.0000
  Zn  Zn20      1.0  0.8237080050000001  0.23478063  0.5010421806624569  1.0000
  Zn  Zn21      1.0  0.13450549500000003  0.25890542999999994  0.5294366595115794  1.0000
  Zn  Zn22      1.0  0.8790180949999999  0.4018154800000001  0.458999213594306  1.0000
  Zn  Zn23      1.0  0.21235143500000003  0.40181547999999995  0.49051403420474443  1.0000
  Zn  Zn24      1.0  0.5391992250000001  0.40872265  0.5202365829441127  1.0000
