data_image0
_chemical_formula_structural       COCa12Ge12
_chemical_formula_sum              "C1 O1 Ca12 Ge12"
_cell_length_a       7.235355718110987
_cell_length_b       7.235355719814174
_cell_length_c       106.37256178999999
_cell_angle_alpha    92.01951954363591
_cell_angle_beta     92.0195195441115
_cell_angle_gamma    99.24879260959418

_space_group_name_H-M_alt    "P 1"
_space_group_IT_number       1

loop_
  _space_group_symop_operation_xyz
  'x, y, z'

loop_
  _atom_site_type_symbol
  _atom_site_label
  _atom_site_symmetry_multiplicity
  _atom_site_fract_x
  _atom_site_fract_y
  _atom_site_fract_z
  _atom_site_occupancy
  C   C1        1.0  0.17015274999999996  0.6865069599999999  0.5562880868438579  1.0000
  O   O1        1.0  0.0356268  0.6498764899999999  0.5620130113923864  1.0000
  Ca  Ca1       1.0  0.87714742  0.16743630999999992  0.4664816211266739  1.0000
  Ca  Ca2       1.0  0.26603631  0.5563252  0.48547803938669176  1.0000
  Ca  Ca3       1.0  0.4882585300000001  0.77854742  0.44748519944730036  1.0000
  Ca  Ca4       1.0  0.56729703  0.31062004  0.43798698860761365  1.0000
  Ca  Ca5       1.0  0.9561859099999999  0.6995089199999999  0.45698341028698714  1.0000
  Ca  Ca6       1.0  0.3450748  0.08839780999999994  0.475979828547005  1.0000
  Ca  Ca7       1.0  0.048136409999999984  0.34115976  0.52369043957036  1.0000
  Ca  Ca8       1.0  0.44236812  0.75861972  0.5416357957810825  1.0000
  Ca  Ca9       1.0  0.6549252  0.94521409  0.5044744610660652  1.0000
  Ca  Ca10      1.0  0.73396369  0.4772866999999999  0.49497625022637853  1.0000
  Ca  Ca11      1.0  0.12426335999999998  0.8649251  0.513579391298757  1.0000
  Ca  Ca12      1.0  0.52669828  0.2541798699999999  0.5319433723803946  1.0000
  Ge  Ge1       1.0  0.59071474  0.45386898  0.4664816211266739  1.0000
  Ge  Ge2       1.0  0.97960363  0.8427578699999999  0.48547803938669176  1.0000
  Ge  Ge3       1.0  0.20182585999999997  0.06498008999999995  0.4474851994473005  1.0000
  Ge  Ge4       1.0  0.8537297  0.024187359999999953  0.43798698860761365  1.0000
  Ge  Ge5       1.0  0.24261858999999997  0.41307625  0.4569834102869871  1.0000
  Ge  Ge6       1.0  0.6315074799999999  0.80196514  0.47597982854700505  1.0000
  Ge  Ge7       1.0  0.7577712100000001  0.6280256799999999  0.52420075446246  1.0000
  Ge  Ge8       1.0  0.16759146999999996  0.03237656999999995  0.5406207976756032  1.0000
  Ge  Ge9       1.0  0.36849252  0.23164675999999992  0.5044744610660652  1.0000
  Ge  Ge10      1.0  0.020396369999999983  0.19085402999999992  0.4949762502263785  1.0000
  Ge  Ge11      1.0  0.40990405  0.5782852199999999  0.5142151281553189  1.0000
  Ge  Ge12      1.0  0.82355243  0.97581264  0.5330215191456252  1.0000
