data_image0
_chemical_formula_structural       COCa8Ge8
_chemical_formula_sum              "C1 O1 Ca8 Ge8"
_cell_length_a       5.981569153723833
_cell_length_b       6.17733338883499
_cell_length_c       105.46544598
_cell_angle_alpha    92.22720214264496
_cell_angle_beta     91.83517114470942
_cell_angle_gamma    106.98531826039205

_space_group_name_H-M_alt    "P 1"
_space_group_IT_number       1

loop_
  _space_group_symop_operation_xyz
  'x, y, z'

loop_
  _atom_site_type_symbol
  _atom_site_label
  _atom_site_symmetry_multiplicity
  _atom_site_fract_x
  _atom_site_fract_y
  _atom_site_fract_z
  _atom_site_occupancy
  C   C1        1.0  0.14138914999999994  0.8416824700000001  0.5582819622062223  1.0000
  O   O1        1.0  0.16226143999999992  0.95241033  0.5677035174180128  1.0000
  Ca  Ca1       1.0  0.8697839299999999  0.04758966999999997  0.5109057844911602  1.0000
  Ca  Ca2       1.0  0.0896953299999999  0.59363017  0.5381649191150806  1.0000
  Ca  Ca3       1.0  0.2923593599999999  0.9367638399999999  0.4883424010022479  1.0000
  Ca  Ca4       1.0  0.4569057099999999  0.4385817299999999  0.515748118118273  1.0000
  Ca  Ca5       1.0  0.5409739699999999  0.050022359999999974  0.45397176582812926  1.0000
  Ca  Ca6       1.0  0.7076406399999999  0.5500223599999999  0.481994723356882  1.0000
  Ca  Ca7       1.0  0.95902603  0.9367638399999999  0.4322964825819873  1.0000
  Ca  Ca8       1.0  0.1256926899999999  0.43676383999999996  0.4603194434734952  1.0000
  Ge  Ge1       1.0  0.34602176999999995  0.9113135899999999  0.5178109564804945  1.0000
  Ge  Ge2       1.0  0.18251406999999992  0.40680603  0.49002141450443654  1.0000
  Ge  Ge3       1.0  0.1902074199999999  0.11383183999999998  0.5356505266436068  1.0000
  Ge  Ge4       1.0  0.9841526  0.5799801699999999  0.5083386673834462  1.0000
  Ge  Ge5       1.0  0.015847399999999904  0.9068060299999999  0.4619984569756837  1.0000
  Ge  Ge6       1.0  0.8491807299999999  0.40680603  0.43397549608417585  1.0000
  Ge  Ge7       1.0  0.81748593  0.07998016999999998  0.48031570985469346  1.0000
  Ge  Ge8       1.0  0.6508192699999998  0.5799801699999999  0.45229275232594063  1.0000
