data_image0
_chemical_formula_structural       COSn16V8
_chemical_formula_sum              "C1 O1 Sn16 V8"
_cell_length_a       5.5207622455130325
_cell_length_b       9.853034104158692
_cell_length_c       107.26897213000001
_cell_angle_alpha    89.3312179735517
_cell_angle_beta     88.35120359720938
_cell_angle_gamma    81.82710514743819

_space_group_name_H-M_alt    "P 1"
_space_group_IT_number       1

loop_
  _space_group_symop_operation_xyz
  'x, y, z'

loop_
  _atom_site_type_symbol
  _atom_site_label
  _atom_site_symmetry_multiplicity
  _atom_site_fract_x
  _atom_site_fract_y
  _atom_site_fract_z
  _atom_site_occupancy
  C   C1        1.0  0.6495144750000003  0.706061595  0.5367106124234231  1.0000
  O   O1        1.0  0.6371758650000002  0.737192535  0.5472854745119393  1.0000
  Sn  Sn1       1.0  0.13810065500000007  0.046659884999999936  0.467171880951411  1.0000
  Sn  Sn2       1.0  0.6262821950000002  0.9216791449999998  0.5124770432088537  1.0000
  Sn  Sn3       1.0  0.6387600750000001  0.08827159499999995  0.4527145254880605  1.0000
  Sn  Sn4       1.0  0.13876007500000012  0.963271595  0.49614387345090094  1.0000
  Sn  Sn5       1.0  0.499138265  0.42916841499999997  0.5076562570341085  1.0000
  Sn  Sn6       1.0  0.013760075000000031  0.557021595  0.4635718624787707  1.0000
  Sn  Sn7       1.0  0.513100655  0.515409885  0.4780292179421211  1.0000
  Sn  Sn8       1.0  0.9862399250000002  0.38720510499999994  0.5213363835145769  1.0000
  Sn  Sn9       1.0  0.18425728500000013  0.6972606249999999  0.5220806930517031  1.0000
  Sn  Sn10      1.0  0.6804051850000001  0.8475601849999997  0.47801199907424086  1.0000
  Sn  Sn11      1.0  0.08890605500000005  0.03672840499999994  0.52842410521733  1.0000
  Sn  Sn12      1.0  0.596455555  0.16237129499999994  0.4853037553280712  1.0000
  Sn  Sn13      1.0  0.971455555  0.631121295  0.49616109231878125  1.0000
  Sn  Sn14      1.0  0.4714555550000001  0.756121295  0.4527317443559409  1.0000
  Sn  Sn15      1.0  0.055405185000000044  0.31631018499999997  0.488869336064951  1.0000
  Sn  Sn16      1.0  0.5473377950000002  0.20494148499999995  0.5323296161465844  1.0000
  V   V1        1.0  0.3160336350000001  0.18086046499999994  0.5087678503041306  1.0000
  V   V2        1.0  0.8246383750000003  0.3066857249999999  0.46548409141305297  1.0000
  V   V3        1.0  0.4522223650000002  0.703245765  0.49783165951491126  1.0000
  V   V4        1.0  0.9522223650000002  0.8282457649999999  0.45440231155207084  1.0000
  V   V5        1.0  0.8177026350000001  0.16745089499999996  0.5083041673161487  1.0000
  V   V6        1.0  0.32722236500000007  0.29699576499999997  0.46525964854278096  1.0000
  V   V7        1.0  0.6891555750000001  0.6498846849999999  0.5190465207651924  1.0000
  V   V8        1.0  0.199638375  0.775435725  0.4763414284037631  1.0000
