data_image0
_chemical_formula_structural       COCa8Si8Ca8Si8
_chemical_formula_sum              "C1 O1 Ca16 Si16"
_cell_length_a       4.60286915
_cell_length_b       21.967689937295095
_cell_length_c       101.50537888
_cell_angle_alpha    79.67269255540056
_cell_angle_beta     90.0
_cell_angle_gamma    90.0

_space_group_name_H-M_alt    "P 1"
_space_group_IT_number       1

loop_
  _space_group_symop_operation_xyz
  'x, y, z'

loop_
  _atom_site_type_symbol
  _atom_site_label
  _atom_site_symmetry_multiplicity
  _atom_site_fract_x
  _atom_site_fract_y
  _atom_site_fract_z
  _atom_site_occupancy
  C   C1        1.0  2.2349999999984744e-05  0.05464969000000003  0.5447128934724079  1.0000
  O   O1        1.0  5.939999999984742e-06  0.08356943000000001  0.5530875757487139  1.0000
  Ca  Ca1       1.0  0.50000015  0.18535070000000003  0.46199049063909325  1.0000
  Ca  Ca2       1.0  0.50000015  0.6853507000000001  0.48138932646165455  1.0000
  Ca  Ca3       1.0  1.4999999998474287e-07  0.07398400000000002  0.4469124242512863  1.0000
  Ca  Ca4       1.0  1.4999999998474287e-07  0.573984  0.46631126007384754  1.0000
  Ca  Ca5       1.0  1.4999999998474287e-07  0.4353507  0.4522910727278126  1.0000
  Ca  Ca6       1.0  1.4999999998474287e-07  0.9353507  0.4716899085503739  1.0000
  Ca  Ca7       1.0  0.50000015  0.323984  0.4760106779851282  1.0000
  Ca  Ca8       1.0  0.50000015  0.8239839999999999  0.4566118421625669  1.0000
  Si  Si1       1.0  0.50000015  0.03918923000000002  0.46766121729920523  1.0000
  Si  Si2       1.0  0.50000015  0.53918923  0.44826238147664393  1.0000
  Si  Si3       1.0  1.4999999998474287e-07  0.22014547  0.48003936923629686  1.0000
  Si  Si4       1.0  1.4999999998474287e-07  0.72014547  0.4606405334137355  1.0000
  Si  Si5       1.0  1.4999999998474287e-07  0.28918923  0.4579617993879246  1.0000
  Si  Si6       1.0  1.4999999998474287e-07  0.7891892300000001  0.47736063521048594  1.0000
  Si  Si7       1.0  0.50000015  0.47014547000000007  0.4703399513250162  1.0000
  Si  Si8       1.0  0.50000015  0.97014547  0.4509411155024549  1.0000
  Ca  Ca9       1.0  0.50000121  0.17766347000000002  0.5052633961131374  1.0000
  Ca  Ca10      1.0  0.50000068  0.70933008  0.5226412115586846  1.0000
  Ca  Ca11      1.0  1.4999999998474287e-07  0.07398400000000002  0.48571009589640884  1.0000
  Ca  Ca12      1.0  7.099999999847429e-07  0.5726067499999999  0.5062685165290995  1.0000
  Ca  Ca13      1.0  0.99999985  0.43284621000000006  0.4919585602368952  1.0000
  Ca  Ca14      1.0  1.4599999999847428e-06  0.9388505  0.513510989632389  1.0000
  Ca  Ca15      1.0  0.50000067  0.33054515000000007  0.5174385306978581  1.0000
  Ca  Ca16      1.0  0.5000007200000001  0.8293332700000001  0.49568208762578575  1.0000
  Si  Si9       1.0  0.50000116  0.029854530000000025  0.5070609946663092  1.0000
  Si  Si10      1.0  0.50000015  0.53918923  0.48706005312176653  1.0000
  Si  Si11      1.0  1.6299999999847429e-06  0.24000022999999998  0.5199149736637113  1.0000
  Si  Si12      1.0  5.499999999847428e-07  0.72654181  0.5005806475057478  1.0000
  Si  Si13      1.0  4.4999999998474285e-07  0.28703713000000003  0.4972610907854676  1.0000
  Si  Si14      1.0  7.199999999847429e-07  0.7942548899999999  0.5171046938043273  1.0000
  Si  Si15      1.0  0.50000063  0.48021343000000005  0.5094779716648784  1.0000
  Si  Si16      1.0  0.50000015  0.97014547  0.48973878714757746  1.0000
