data_image0
_chemical_formula_structural       COTi4Cu4Si4Ti4Cu4Si4Ti4Cu4Si4
_chemical_formula_sum              "C1 O1 Ti12 Cu12 Si12"
_cell_length_a       8.143830959203743
_cell_length_b       6.26270903
_cell_length_c       107.5328085
_cell_angle_alpha    90.0
_cell_angle_beta     62.55647334475895
_cell_angle_gamma    90.0

_space_group_name_H-M_alt    "P 1"
_space_group_IT_number       1

loop_
  _space_group_symop_operation_xyz
  'x, y, z'

loop_
  _atom_site_type_symbol
  _atom_site_label
  _atom_site_symmetry_multiplicity
  _atom_site_fract_x
  _atom_site_fract_y
  _atom_site_fract_z
  _atom_site_occupancy
  C   C1        1.0  0.54406064  0.89184429  0.5500161750205359  1.0000
  O   O1        1.0  0.48881085  0.93580334  0.5618952726493609  1.0000
  Ti  Ti1       1.0  0.32095071  0.062238309999999686  0.507666489347095  1.0000
  Ti  Ti2       1.0  0.82528539  0.6087012699999998  0.5075502045531397  1.0000
  Ti  Ti3       1.0  0.17755782000000003  0.5635773199999999  0.5133012792276076  1.0000
  Ti  Ti4       1.0  0.67502809  0.11620381999999994  0.5127588774692735  1.0000
  Cu  Cu1       1.0  0.06348561000000001  0.21328432999999994  0.5326206630300778  1.0000
  Cu  Cu2       1.0  0.4287979  0.72917997  0.5214429739453181  1.0000
  Cu  Cu3       1.0  0.5680917500000001  0.45348766999999995  0.5320626454064492  1.0000
  Cu  Cu4       1.0  0.93037347  0.94695224  0.5210828422141525  1.0000
  Si  Si1       1.0  0.11798695000000001  0.8428203399999998  0.531878148530363  1.0000
  Si  Si2       1.0  0.36985729  0.33374263999999987  0.5237735249135228  1.0000
  Si  Si3       1.0  0.87390535  0.33660748999999995  0.5234876400948621  1.0000
  Si  Si4       1.0  0.61805975  0.8316512099999998  0.5317948580981936  1.0000
  Ti  Ti5       1.0  0.32219938000000004  0.0641966599999999  0.473008315403024  1.0000
  Ti  Ti6       1.0  0.8221993800000001  0.6076678599999998  0.47300831540302396  1.0000
  Ti  Ti7       1.0  0.18026046  0.5641966599999999  0.4779624922972326  1.0000
  Ti  Ti8       1.0  0.68026046  0.10766785999999995  0.47796249229723264  1.0000
  Cu  Cu5       1.0  0.06594545  0.23621900999999992  0.4994042899916335  1.0000
  Cu  Cu6       1.0  0.43651439  0.73621901  0.48647010576100813  1.0000
  Cu  Cu7       1.0  0.5659454500000001  0.4356455099999999  0.4994042899916335  1.0000
  Cu  Cu8       1.0  0.93651439  0.9356455099999998  0.4864701057610081  1.0000
  Si  Si5       1.0  0.12282693000000003  0.8516387099999999  0.4974189250381906  1.0000
  Si  Si6       1.0  0.37963291000000005  0.35163870999999997  0.48845547420480984  1.0000
  Si  Si7       1.0  0.87963291  0.3202258099999999  0.4884554742048098  1.0000
  Si  Si8       1.0  0.6228269300000001  0.8202258099999997  0.49741892503819063  1.0000
  Ti  Ti9       1.0  0.32219938000000004  0.0641966599999999  0.43810472735063904  1.0000
  Ti  Ti10      1.0  0.8221993800000001  0.6076678599999998  0.43810472735063904  1.0000
  Ti  Ti11      1.0  0.18026046  0.5641966599999999  0.4430589042448477  1.0000
  Ti  Ti12      1.0  0.68026046  0.10766785999999995  0.4430589042448477  1.0000
  Cu  Cu9       1.0  0.06594545  0.23621900999999992  0.4645007019392486  1.0000
  Cu  Cu10      1.0  0.43651439  0.73621901  0.4515665177086231  1.0000
  Cu  Cu11      1.0  0.5659454500000001  0.4356455099999999  0.46450070193924853  1.0000
  Cu  Cu12      1.0  0.93651439  0.9356455099999998  0.4515665177086231  1.0000
  Si  Si9       1.0  0.12282693000000003  0.8516387099999999  0.46251533698580566  1.0000
  Si  Si10      1.0  0.37963291000000005  0.35163870999999997  0.4535518861524249  1.0000
  Si  Si11      1.0  0.87963291  0.3202258099999999  0.4535518861524248  1.0000
  Si  Si12      1.0  0.6228269300000001  0.8202258099999997  0.46251533698580566  1.0000
