data_image0
_chemical_formula_structural       COPb16Pd8
_chemical_formula_sum              "C1 O1 Pb16 Pd8"
_cell_length_a       9.27538467327441
_cell_length_b       5.840286569456515
_cell_length_c       103.92019296000001
_cell_angle_alpha    85.7232793360839
_cell_angle_beta     84.61134738301355
_cell_angle_gamma    97.83716582751813

_space_group_name_H-M_alt    "P 1"
_space_group_IT_number       1

loop_
  _space_group_symop_operation_xyz
  'x, y, z'

loop_
  _atom_site_type_symbol
  _atom_site_label
  _atom_site_symmetry_multiplicity
  _atom_site_fract_x
  _atom_site_fract_y
  _atom_site_fract_z
  _atom_site_occupancy
  C   C1        1.0  0.37785363000000005  0.8384396799999999  0.5528117492178357  1.0000
  O   O1        1.0  0.36238918  0.8167122999999998  0.5641775778969447  1.0000
  Pb  Pb1       1.0  0.66836062  0.27893817  0.49022345279183277  1.0000
  Pb  Pb2       1.0  0.16836062000000002  0.94560484  0.4630229390794749  1.0000
  Pb  Pb3       1.0  0.66836062  0.6122715099999999  0.4358224221030552  1.0000
  Pb  Pb4       1.0  0.16043433000000004  0.61777728  0.5189479700036733  1.0000
  Pb  Pb5       1.0  0.58220866  0.72807653  0.5130856922054634  1.0000
  Pb  Pb6       1.0  0.08163937999999998  0.39456651  0.4855057280475785  1.0000
  Pb  Pb7       1.0  0.5816393800000002  0.061233169999999955  0.4583052143352206  1.0000
  Pb  Pb8       1.0  0.09694388  0.08715225999999993  0.5391467252158656  1.0000
  Pb  Pb9       1.0  0.83163938  0.8435281700000001  0.48134092231193915  1.0000
  Pb  Pb10      1.0  0.33163938  0.51019484  0.45414040533551936  1.0000
  Pb  Pb11      1.0  0.8204438800000001  0.4693862199999999  0.5346036995859887  1.0000
  Pb  Pb12      1.0  0.33163938  0.17686150999999994  0.5085414360242969  1.0000
  Pb  Pb13      1.0  0.9179878500000002  0.05439515999999993  0.5139140360108029  1.0000
  Pb  Pb14      1.0  0.41836062  0.72789984  0.48605864705619345  1.0000
  Pb  Pb15      1.0  0.9183606200000001  0.39456651  0.4588581300797737  1.0000
  Pb  Pb16      1.0  0.43957402000000007  0.38118344  0.540244132161528  1.0000
  Pd  Pd1       1.0  0.37922129000000004  0.8943791299999998  0.5342187100276277  1.0000
  Pd  Pd2       1.0  0.875  0.56123317  0.5061825736521698  1.0000
  Pd  Pd3       1.0  0.375  0.22789983999999996  0.4789820566757501  1.0000
  Pd  Pd4       1.0  0.875  0.89456651  0.4517815429633922  1.0000
  Pd  Pd5       1.0  0.125  0.89456651  0.4925823151639599  1.0000
  Pd  Pd6       1.0  0.6250000000000001  0.5612331700000001  0.46538180145160213  1.0000
  Pd  Pd7       1.0  0.125  0.22789983999999994  0.43818128447518245  1.0000
  Pd  Pd8       1.0  0.6230491400000001  0.22515035999999997  0.5187418249181455  1.0000
