data_image0
_chemical_formula_structural       COCa8Ga8Ca8Ga8Ca8Ga8Ca8Ga8
_chemical_formula_sum              "C1 O1 Ca32 Ga32"
_cell_length_a       8.98478264
_cell_length_b       23.82390726019515
_cell_length_c       99.03491783
_cell_angle_alpha    100.02653984396606
_cell_angle_beta     90.0
_cell_angle_gamma    90.0

_space_group_name_H-M_alt    "P 1"
_space_group_IT_number       1

loop_
  _space_group_symop_operation_xyz
  'x, y, z'

loop_
  _atom_site_type_symbol
  _atom_site_label
  _atom_site_symmetry_multiplicity
  _atom_site_fract_x
  _atom_site_fract_y
  _atom_site_fract_z
  _atom_site_occupancy
  C   C1        1.0  0.12325948999999999  0.71800663  0.5380263101108654  1.0000
  O   O1        1.0  0.12258094  0.7346816999999998  0.5499173963530213  1.0000
  Ca  Ca1       1.0  0.12624727  0.4371708499999999  0.4814945965514534  1.0000
  Ca  Ca2       1.0  0.12624727  0.9371708499999999  0.46055326599394625  1.0000
  Ca  Ca3       1.0  0.37624727  0.3336336899999999  0.4562168555668778  1.0000
  Ca  Ca4       1.0  0.37624727  0.83363369  0.47715818319259884  1.0000
  Ca  Ca5       1.0  0.12624727  0.18717084999999992  0.45008260364697866  1.0000
  Ca  Ca6       1.0  0.12624727  0.6871708499999998  0.4710239312726998  1.0000
  Ca  Ca7       1.0  0.37624727  0.08363368999999996  0.46668752084563125  1.0000
  Ca  Ca8       1.0  0.37624727  0.58363369  0.48762884847135246  1.0000
  Ga  Ga1       1.0  0.12624727  0.29446831999999995  0.4755178343079398  1.0000
  Ga  Ga2       1.0  0.12624727  0.7944683199999999  0.4545765066822187  1.0000
  Ga  Ga3       1.0  0.37624727  0.4763362199999999  0.4621936178103912  1.0000
  Ga  Ga4       1.0  0.37624727  0.97633622  0.48313494543611246  1.0000
  Ga  Ga5       1.0  0.12624727  0.04446831999999996  0.4859884995866934  1.0000
  Ga  Ga6       1.0  0.12624727  0.5444683199999999  0.46504717196097217  1.0000
  Ga  Ga7       1.0  0.37624727  0.22633621999999995  0.47266428015735884  1.0000
  Ga  Ga8       1.0  0.37624727  0.7263362199999999  0.4517229525316377  1.0000
  Ca  Ca9       1.0  0.12630309  0.4326456599999999  0.5229333647547337  1.0000
  Ca  Ca10      1.0  0.12664661  0.9338047899999998  0.5013199193418509  1.0000
  Ca  Ca11      1.0  0.37624727  0.3336336899999999  0.49809951081832005  1.0000
  Ca  Ca12      1.0  0.37516308  0.8336224199999999  0.5184936206009091  1.0000
  Ca  Ca13      1.0  0.12624727  0.18717084999999992  0.491965258898421  1.0000
  Ca  Ca14      1.0  0.12610902  0.6854957199999999  0.5119314510707884  1.0000
  Ca  Ca15      1.0  0.37679075999999995  0.08503519999999995  0.5101123218803474  1.0000
  Ca  Ca16      1.0  0.37513024999999994  0.5775410599999999  0.5288241465123885  1.0000
  Ga  Ga9       1.0  0.12589287  0.2901600999999999  0.5159634541651358  1.0000
  Ga  Ga10      1.0  0.12624727  0.7944683199999999  0.496459161933661  1.0000
  Ga  Ga11      1.0  0.37616923  0.47343448999999993  0.5047975481036203  1.0000
  Ga  Ga12      1.0  0.37778583  0.9723024999999998  0.5244304050115325  1.0000
  Ga  Ga13      1.0  0.12778267  0.02366377999999995  0.5279151609448886  1.0000
  Ga  Ga14      1.0  0.12616825  0.5458042599999999  0.5074725652866513  1.0000
  Ga  Ga15      1.0  0.37611049999999996  0.2296744099999999  0.5134656810320614  1.0000
  Ga  Ga16      1.0  0.37624727  0.7263362199999999  0.49360560778307994  1.0000
  Ca  Ca17      1.0  0.6262472699999999  0.4371708499999999  0.4814945965514534  1.0000
  Ca  Ca18      1.0  0.6262472699999999  0.9371708499999999  0.46055326599394625  1.0000
  Ca  Ca19      1.0  0.87624727  0.3336336899999999  0.4562168555668778  1.0000
  Ca  Ca20      1.0  0.87624727  0.83363369  0.47715818319259884  1.0000
  Ca  Ca21      1.0  0.6262472699999999  0.18717084999999992  0.45008260364697866  1.0000
  Ca  Ca22      1.0  0.6262472699999999  0.6871708499999998  0.4710239312726998  1.0000
  Ca  Ca23      1.0  0.87624727  0.08363368999999996  0.46668752084563125  1.0000
  Ca  Ca24      1.0  0.87624727  0.58363369  0.48762884847135246  1.0000
  Ga  Ga17      1.0  0.6262472699999999  0.29446831999999995  0.4755178343079398  1.0000
  Ga  Ga18      1.0  0.6262472699999999  0.7944683199999999  0.4545765066822187  1.0000
  Ga  Ga19      1.0  0.87624727  0.4763362199999999  0.4621936178103912  1.0000
  Ga  Ga20      1.0  0.87624727  0.97633622  0.48313494543611246  1.0000
  Ga  Ga21      1.0  0.6262472699999999  0.04446831999999996  0.4859884995866934  1.0000
  Ga  Ga22      1.0  0.6262472699999999  0.5444683199999999  0.46504717196097217  1.0000
  Ga  Ga23      1.0  0.87624727  0.22633621999999995  0.47266428015735884  1.0000
  Ga  Ga24      1.0  0.87624727  0.7263362199999999  0.4517229525316377  1.0000
  Ca  Ca25      1.0  0.62626069  0.4330211099999999  0.5229432448733052  1.0000
  Ca  Ca26      1.0  0.62668971  0.9337808999999998  0.501399054107572  1.0000
  Ca  Ca27      1.0  0.87624727  0.3336336899999999  0.49809951081832005  1.0000
  Ca  Ca28      1.0  0.8772088799999999  0.8335542299999998  0.5185009676564403  1.0000
  Ca  Ca29      1.0  0.6262472699999999  0.18717084999999992  0.491965258898421  1.0000
  Ca  Ca30      1.0  0.62619458  0.6860044399999999  0.5117601409555466  1.0000
  Ca  Ca31      1.0  0.8765631099999999  0.08502725999999995  0.5101113192095607  1.0000
  Ca  Ca32      1.0  0.87720925  0.57768161  0.5288259055839443  1.0000
  Ga  Ga25      1.0  0.62594709  0.29022171999999996  0.5159354966545431  1.0000
  Ga  Ga26      1.0  0.6262472699999999  0.7944683199999999  0.496459161933661  1.0000
  Ga  Ga27      1.0  0.8762563400000001  0.4734418199999999  0.5048044729819782  1.0000
  Ga  Ga28      1.0  0.8774190599999999  0.9723411599999998  0.5244256848361912  1.0000
  Ga  Ga29      1.0  0.6278956299999999  0.02405634999999995  0.5279499817663345  1.0000
  Ga  Ga30      1.0  0.62606129  0.5464037799999999  0.5076717097774769  1.0000
  Ga  Ga31      1.0  0.8760841099999999  0.2296778099999999  0.5134636053276256  1.0000
  Ga  Ga32      1.0  0.87624727  0.7263362199999999  0.49360560778307994  1.0000
