data_image0
_chemical_formula_structural       COCa4Al8Ga8Ca4Al8Ga8
_chemical_formula_sum              "C1 O1 Ca8 Al16 Ga16"
_cell_length_a       11.989061927711035
_cell_length_b       6.13823626
_cell_length_c       106.82941754000001
_cell_angle_alpha    90.0
_cell_angle_beta     75.16755609900174
_cell_angle_gamma    75.16755609900174

_space_group_name_H-M_alt    "P 1"
_space_group_IT_number       1

loop_
  _space_group_symop_operation_xyz
  'x, y, z'

loop_
  _atom_site_type_symbol
  _atom_site_label
  _atom_site_symmetry_multiplicity
  _atom_site_fract_x
  _atom_site_fract_y
  _atom_site_fract_z
  _atom_site_occupancy
  C   C1        1.0  0.04211999999999997  0.977054755  0.5525761711370756  1.0000
  O   O1        1.0  0.03661000999999997  0.9770590250000001  0.5635813009986614  1.0000
  Ca  Ca1       1.0  0.07631459999999998  0.46647866500000007  0.49712122217322957  1.0000
  Ca  Ca2       1.0  0.062174029999999963  0.973455685  0.5278573744729699  1.0000
  Ca  Ca3       1.0  0.5763146  0.21647866500000001  0.511485793786312  1.0000
  Ca  Ca4       1.0  0.5606243200000001  0.7248368250000001  0.5394789169302424  1.0000
  Al  Al1       1.0  0.31504720999999997  0.6222450250000002  0.533193383893009  1.0000
  Al  Al2       1.0  0.32631459999999995  0.09147866500000007  0.5043035079797707  1.0000
  Al  Al3       1.0  0.31532215999999996  0.07301531500000005  0.5332079323334664  1.0000
  Al  Al4       1.0  0.32631459999999995  0.591478665  0.5043035079797707  1.0000
  Al  Al5       1.0  0.8208466099999999  0.8463615550000002  0.5190419779601082  1.0000
  Al  Al6       1.0  0.80096459  0.375855995  0.5461728474446025  1.0000
  Al  Al7       1.0  0.8209367799999999  0.3421429950000001  0.5190408782083296  1.0000
  Al  Al8       1.0  0.8007384799999998  0.8331731250000004  0.5461532242874737  1.0000
  Ga  Ga1       1.0  0.42872575  0.29152721500000006  0.5443153597954539  1.0000
  Ga  Ga2       1.0  0.46338999  0.772940975  0.5147300236108776  1.0000
  Ga  Ga3       1.0  0.18770630999999996  0.4107147850000001  0.523686115953955  1.0000
  Ga  Ga4       1.0  0.18923920999999996  0.910016365  0.4938769923486639  1.0000
  Ga  Ga5       1.0  0.9633899899999999  0.022940974999999978  0.5003654485502974  1.0000
  Ga  Ga6       1.0  0.9632797499999998  0.5227454250000002  0.5295974817191099  1.0000
  Ga  Ga7       1.0  0.65905455  0.17540256499999998  0.5383522919067111  1.0000
  Ga  Ga8       1.0  0.6892392099999999  0.6600163650000002  0.5082415674092441  1.0000
  Ca  Ca5       1.0  0.07631459999999998  0.46647866500000007  0.4396629253784065  1.0000
  Ca  Ca6       1.0  0.07631459999999998  0.9664786650000001  0.4683920720520691  1.0000
  Ca  Ca7       1.0  0.5763146  0.21647866500000001  0.45402750043898665  1.0000
  Ca  Ca8       1.0  0.5763146  0.716478665  0.4827566471126493  1.0000
  Al  Al9       1.0  0.32631459999999995  0.591478665  0.4755743613061081  1.0000
  Al  Al10      1.0  0.32631459999999995  0.09147866500000007  0.44684521118494774  1.0000
  Al  Al11      1.0  0.32631459999999995  0.09147866500000007  0.4755743613061081  1.0000
  Al  Al12      1.0  0.32631459999999995  0.591478665  0.44684521118494774  1.0000
  Al  Al13      1.0  0.8263145999999998  0.8414786650000003  0.46120978624552783  1.0000
  Al  Al14      1.0  0.8263145999999998  0.34147866500000024  0.4899389329191905  1.0000
  Al  Al15      1.0  0.8263145999999998  0.34147866500000024  0.46120978624552783  1.0000
  Al  Al16      1.0  0.8263145999999998  0.8414786650000003  0.4899389329191905  1.0000
  Ga  Ga9       1.0  0.46338999  0.2729409750000001  0.4860008769372149  1.0000
  Ga  Ga10      1.0  0.46338999  0.772940975  0.4572717268160545  1.0000
  Ga  Ga11      1.0  0.18923920999999996  0.41001636500000016  0.4651478456750013  1.0000
  Ga  Ga12      1.0  0.18923920999999996  0.910016365  0.4364186990013386  1.0000
  Ga  Ga13      1.0  0.9633899899999999  0.022940974999999978  0.44290715520297214  1.0000
  Ga  Ga14      1.0  0.9633899899999999  0.522940975  0.47163630187663474  1.0000
  Ga  Ga15      1.0  0.6892392099999999  0.1600163650000001  0.4795124207355815  1.0000
  Ga  Ga16      1.0  0.6892392099999999  0.6600163650000002  0.45078327061442114  1.0000
