data_image0
_chemical_formula_structural       Pd8V4CO
_chemical_formula_sum              "Pd8 V4 C1 O1"
_cell_length_a       4.716218977597383
_cell_length_b       4.80323339496803
_cell_length_c       38.36421481
_cell_angle_alpha    93.90829475907982
_cell_angle_beta     90.85349785954875
_cell_angle_gamma    81.05585027633033

_space_group_name_H-M_alt    "P 1"
_space_group_IT_number       1

loop_
  _space_group_symop_operation_xyz
  'x, y, z'

loop_
  _atom_site_type_symbol
  _atom_site_label
  _atom_site_symmetry_multiplicity
  _atom_site_fract_x
  _atom_site_fract_y
  _atom_site_fract_z
  _atom_site_occupancy
  Pd  Pd1       1.0  0.9056638950000001  0.49892079  0.43240410869665874  1.0000
  Pd  Pd2       1.0  0.28066389500000005  0.24892079000000003  0.38086554380832915  1.0000
  Pd  Pd3       1.0  0.8246882950000003  0.9847744  0.3990171789768874  1.0000
  Pd  Pd4       1.0  0.44968829500000007  0.23477440000000002  0.4505557438652169  1.0000
  Pd  Pd5       1.0  0.1804624650000001  0.01636233999999992  0.5411540429566392  1.0000
  Pd  Pd6       1.0  0.5281736250000001  0.7512247400000001  0.48394435580374634  1.0000
  Pd  Pd7       1.0  0.06860289500000005  0.4851877300000001  0.501625918029671  1.0000
  Pd  Pd8       1.0  0.7297569850000002  0.76091866  0.5553342317612882  1.0000
  V   V1        1.0  0.9901760950000001  0.9918475899999999  0.46724920872510267  1.0000
  V   V2        1.0  0.36517609500000014  0.74184759  0.41571064383677303  1.0000
  V   V3        1.0  0.31758082500000007  0.49459416  0.559887791784813  1.0000
  V   V4        1.0  0.613367585  0.26209359  0.5190839348227065  1.0000
  C   C1        1.0  0.009823905000000074  0.92173677  0.5887200729865691  1.0000
  O   O1        1.0  0.037150595000000064  0.9836376600000001  0.6191344561916707  1.0000
