data_image0
_chemical_formula_structural       COCa10Cu10Ca10Cu10
_chemical_formula_sum              "C1 O1 Ca20 Cu20"
_cell_length_a       5.93164578
_cell_length_b       20.1552489286402
_cell_length_c       100.21065467
_cell_angle_alpha    102.36438760294848
_cell_angle_beta     90.0
_cell_angle_gamma    94.24687440149391

_space_group_name_H-M_alt    "P 1"
_space_group_IT_number       1

loop_
  _space_group_symop_operation_xyz
  'x, y, z'

loop_
  _atom_site_type_symbol
  _atom_site_label
  _atom_site_symmetry_multiplicity
  _atom_site_fract_x
  _atom_site_fract_y
  _atom_site_fract_z
  _atom_site_occupancy
  C   C1        1.0  0.62412017  0.7999133200000001  0.5414609419448563  1.0000
  O   O1        1.0  0.6237536499999998  0.77950767  0.551837729064618  1.0000
  Ca  Ca1       1.0  0.65868876  0.12844705999999995  0.4746986802048521  1.0000
  Ca  Ca2       1.0  0.34610806  0.87155294  0.4851686069392689  1.0000
  Ca  Ca3       1.0  0.4626411699999999  0.3283679  0.4833087419342668  1.0000
  Ca  Ca4       1.0  0.54215565  0.6716321000000001  0.47655854520985425  1.0000
  Ca  Ca5       1.0  0.76058869  0.5281746  0.4488465328190756  1.0000
  Ca  Ca6       1.0  0.24420812999999994  0.4718254  0.46795339746561143  1.0000
  Ca  Ca7       1.0  0.05636444999999998  0.7283520300000002  0.45746764347834024  1.0000
  Ca  Ca8       1.0  0.9484323699999999  0.27164797  0.4593322868063469  1.0000
  Ca  Ca9       1.0  0.85770098  0.9281854200000001  0.46607393982893297  1.0000
  Ca  Ca10      1.0  0.14709583999999992  0.07181457999999998  0.4507259904557542  1.0000
  Cu  Cu1       1.0  0.19337162999999993  0.18774294999999996  0.4772523969014204  1.0000
  Cu  Cu2       1.0  0.8114251899999998  0.81225705  0.48261489024270066  1.0000
  Cu  Cu3       1.0  0.95806402  0.38772616  0.4858651447417482  1.0000
  Cu  Cu4       1.0  0.04673279999999994  0.61227384  0.4740021424023729  1.0000
  Cu  Cu5       1.0  0.25581613  0.58779416  0.4514141895570153  1.0000
  Cu  Cu6       1.0  0.74898069  0.41220584  0.4653857407276719  1.0000
  Cu  Cu7       1.0  0.58994457  0.78775907  0.4600261475420577  1.0000
  Cu  Cu8       1.0  0.4148522499999999  0.21224092999999997  0.4567737827426295  1.0000
  Cu  Cu9       1.0  0.39207644  0.9877135500000002  0.46863765934930535  1.0000
  Cu  Cu10      1.0  0.61272038  0.012286449999999964  0.44816227093538186  1.0000
  Ca  Ca11      1.0  0.64570356  0.12678874999999998  0.5174960753807408  1.0000
  Ca  Ca12      1.0  0.33421555999999997  0.8629949500000001  0.5278468666145284  1.0000
  Ca  Ca13      1.0  0.45489874999999996  0.32457315  0.5254729957458242  1.0000
  Ca  Ca14      1.0  0.5405456  0.6707928500000001  0.5196303819355247  1.0000
  Ca  Ca15      1.0  0.76058869  0.5281746  0.4919138866637947  1.0000
  Ca  Ca16      1.0  0.23672238999999995  0.47304229000000003  0.5111841367952261  1.0000
  Ca  Ca17      1.0  0.051937529999999954  0.7292171300000001  0.5003124842362143  1.0000
  Ca  Ca18      1.0  0.9424009  0.27044606  0.5017709761382564  1.0000
  Ca  Ca19      1.0  0.85796788  0.9267941  0.5088557187820052  1.0000
  Ca  Ca20      1.0  0.14709583999999992  0.07181457999999998  0.4937933443004733  1.0000
  Cu  Cu11      1.0  0.17027029999999993  0.18656943999999998  0.51876365443678  1.0000
  Cu  Cu12      1.0  0.7993873699999999  0.80956263  0.5253464621350036  1.0000
  Cu  Cu13      1.0  0.97071263  0.37882129999999997  0.5266740340161483  1.0000
  Cu  Cu14      1.0  0.02928736999999994  0.61544767  0.5156612596412563  1.0000
  Cu  Cu15      1.0  0.25581613  0.58779416  0.4944815434017344  1.0000
  Cu  Cu16      1.0  0.7411994  0.41106319  0.5084999311819809  1.0000
  Cu  Cu17      1.0  0.58610131  0.78730599  0.5029191935900543  1.0000
  Cu  Cu18      1.0  0.4155221799999999  0.21176005999999994  0.500090064605529  1.0000
  Cu  Cu19      1.0  0.38437591  0.9812397  0.5106602969317504  1.0000
  Cu  Cu20      1.0  0.61272038  0.012286449999999964  0.4912296247801009  1.0000
