data_image0
_chemical_formula_structural       CORe12Pd4Re12Pd4
_chemical_formula_sum              "C1 O1 Re24 Pd8"
_cell_length_a       7.134724727694965
_cell_length_b       5.581286705014354
_cell_length_c       112.80834838
_cell_angle_alpha    66.97483476611241
_cell_angle_beta     77.06208209176513
_cell_angle_gamma    66.97483478628075

_space_group_name_H-M_alt    "P 1"
_space_group_IT_number       1

loop_
  _space_group_symop_operation_xyz
  'x, y, z'

loop_
  _atom_site_type_symbol
  _atom_site_label
  _atom_site_symmetry_multiplicity
  _atom_site_fract_x
  _atom_site_fract_y
  _atom_site_fract_z
  _atom_site_occupancy
  C   C1        1.0  0.9670728900000001  0.4689654249999999  0.5613217716453448  1.0000
  O   O1        1.0  0.9355706300000001  0.6174846849999999  0.5679042786605553  1.0000
  Re  Re1       1.0  0.9426354900000001  0.6588466249999999  0.5109337105194556  1.0000
  Re  Re2       1.0  0.43200203000000004  0.6666786049999999  0.5416962036210669  1.0000
  Re  Re3       1.0  0.19121911  0.6640288149999999  0.5272907197507626  1.0000
  Re  Re4       1.0  0.7030729200000001  0.6588466249999998  0.49578223633279284  1.0000
  Re  Re5       1.0  0.9426354900000001  0.17972148499999985  0.5109337105194556  1.0000
  Re  Re6       1.0  0.43946261999999997  0.20523147499999997  0.5414803296587879  1.0000
  Re  Re7       1.0  0.044931  0.3228178849999999  0.5474459449600754  1.0000
  Re  Re8       1.0  0.5329271099999999  0.33942986499999994  0.5166443314148278  1.0000
  Re  Re9       1.0  0.7807220800000001  0.32758381499999994  0.5325035330957337  1.0000
  Re  Re10      1.0  0.27248967999999996  0.3394298649999999  0.500172598228529  1.0000
  Re  Re11      1.0  0.051041619999999996  0.834195085  0.5476185849312449  1.0000
  Re  Re12      1.0  0.5329271099999999  0.8185550049999999  0.5166443314148277  1.0000
  Pd  Pd1       1.0  0.7715826000000001  0.8314645949999998  0.5328190922780999  1.0000
  Pd  Pd2       1.0  0.27944797  0.8324715750000001  0.5006126832968125  1.0000
  Pd  Pd3       1.0  0.19837961999999998  0.16907962499999998  0.5260883381728619  1.0000
  Pd  Pd4       1.0  0.69611463  0.16580491499999997  0.4953421474697238  1.0000
  Re  Re13      1.0  0.9426354900000001  0.6588466249999999  0.4476872843891761  1.0000
  Re  Re14      1.0  0.44263548999999996  0.6588466249999999  0.47931049935170844  1.0000
  Re  Re15      1.0  0.20307291999999996  0.6588466249999999  0.4641590213702604  1.0000
  Re  Re16      1.0  0.7030729200000001  0.6588466249999998  0.4325358102025134  1.0000
  Re  Re17      1.0  0.9426354900000001  0.17972148499999985  0.4476872843891761  1.0000
  Re  Re18      1.0  0.44263548999999996  0.17972148499999993  0.47931049935170855  1.0000
  Re  Re19      1.0  0.03292711  0.3394298649999999  0.48502112024708083  1.0000
  Re  Re20      1.0  0.5329271099999999  0.33942986499999994  0.4533979090793339  1.0000
  Re  Re21      1.0  0.77248968  0.33942986499999994  0.46854938326599654  1.0000
  Re  Re22      1.0  0.27248967999999996  0.3394298649999999  0.4369261720982496  1.0000
  Re  Re23      1.0  0.03292711  0.8185550049999999  0.48502112024708083  1.0000
  Re  Re24      1.0  0.5329271099999999  0.8185550049999999  0.4533979090793339  1.0000
  Pd  Pd5       1.0  0.7794479700000001  0.8324715749999999  0.4689894721290656  1.0000
  Pd  Pd6       1.0  0.27944797  0.8324715750000001  0.4373662571665331  1.0000
  Pd  Pd7       1.0  0.19611463  0.16580491499999991  0.46371893630197686  1.0000
  Pd  Pd8       1.0  0.69611463  0.16580491499999997  0.4320957213394444  1.0000
