data_image0
_chemical_formula_structural       COCa2Ge4Zn4Ca2Ge4Zn4
_chemical_formula_sum              "C1 O1 Ca4 Ge8 Zn8"
_cell_length_a       6.236981716390977
_cell_length_b       8.7628565
_cell_length_c       98.43052627
_cell_angle_alpha    90.0
_cell_angle_beta     90.32707243593438
_cell_angle_gamma    110.5635376298279

_space_group_name_H-M_alt    "P 1"
_space_group_IT_number       1

loop_
  _space_group_symop_operation_xyz
  'x, y, z'

loop_
  _atom_site_type_symbol
  _atom_site_label
  _atom_site_symmetry_multiplicity
  _atom_site_fract_x
  _atom_site_fract_y
  _atom_site_fract_z
  _atom_site_occupancy
  C   C1        1.0  0.32488022499999997  0.36847739499999993  0.5407623603230088  1.0000
  O   O1        1.0  0.339552215  0.32614500500000004  0.551821666152667  1.0000
  Ca  Ca1       1.0  0.29761797500000003  0.085198105  0.5024667675029763  1.0000
  Ca  Ca2       1.0  0.029366515000000003  0.035714285  0.4584939960563735  1.0000
  Ge  Ge1       1.0  0.252908435  0.42598775499999997  0.5224288964256681  1.0000
  Ge  Ge2       1.0  0.6654519849999999  0.436296275  0.5154080064030174  1.0000
  Ge  Ge3       1.0  0.970633485  0.271031025  0.48397756765932753  1.0000
  Ge  Ge4       1.0  0.373813835  0.371826115  0.47427306751281095  1.0000
  Zn  Zn1       1.0  0.8401224450000001  0.21715691500000003  0.5163276682099184  1.0000
  Zn  Zn2       1.0  0.743652235  0.46428571499999993  0.4894409797951097  1.0000
  Zn  Zn3       1.0  0.600795085  0.17857142499999998  0.46880965537702884  1.0000
  Zn  Zn4       1.0  0.4579379449999999  0.39285713499999997  0.44817833384733313  1.0000
  Ca  Ca3       1.0  0.32713498500000004  0.616614895  0.4970092852217468  1.0000
  Ca  Ca4       1.0  0.029366515000000003  0.535714285  0.4584939960563735  1.0000
  Ge  Ge5       1.0  0.288167695  0.7447151050000002  0.5274022044940609  1.0000
  Ge  Ge6       1.0  0.6688966949999999  0.9116892450000001  0.5157241921400709  1.0000
  Ge  Ge7       1.0  0.970633485  0.771031025  0.48397756765932753  1.0000
  Ge  Ge8       1.0  0.373813835  0.8718261150000001  0.47427306751281095  1.0000
  Zn  Zn5       1.0  0.917189415  0.7329293950000001  0.5135619210797622  1.0000
  Zn  Zn6       1.0  0.743652235  0.964285715  0.4894409797951097  1.0000
  Zn  Zn7       1.0  0.600795085  0.678571425  0.46880965537702884  1.0000
  Zn  Zn8       1.0  0.4579379449999999  0.892857135  0.44817833384733313  1.0000
