data_image0
_chemical_formula_structural       COCu8In4Ti4Cu8In4Ti4Cu8In4Ti4Cu8In4Ti4
_chemical_formula_sum              "C1 O1 Cu32 In16 Ti16"
_cell_length_a       8.94800928
_cell_length_b       8.94800928
_cell_length_c       107.96318828
_cell_angle_alpha    90.0
_cell_angle_beta     90.0
_cell_angle_gamma    90.0

_space_group_name_H-M_alt    "P 1"
_space_group_IT_number       1

loop_
  _space_group_symop_operation_xyz
  'x, y, z'

loop_
  _atom_site_type_symbol
  _atom_site_label
  _atom_site_symmetry_multiplicity
  _atom_site_fract_x
  _atom_site_fract_y
  _atom_site_fract_z
  _atom_site_occupancy
  C   C1        1.0  0.12160544  0.375852165  0.5554232098046908  1.0000
  O   O1        1.0  0.12160221  0.375836835  0.5661919715706506  1.0000
  Cu  Cu1       1.0  0.37160434000000003  0.125853545  0.507064455530016  1.0000
  Cu  Cu2       1.0  0.12160434  0.375853545  0.507064455530016  1.0000
  Cu  Cu3       1.0  0.12161518  0.375826325  0.5380957308614018  1.0000
  Cu  Cu4       1.0  0.38961837  0.12414644500000002  0.5360274698148968  1.0000
  Cu  Cu5       1.0  0.37160434000000003  0.125853545  0.44845931173969755  1.0000
  Cu  Cu6       1.0  0.12160434  0.375853545  0.44845931173969755  1.0000
  Cu  Cu7       1.0  0.12160434  0.375853545  0.4777618853930111  1.0000
  Cu  Cu8       1.0  0.37160434000000003  0.125853545  0.4777618853930111  1.0000
  In  In1       1.0  0.36481577000000004  0.375858075  0.5226072672282381  1.0000
  In  In2       1.0  0.12160434  0.125853545  0.49241316870335927  1.0000
  In  In3       1.0  0.37160434000000003  0.375853545  0.4631105985663544  1.0000
  In  In4       1.0  0.12160434  0.125853545  0.4338080284293494  1.0000
  Ti  Ti1       1.0  0.37160434000000003  0.375853545  0.49241316870335927  1.0000
  Ti  Ti2       1.0  0.12160386999999999  0.12604801499999999  0.5215909204355131  1.0000
  Ti  Ti3       1.0  0.37160434000000003  0.375853545  0.4338080284293494  1.0000
  Ti  Ti4       1.0  0.12160434  0.125853545  0.4631105985663544  1.0000
  Cu  Cu9       1.0  0.37160434000000003  0.625853545  0.507064455530016  1.0000
  Cu  Cu10      1.0  0.12160434  0.875853545  0.507064455530016  1.0000
  Cu  Cu11      1.0  0.12161323000000002  0.875855715  0.5361334021264877  1.0000
  Cu  Cu12      1.0  0.38962736000000003  0.627568695  0.5360283348268018  1.0000
  Cu  Cu13      1.0  0.37160434000000003  0.625853545  0.44845931173969755  1.0000
  Cu  Cu14      1.0  0.12160434  0.875853545  0.44845931173969755  1.0000
  Cu  Cu15      1.0  0.12160434  0.875853545  0.4777618853930111  1.0000
  Cu  Cu16      1.0  0.37160434000000003  0.625853545  0.4777618853930111  1.0000
  In  In5       1.0  0.3699954  0.8758525950000001  0.5222641774860141  1.0000
  In  In6       1.0  0.12160434  0.625853545  0.49241316870335927  1.0000
  In  In7       1.0  0.37160434000000003  0.875853545  0.4631105985663544  1.0000
  In  In8       1.0  0.12160434  0.625853545  0.4338080284293494  1.0000
  Ti  Ti5       1.0  0.37160434000000003  0.875853545  0.49241316870335927  1.0000
  Ti  Ti6       1.0  0.12160528999999999  0.625665945  0.5215912896479117  1.0000
  Ti  Ti7       1.0  0.37160434000000003  0.875853545  0.4338080284293494  1.0000
  Ti  Ti8       1.0  0.12160434  0.625853545  0.4631105985663544  1.0000
  Cu  Cu17      1.0  0.8716043400000001  0.125853545  0.507064455530016  1.0000
  Cu  Cu18      1.0  0.6216043400000001  0.375853545  0.507064455530016  1.0000
  Cu  Cu19      1.0  0.62160326  0.375853975  0.535611075588183  1.0000
  Cu  Cu20      1.0  0.8535774400000001  0.12414428500000001  0.5360272271896063  1.0000
  Cu  Cu21      1.0  0.8716043400000001  0.125853545  0.44845931173969755  1.0000
  Cu  Cu22      1.0  0.6216043400000001  0.375853545  0.44845931173969755  1.0000
  Cu  Cu23      1.0  0.6216043400000001  0.375853545  0.4777618853930111  1.0000
  Cu  Cu24      1.0  0.8716043400000001  0.125853545  0.4777618853930111  1.0000
  In  In9       1.0  0.8783977900000001  0.375857945  0.5226077454462019  1.0000
  In  In10      1.0  0.6216043400000001  0.125853545  0.49241316870335927  1.0000
  In  In11      1.0  0.8716043400000001  0.375853545  0.4631105985663544  1.0000
  In  In12      1.0  0.6216043400000001  0.125853545  0.4338080284293494  1.0000
  Ti  Ti9       1.0  0.8716043400000001  0.375853545  0.49241316870335927  1.0000
  Ti  Ti10      1.0  0.62160191  0.125734815  0.5210198543442984  1.0000
  Ti  Ti11      1.0  0.8716043400000001  0.375853545  0.4338080284293494  1.0000
  Ti  Ti12      1.0  0.6216043400000001  0.125853545  0.4631105985663544  1.0000
  Cu  Cu25      1.0  0.8716043400000001  0.625853545  0.507064455530016  1.0000
  Cu  Cu26      1.0  0.6216043400000001  0.875853545  0.507064455530016  1.0000
  Cu  Cu27      1.0  0.62160381  0.875845595  0.5357796896161127  1.0000
  Cu  Cu28      1.0  0.8535678  0.627567655  0.5360281765929168  1.0000
  Cu  Cu29      1.0  0.8716043400000001  0.625853545  0.44845931173969755  1.0000
  Cu  Cu30      1.0  0.6216043400000001  0.875853545  0.44845931173969755  1.0000
  Cu  Cu31      1.0  0.6216043400000001  0.875853545  0.4777618853930111  1.0000
  Cu  Cu32      1.0  0.8716043400000001  0.625853545  0.4777618853930111  1.0000
  In  In13      1.0  0.87321759  0.875852925  0.5222644728559328  1.0000
  In  In14      1.0  0.6216043400000001  0.625853545  0.49241316870335927  1.0000
  In  In15      1.0  0.8716043400000001  0.875853545  0.4631105985663544  1.0000
  In  In16      1.0  0.6216043400000001  0.625853545  0.4338080284293494  1.0000
  Ti  Ti13      1.0  0.8716043400000001  0.875853545  0.49241316870335927  1.0000
  Ti  Ti14      1.0  0.62159971  0.6259720650000001  0.5210201708120685  1.0000
  Ti  Ti15      1.0  0.8716043400000001  0.875853545  0.4338080284293494  1.0000
  Ti  Ti16      1.0  0.6216043400000001  0.625853545  0.4631105985663544  1.0000
