data_image0
_chemical_formula_structural       COCa8Ga8Pt8
_chemical_formula_sum              "C1 O1 Ca8 Ga8 Pt8"
_cell_length_a       8.916464378337754
_cell_length_b       7.23952395
_cell_length_c       105.6658575
_cell_angle_alpha    90.0
_cell_angle_beta     119.21282063450617
_cell_angle_gamma    90.0

_space_group_name_H-M_alt    "P 1"
_space_group_IT_number       1

loop_
  _space_group_symop_operation_xyz
  'x, y, z'

loop_
  _atom_site_type_symbol
  _atom_site_label
  _atom_site_symmetry_multiplicity
  _atom_site_fract_x
  _atom_site_fract_y
  _atom_site_fract_z
  _atom_site_occupancy
  C   C1        1.0  0.7798044  0.268981175  0.5346646943056854  1.0000
  O   O1        1.0  0.7055695799999999  0.254096955  0.5425282862773372  1.0000
  Ca  Ca1       1.0  0.97469234  0.989042905  0.48843544504008823  1.0000
  Ca  Ca2       1.0  0.4914070300000001  0.020569885000000006  0.5300105882925576  1.0000
  Ca  Ca3       1.0  0.02530766  0.010957095000000005  0.5242435842423554  1.0000
  Ca  Ca4       1.0  0.5362565599999999  0.011423465000000004  0.4832404334656641  1.0000
  Ca  Ca5       1.0  0.03625656  0.489042905  0.48324043346566414  1.0000
  Ca  Ca6       1.0  0.5154621  0.49746610500000005  0.5255096654976632  1.0000
  Ca  Ca7       1.0  0.96983397  0.495362695  0.5294881391100221  1.0000
  Ca  Ca8       1.0  0.47469234000000005  0.511423465  0.48843544504008823  1.0000
  Ga  Ga1       1.0  0.66721895  0.822625775  0.514285216908763  1.0000
  Ga  Ga2       1.0  0.1693164  0.8338642350000001  0.47201236650843337  1.0000
  Ga  Ga3       1.0  0.3416325  0.16660213499999998  0.4996635086219754  1.0000
  Ga  Ga4       1.0  0.8416325  0.16660213499999998  0.45747171372266277  1.0000
  Ga  Ga5       1.0  0.8416325  0.333864235  0.4996635086219754  1.0000
  Ga  Ga6       1.0  0.3416325  0.333864235  0.4574717137226627  1.0000
  Ga  Ga7       1.0  0.16300419  0.664416005  0.5142115432841816  1.0000
  Ga  Ga8       1.0  0.6693164  0.6666021349999999  0.47201236650843337  1.0000
  Pt  Pt1       1.0  0.82832695  0.7066718249999999  0.5009460581786682  1.0000
  Pt  Pt2       1.0  0.32969818  0.704128655  0.4584787778614118  1.0000
  Pt  Pt3       1.0  0.17928832000000003  0.29650732500000004  0.5134228132456775  1.0000
  Pt  Pt4       1.0  0.68125072  0.29633771500000006  0.4710053057450279  1.0000
  Pt  Pt5       1.0  0.6846936  0.190020365  0.5140725837638449  1.0000
  Pt  Pt6       1.0  0.18125072  0.20412865500000002  0.4710053057450278  1.0000
  Pt  Pt7       1.0  0.32588374000000003  0.793774065  0.5011623299439785  1.0000
  Pt  Pt8       1.0  0.8296981800000001  0.7963377150000001  0.45847877786141183  1.0000
