data_image0
_chemical_formula_structural       COCa6Zn12Si12Ca6Zn12Si12
_chemical_formula_sum              "C1 O1 Ca12 Zn24 Si24"
_cell_length_a       9.599801049217035
_cell_length_b       11.137150023436059
_cell_length_c       106.42868369
_cell_angle_alpha    105.81763203965095
_cell_angle_beta     71.56505117707799
_cell_angle_gamma    80.07305154217725

_space_group_name_H-M_alt    "P 1"
_space_group_IT_number       1

loop_
  _space_group_symop_operation_xyz
  'x, y, z'

loop_
  _atom_site_type_symbol
  _atom_site_label
  _atom_site_symmetry_multiplicity
  _atom_site_fract_x
  _atom_site_fract_y
  _atom_site_fract_z
  _atom_site_occupancy
  C   C1        1.0  0.826771095  0.241513835  0.5591710455698768  1.0000
  O   O1        1.0  0.7474013949999999  0.31680256500000004  0.5702890338764576  1.0000
  Ca  Ca1       1.0  0.019236234999999928  0.046653525  0.48236857627673696  1.0000
  Ca  Ca2       1.0  0.3525695649999999  0.046653525  0.44433717966166164  1.0000
  Ca  Ca3       1.0  0.685902905  0.046653525  0.46335287625778643  1.0000
  Ca  Ca4       1.0  0.8525695649999999  0.546653525  0.4728607262672617  1.0000
  Ca  Ca5       1.0  0.18590290499999992  0.546653525  0.4348293296521863  1.0000
  Ca  Ca6       1.0  0.5192362349999999  0.546653525  0.4538450262483112  1.0000
  Zn  Zn1       1.0  0.7692362349999999  0.296653525  0.4538450262483111  1.0000
  Zn  Zn2       1.0  0.10256956499999993  0.296653525  0.47286072626726167  1.0000
  Zn  Zn3       1.0  0.435902905  0.296653525  0.4348293296521863  1.0000
  Zn  Zn4       1.0  0.10256956499999993  0.296653525  0.4443371796616616  1.0000
  Zn  Zn5       1.0  0.435902905  0.296653525  0.4633528762577864  1.0000
  Zn  Zn6       1.0  0.7692362349999999  0.296653525  0.4823685762767369  1.0000
  Zn  Zn7       1.0  0.9359029050000001  0.7966535249999999  0.46335287625778643  1.0000
  Zn  Zn8       1.0  0.269236235  0.7966535249999999  0.48236857627673696  1.0000
  Zn  Zn9       1.0  0.6025695649999999  0.7966535249999999  0.44433717966166164  1.0000
  Zn  Zn10      1.0  0.6025695649999999  0.7966535249999999  0.4728607262672617  1.0000
  Zn  Zn11      1.0  0.9359029050000001  0.7966535249999999  0.43482932965218635  1.0000
  Zn  Zn12      1.0  0.269236235  0.7966535249999999  0.4538450262483111  1.0000
  Si  Si1       1.0  0.980763765  0.16207094500000002  0.4582345127291427  1.0000
  Si  Si2       1.0  0.31409709499999994  0.16207094500000002  0.4772502127480932  1.0000
  Si  Si3       1.0  0.6474304249999999  0.16207094500000002  0.4392188161330178  1.0000
  Si  Si4       1.0  0.8910420450000001  0.43123610500000004  0.43994769318083005  1.0000
  Si  Si5       1.0  0.22437537499999993  0.43123610500000004  0.45896338977695483  1.0000
  Si  Si6       1.0  0.5577087049999999  0.43123610500000004  0.47797908979590537  1.0000
  Si  Si7       1.0  0.8140970949999999  0.6620709450000001  0.4487266627196674  1.0000
  Si  Si8       1.0  0.14743042499999992  0.6620709450000001  0.46774236273861797  1.0000
  Si  Si9       1.0  0.48076376499999984  0.6620709450000001  0.42971096612354254  1.0000
  Si  Si10      1.0  0.7243753749999999  0.9312361050000001  0.43043984317135475  1.0000
  Si  Si11      1.0  0.057708704999999916  0.9312361050000001  0.4494555431903053  1.0000
  Si  Si12      1.0  0.3910420449999999  0.9312361050000001  0.4684712397864301  1.0000
  Ca  Ca7       1.0  0.03396165499999993  0.055307355  0.536825733634435  1.0000
  Ca  Ca8       1.0  0.3525695649999999  0.046653525  0.5013842728728618  1.0000
  Ca  Ca9       1.0  0.669371225  0.07156656500000001  0.5209950756416353  1.0000
  Ca  Ca10      1.0  0.8548548149999999  0.561477075  0.5289835161956191  1.0000
  Ca  Ca11      1.0  0.18590290499999992  0.546653525  0.49187642286338656  1.0000
  Ca  Ca12      1.0  0.5253998350000001  0.539330675  0.5104373012222155  1.0000
  Zn  Zn13      1.0  0.761502355  0.302430175  0.5114818038762042  1.0000
  Zn  Zn14      1.0  0.08380292499999992  0.310087195  0.5304621632194969  1.0000
  Zn  Zn15      1.0  0.435902905  0.296653525  0.49187642286338645  1.0000
  Zn  Zn16      1.0  0.10256956499999993  0.296653525  0.5013842728728617  1.0000
  Zn  Zn17      1.0  0.42537626499999986  0.326887705  0.524315490425391  1.0000
  Zn  Zn18      1.0  0.7860163750000001  0.321520425  0.5378410053566931  1.0000
  Zn  Zn19      1.0  0.9062609049999998  0.8158287049999999  0.5226166359082004  1.0000
  Zn  Zn20      1.0  0.3090432449999998  0.7808946150000001  0.5364922408779501  1.0000
  Zn  Zn21      1.0  0.6025695649999999  0.7966535249999999  0.5013842728728618  1.0000
  Zn  Zn22      1.0  0.601198655  0.811685585  0.5293916162845317  1.0000
  Zn  Zn23      1.0  0.9359029050000001  0.7966535249999999  0.49187642286338656  1.0000
  Zn  Zn24      1.0  0.27507708499999994  0.797875315  0.5105738240492658  1.0000
  Si  Si13      1.0  0.9799078149999999  0.158425805  0.5141837722386615  1.0000
  Si  Si14      1.0  0.29649570499999994  0.17950259500000001  0.5340171202907211  1.0000
  Si  Si15      1.0  0.6474304249999999  0.16207094500000002  0.496265909344218  1.0000
  Si  Si16      1.0  0.8910420450000001  0.43123610500000004  0.4969947863920302  1.0000
  Si  Si17      1.0  0.2187542949999999  0.44358352500000003  0.5174063660858915  1.0000
  Si  Si18      1.0  0.5703145649999998  0.453164205  0.5359019095471942  1.0000
  Si  Si19      1.0  0.8140970949999999  0.6620709450000001  0.5057737593536933  1.0000
  Si  Si20      1.0  0.1418110449999999  0.6795081450000001  0.5256056766645979  1.0000
  Si  Si21      1.0  0.48076376499999984  0.6620709450000001  0.4867580593347428  1.0000
  Si  Si22      1.0  0.7243753749999999  0.9312361050000001  0.48748693980538077  1.0000
  Si  Si23      1.0  0.057708704999999916  0.9312361050000001  0.5065026364015055  1.0000
  Si  Si24      1.0  0.38616834499999997  0.953346475  0.5263096697693561  1.0000
