data_image0
_chemical_formula_structural       COCa2Cu10Ca2Cu10
_chemical_formula_sum              "C1 O1 Ca4 Cu20"
_cell_length_a       5.19908864
_cell_length_b       11.177241295442435
_cell_length_c       102.79866552
_cell_angle_alpha    68.48148399376852
_cell_angle_beta     90.0
_cell_angle_gamma    62.28009959138831

_space_group_name_H-M_alt    "P 1"
_space_group_IT_number       1

loop_
  _space_group_symop_operation_xyz
  'x, y, z'

loop_
  _atom_site_type_symbol
  _atom_site_label
  _atom_site_symmetry_multiplicity
  _atom_site_fract_x
  _atom_site_fract_y
  _atom_site_fract_z
  _atom_site_occupancy
  C   C1        1.0  0.810291905  0.6319869100000001  0.5338139136856064  1.0000
  O   O1        1.0  0.9152499650000001  0.5726073700000001  0.5461927150867847  1.0000
  Ca  Ca1       1.0  0.0847500349999998  0.5672275700000001  0.4637778257983066  1.0000
  Ca  Ca2       1.0  0.08475003499999992  0.06722757000000003  0.4837189075684895  1.0000
  Cu  Cu1       1.0  0.751416705  0.40056090000000005  0.47042485199150985  1.0000
  Cu  Cu2       1.0  0.7514167049999998  0.9005609  0.4903659337616927  1.0000
  Cu  Cu3       1.0  0.4180833649999998  0.23389424000000003  0.4770718781847132  1.0000
  Cu  Cu4       1.0  0.418083365  0.73389424  0.4571307964145303  1.0000
  Cu  Cu5       1.0  0.08475003499999996  0.31722757  0.4538072849132152  1.0000
  Cu  Cu6       1.0  0.08475003499999996  0.8172275700000001  0.4737483666833981  1.0000
  Cu  Cu7       1.0  0.5847500350000001  0.31722757  0.4538072849132152  1.0000
  Cu  Cu8       1.0  0.5847500349999999  0.8172275700000001  0.4737483666833981  1.0000
  Cu  Cu9       1.0  0.5847500349999999  0.5672275700000001  0.4837189075684895  1.0000
  Cu  Cu10      1.0  0.5847500349999999  0.06722757000000003  0.4637778257983066  1.0000
  Ca  Ca3       1.0  0.09272694499999992  0.56597593  0.5036998715022127  1.0000
  Ca  Ca4       1.0  0.09289496499999991  0.07031957000000003  0.5225057920374059  1.0000
  Cu  Cu11      1.0  0.755993045  0.39954985000000004  0.5104487280259403  1.0000
  Cu  Cu12      1.0  0.7349979350000001  0.93277243  0.5289231448272128  1.0000
  Cu  Cu13      1.0  0.4311264449999999  0.22864445000000003  0.5170083069920784  1.0000
  Cu  Cu14      1.0  0.418083365  0.73389424  0.497012959954896  1.0000
  Cu  Cu15      1.0  0.08475003499999996  0.31722757  0.4936894484535809  1.0000
  Cu  Cu16      1.0  0.09149976499999979  0.8270103200000001  0.5131986478700717  1.0000
  Cu  Cu17      1.0  0.5847500350000001  0.31722757  0.4936894484535809  1.0000
  Cu  Cu18      1.0  0.6095982749999999  0.81075436  0.5152373666399398  1.0000
  Cu  Cu19      1.0  0.6129057249999997  0.5706021800000001  0.5223536687033705  1.0000
  Cu  Cu20      1.0  0.5815452349999999  0.06749543000000002  0.5031332703906544  1.0000
