data_image0
_chemical_formula_structural       COCa4Al4Si4Ca4Al4Si4
_chemical_formula_sum              "C1 O1 Ca8 Al8 Si8"
_cell_length_a       7.34580039
_cell_length_b       9.801474805070756
_cell_length_c       99.68769884
_cell_angle_alpha    102.4947459547951
_cell_angle_beta     90.0
_cell_angle_gamma    67.99241451567327

_space_group_name_H-M_alt    "P 1"
_space_group_IT_number       1

loop_
  _space_group_symop_operation_xyz
  'x, y, z'

loop_
  _atom_site_type_symbol
  _atom_site_label
  _atom_site_symmetry_multiplicity
  _atom_site_fract_x
  _atom_site_fract_y
  _atom_site_fract_z
  _atom_site_occupancy
  C   C1        1.0  0.87746512  0.2758674200000001  0.5339265461588106  1.0000
  O   O1        1.0  0.9074592899999999  0.22732727000000003  0.5448631345853155  1.0000
  Ca  Ca1       1.0  0.7689136399999998  0.532215  0.46045484747899695  1.0000
  Ca  Ca2       1.0  0.018913639999999957  0.03221500000000004  0.4923627458210135  1.0000
  Ca  Ca3       1.0  0.51891364  0.03221500000000004  0.4710908145856926  1.0000
  Ca  Ca4       1.0  0.26891363999999995  0.532215  0.4817267787143179  1.0000
  Al  Al1       1.0  0.47724696999999994  0.782215  0.48704476375670097  1.0000
  Al  Al2       1.0  0.7272469699999999  0.28221500000000005  0.47640879665000524  1.0000
  Al  Al3       1.0  0.22724696999999996  0.28221500000000005  0.45513686541468434  1.0000
  Al  Al4       1.0  0.9772469699999999  0.782215  0.4657728295433096  1.0000
  Si  Si1       1.0  0.8105803100000002  0.782215  0.48704476375670097  1.0000
  Si  Si2       1.0  0.06058030999999994  0.28221500000000005  0.47640879665000524  1.0000
  Si  Si3       1.0  0.56058031  0.28221500000000005  0.45513686541468434  1.0000
  Si  Si4       1.0  0.31058030999999997  0.782215  0.4657728295433096  1.0000
  Ca  Ca5       1.0  0.7821266  0.53229418  0.5010700460199982  1.0000
  Ca  Ca6       1.0  0.06067630000000011  0.9759396999999999  0.5356642472781076  1.0000
  Ca  Ca7       1.0  0.51840452  0.024060300000000038  0.5133266641657116  1.0000
  Ca  Ca8       1.0  0.21731371  0.5394413299999999  0.5254113821299199  1.0000
  Al  Al5       1.0  0.51755516  0.7103350099999999  0.5299958952274105  1.0000
  Al  Al6       1.0  0.6852278599999999  0.37718066000000006  0.5214435916821561  1.0000
  Al  Al7       1.0  0.22724696999999996  0.28221500000000005  0.49768072788532614  1.0000
  Al  Al8       1.0  0.98108636  0.7744099099999999  0.5082843263444909  1.0000
  Si  Si5       1.0  0.8016166499999999  0.7936352999999999  0.529785956152271  1.0000
  Si  Si6       1.0  0.059663999999999974  0.27363878  0.5192454540713598  1.0000
  Si  Si7       1.0  0.56058031  0.28221500000000005  0.49768072788532614  1.0000
  Si  Si8       1.0  0.32220256  0.7738211499999998  0.5089492520422383  1.0000
