data_image0
_chemical_formula_structural       COCr6Mn3Se12
_chemical_formula_sum              "C1 O1 Cr6 Mn3 Se12"
_cell_length_a       6.711242065208018
_cell_length_b       6.7357048219400735
_cell_length_c       100.87774917
_cell_angle_alpha    93.35360534314874
_cell_angle_beta     93.54807533896764
_cell_angle_gamma    116.39507400636109

_space_group_name_H-M_alt    "P 1"
_space_group_IT_number       1

loop_
  _space_group_symop_operation_xyz
  'x, y, z'

loop_
  _atom_site_type_symbol
  _atom_site_label
  _atom_site_symmetry_multiplicity
  _atom_site_fract_x
  _atom_site_fract_y
  _atom_site_fract_z
  _atom_site_occupancy
  C   C1        1.0  0.5020955099999999  0.312128545  0.5462061590336234  1.0000
  O   O1        1.0  0.4509749699999999  0.252606525  0.5564429367238309  1.0000
  Cr  Cr1       1.0  0.042994969999999966  0.558462055  0.5118981512211913  1.0000
  Cr  Cr2       1.0  0.6291594199999998  0.156322605  0.512941253511263  1.0000
  Cr  Cr3       1.0  0.27037516999999994  0.7646401450000001  0.4841468773276139  1.0000
  Cr  Cr4       1.0  0.7751795099999998  0.30607956500000005  0.48503155315053204  1.0000
  Cr  Cr5       1.0  0.47037516999999984  0.964640145  0.4535377990878085  1.0000
  Cr  Cr6       1.0  0.9751795099999999  0.5060795650000001  0.45442247491072657  1.0000
  Mn  Mn1       1.0  0.8383016899999999  0.8835390150000001  0.5125164546016353  1.0000
  Mn  Mn2       1.0  0.022777339999999948  0.03535985500000003  0.484589215239073  1.0000
  Mn  Mn3       1.0  0.22277733999999993  0.23535985500000006  0.4539801369992675  1.0000
  Se  Se1       1.0  0.6740064499999999  0.49278049500000004  0.5044362211533663  1.0000
  Se  Se2       1.0  0.9772226599999999  0.25444102500000004  0.5254404124532389  1.0000
  Se  Se3       1.0  0.49208255999999984  0.8111885950000001  0.5244358898453806  1.0000
  Se  Se4       1.0  0.19836579999999987  0.9600601449999999  0.506068918569401  1.0000
  Se  Se5       1.0  0.8882203999999998  0.6440919949999999  0.47452983246180425  1.0000
  Se  Se6       1.0  0.15733427999999997  0.4266277150000001  0.4946485980163418  1.0000
  Se  Se7       1.0  0.6580173799999998  0.944955475  0.4950122889621714  1.0000
  Se  Se8       1.0  0.38753729999999986  0.12576423500000003  0.4741661415159745  1.0000
  Se  Se9       1.0  0.0882203999999999  0.844091995  0.4439207542219988  1.0000
  Se  Se10      1.0  0.3573342799999999  0.626627715  0.46403951977653635  1.0000
  Se  Se11      1.0  0.8580173799999997  0.14495547500000003  0.464403210722366  1.0000
  Se  Se12      1.0  0.5875372999999998  0.325764235  0.44355706327616906  1.0000
