data_image0
_chemical_formula_structural       COCa40Zn24
_chemical_formula_sum              "C1 O1 Ca40 Zn24"
_cell_length_a       11.33822054
_cell_length_b       17.477171033844456
_cell_length_c       104.01466160999999
_cell_angle_alpha    108.9275506808825
_cell_angle_beta     90.0
_cell_angle_gamma    71.0724493191175

_space_group_name_H-M_alt    "P 1"
_space_group_IT_number       1

loop_
  _space_group_symop_operation_xyz
  'x, y, z'

loop_
  _atom_site_type_symbol
  _atom_site_label
  _atom_site_symmetry_multiplicity
  _atom_site_fract_x
  _atom_site_fract_y
  _atom_site_fract_z
  _atom_site_occupancy
  C   C1        1.0  0.19824988499999993  0.1186822  0.5451116604676391  1.0000
  O   O1        1.0  0.1669989749999999  0.17939676000000004  0.5557563662277374  1.0000
  Ca  Ca1       1.0  0.7505189350000002  0.5187854799999999  0.5186941332852094  1.0000
  Ca  Ca2       1.0  0.25300469499999995  0.5080458800000001  0.4634780939141704  1.0000
  Ca  Ca3       1.0  0.753004695  0.5080458800000001  0.4634780939141704  1.0000
  Ca  Ca4       1.0  0.24484757500000004  0.5189140499999999  0.5187285617351882  1.0000
  Ca  Ca5       1.0  0.43038782500000006  0.6533888499999999  0.515723561073143  1.0000
  Ca  Ca6       1.0  0.9294579350000001  0.65513939  0.4628230344441284  1.0000
  Ca  Ca7       1.0  0.5999017950000001  0.65513939  0.4442436337722625  1.0000
  Ca  Ca8       1.0  0.09990179499999999  0.65513939  0.4987466268500241  1.0000
  Ca  Ca9       1.0  0.759014085  0.65513939  0.4987466268500241  1.0000
  Ca  Ca10      1.0  0.259014085  0.65513939  0.4442436337722625  1.0000
  Ca  Ca11      1.0  0.6561075950000003  0.8609523699999999  0.45546105588210767  1.0000
  Ca  Ca12      1.0  0.156107595  0.8609523699999999  0.5099640489598692  1.0000
  Ca  Ca13      1.0  0.49699530500000016  0.8609523699999999  0.5099640489598692  1.0000
  Ca  Ca14      1.0  0.9969953049999999  0.8609523699999999  0.45546105588210767  1.0000
  Ca  Ca15      1.0  0.832500655  0.84945966  0.5258755913974078  1.0000
  Ca  Ca16      1.0  0.32655145500000016  0.8609523699999999  0.47404045655397364  1.0000
  Ca  Ca17      1.0  0.33522427500000007  0.8439329  0.5438324414538328  1.0000
  Ca  Ca18      1.0  0.8265514550000003  0.8609523699999999  0.4913846482880033  1.0000
  Ca  Ca19      1.0  0.926912365  0.6599451300000001  0.5359282802082365  1.0000
  Ca  Ca20      1.0  0.42945793500000007  0.65513939  0.48016722617815816  1.0000
  Ca  Ca21      1.0  0.009676404999999973  0.9870966699999999  0.5451194075229203  1.0000
  Ca  Ca22      1.0  0.5030046949999999  0.008045880000000009  0.49072958881796136  1.0000
  Ca  Ca23      1.0  0.0030046949999999635  0.008045880000000009  0.49072958881796136  1.0000
  Ca  Ca24      1.0  0.5178111850000001  0.9870799499999999  0.5451199896148748  1.0000
  Ca  Ca25      1.0  0.17945793499999996  0.15513939000000002  0.49007452934791945  1.0000
  Ca  Ca26      1.0  0.680964325  0.15226703  0.5427871678126549  1.0000
  Ca  Ca27      1.0  0.849901795  0.15513939000000002  0.47149512867605353  1.0000
  Ca  Ca28      1.0  0.3554436749999999  0.14269550000000003  0.5259745339489427  1.0000
  Ca  Ca29      1.0  0.01637117499999996  0.14296136000000004  0.525998945839054  1.0000
  Ca  Ca30      1.0  0.5090140849999999  0.15513939000000002  0.47149512867605353  1.0000
  Ca  Ca31      1.0  0.906107595  0.36095237  0.48271255078589875  1.0000
  Ca  Ca32      1.0  0.4064760249999999  0.35903314000000003  0.5353042874436275  1.0000
  Ca  Ca33      1.0  0.7480768250000001  0.35886343000000004  0.5353143465158288  1.0000
  Ca  Ca34      1.0  0.24699530499999992  0.36095237  0.48271255078589875  1.0000
  Ca  Ca35      1.0  0.576551455  0.36095237  0.5012919514577646  1.0000
  Ca  Ca36      1.0  0.07655145499999998  0.36095237  0.4467889616501825  1.0000
  Ca  Ca37      1.0  0.07742709499999996  0.35891837  0.5187550959718076  1.0000
  Ca  Ca38      1.0  0.576551455  0.36095237  0.4641331533842123  1.0000
  Ca  Ca39      1.0  0.679457935  0.15513939000000002  0.5074187210819492  1.0000
  Ca  Ca40      1.0  0.17945793499999996  0.15513939000000002  0.45291572800418767  1.0000
  Zn  Zn1       1.0  0.628695865  0.76050367  0.5302561571022559  1.0000
  Zn  Zn2       1.0  0.12800469499999995  0.75804588  0.4771038397309761  1.0000
  Zn  Zn3       1.0  0.628004695  0.75804588  0.4771038397309761  1.0000
  Zn  Zn4       1.0  0.12567363499999998  0.7604019399999999  0.5302039977389236  1.0000
  Zn  Zn5       1.0  0.505197375  0.5045493200000001  0.5306209031152959  1.0000
  Zn  Zn6       1.0  0.003004694999999926  0.5080458800000001  0.47794256229335835  1.0000
  Zn  Zn7       1.0  0.13569897499999997  0.008045880000000009  0.4634780939141704  1.0000
  Zn  Zn8       1.0  0.635374275  0.004178100000000009  0.51845808518715  1.0000
  Zn  Zn9       1.0  0.8756287550000003  0.00434203000000001  0.5184759403673251  1.0000
  Zn  Zn10      1.0  0.37031041499999995  0.008045880000000009  0.4634780939141704  1.0000
  Zn  Zn11      1.0  0.003004694999999926  0.5080458800000001  0.5035166153425643  1.0000
  Zn  Zn12      1.0  0.5030046949999999  0.5080458800000001  0.44901362226480285  1.0000
  Zn  Zn13      1.0  0.8780046950000001  0.25804588  0.4498523448271851  1.0000
  Zn  Zn14      1.0  0.378004695  0.25804588  0.5043553379049467  1.0000
  Zn  Zn15      1.0  0.8780046950000001  0.25804588  0.5043553379049467  1.0000
  Zn  Zn16      1.0  0.378004695  0.25804588  0.4498523448271851  1.0000
  Zn  Zn17      1.0  0.25300469499999995  0.008045880000000009  0.505194060467329  1.0000
  Zn  Zn18      1.0  0.753004695  0.008045880000000009  0.45069106738956743  1.0000
  Zn  Zn19      1.0  0.8919652550000002  0.49903308  0.5442091563239132  1.0000
  Zn  Zn20      1.0  0.38569897499999994  0.5080458800000001  0.49072958881796136  1.0000
  Zn  Zn21      1.0  0.620310415  0.5080458800000001  0.49072958881796136  1.0000
  Zn  Zn22      1.0  0.12202789499999991  0.49912995  0.5442158471112097  1.0000
  Zn  Zn23      1.0  0.753004695  0.008045880000000009  0.4762651171685939  1.0000
  Zn  Zn24      1.0  0.25916846500000007  0.9958218999999999  0.5319907616948376  1.0000
