data_image0
_chemical_formula_structural       COCa12Ga12Pt12
_chemical_formula_sum              "C1 O1 Ca12 Ga12 Pt12"
_cell_length_a       11.56777345605351
_cell_length_b       7.69107717
_cell_length_c       104.1201116
_cell_angle_alpha    90.0
_cell_angle_beta     96.81522977498527
_cell_angle_gamma    90.0

_space_group_name_H-M_alt    "P 1"
_space_group_IT_number       1

loop_
  _space_group_symop_operation_xyz
  'x, y, z'

loop_
  _atom_site_type_symbol
  _atom_site_label
  _atom_site_symmetry_multiplicity
  _atom_site_fract_x
  _atom_site_fract_y
  _atom_site_fract_z
  _atom_site_occupancy
  C   C1        1.0  0.80654804  0.5868307949999998  0.5396741937326137  1.0000
  O   O1        1.0  0.84152114  0.5365146749999999  0.550094258851084  1.0000
  Ca  Ca1       1.0  0.2541253  0.316403695  0.47408478878563337  1.0000
  Ca  Ca2       1.0  0.9332849599999999  0.30403609500000006  0.528296161302078  1.0000
  Ca  Ca3       1.0  0.5874893899999999  0.312969985  0.5004541800786324  1.0000
  Ca  Ca4       1.0  0.4133317799999999  0.6932752549999999  0.4889612856859538  1.0000
  Ca  Ca5       1.0  0.07999844999999998  0.6932752549999999  0.4616529926395255  1.0000
  Ca  Ca6       1.0  0.74369778  0.687988325  0.5163929838212635  1.0000
  Ca  Ca7       1.0  0.4381284799999999  0.21132696499999998  0.5281610770019596  1.0000
  Ca  Ca8       1.0  0.08583256999999998  0.19363788499999998  0.5003402389521677  1.0000
  Ca  Ca9       1.0  0.7541253  0.19327525499999998  0.47408478878563337  1.0000
  Ca  Ca10      1.0  0.24380054999999998  0.8147791949999998  0.5159725617096796  1.0000
  Ca  Ca11      1.0  0.9133317799999998  0.8164036949999999  0.4889612856859538  1.0000
  Ca  Ca12      1.0  0.5799984499999999  0.8164036949999999  0.46165299263952536  1.0000
  Ga  Ga1       1.0  0.30585153  0.9271555849999998  0.4656094598029561  1.0000
  Ga  Ga2       1.0  0.97536388  0.910355685  0.5191183002367187  1.0000
  Ga  Ga3       1.0  0.6391848599999999  0.9271555849999998  0.49291775284938444  1.0000
  Ga  Ga4       1.0  0.36160555999999994  0.08252336500000002  0.49743661466863115  1.0000
  Ga  Ga5       1.0  0.028272229999999975  0.08252336500000002  0.47012832162220275  1.0000
  Ga  Ga6       1.0  0.6934035599999999  0.07284441500000001  0.5234501963663104  1.0000
  Ga  Ga7       1.0  0.47844733999999994  0.5996814049999999  0.5188576447538278  1.0000
  Ga  Ga8       1.0  0.13918485999999997  0.5825233649999999  0.49291775284938455  1.0000
  Ga  Ga9       1.0  0.80585153  0.5825233649999999  0.46560945980295604  1.0000
  Ga  Ga10      1.0  0.19117127999999994  0.425506565  0.5234161778781358  1.0000
  Ga  Ga11      1.0  0.8616055599999999  0.427155585  0.4974366146686311  1.0000
  Ga  Ga12      1.0  0.52827223  0.427155585  0.47012832162220275  1.0000
  Pt  Pt1       1.0  0.3490967199999999  0.606392015  0.45852374395281903  1.0000
  Pt  Pt2       1.0  0.014972969999999978  0.5981941049999998  0.5133010404490143  1.0000
  Pt  Pt3       1.0  0.68243005  0.606392015  0.4858320369992474  1.0000
  Pt  Pt4       1.0  0.32409177  0.403213455  0.505572453492566  1.0000
  Pt  Pt5       1.0  0.98502703  0.40328693499999996  0.4772140341953445  1.0000
  Pt  Pt6       1.0  0.6516936999999998  0.40328693499999996  0.44990574114891607  1.0000
  Pt  Pt7       1.0  0.51104005  0.9123815249999999  0.5135746105703691  1.0000
  Pt  Pt8       1.0  0.18243004999999998  0.9032869349999999  0.4858320369992475  1.0000
  Pt  Pt9       1.0  0.84909672  0.9032869349999999  0.458523743952819  1.0000
  Pt  Pt10      1.0  0.15169369999999996  0.10639201499999999  0.4499057411489162  1.0000
  Pt  Pt11      1.0  0.82392915  0.10749731500000001  0.5053004923759016  1.0000
  Pt  Pt12      1.0  0.48502702999999986  0.10639201499999999  0.4772140341953445  1.0000
