data_image0
_chemical_formula_structural       CONa8Ca2Sn12
_chemical_formula_sum              "C1 O1 Na8 Ca2 Sn12"
_cell_length_a       10.265303304025087
_cell_length_b       7.31777272
_cell_length_c       111.06121322999999
_cell_angle_alpha    90.0
_cell_angle_beta     119.99999998702923
_cell_angle_gamma    90.0

_space_group_name_H-M_alt    "P 1"
_space_group_IT_number       1

loop_
  _space_group_symop_operation_xyz
  'x, y, z'

loop_
  _atom_site_type_symbol
  _atom_site_label
  _atom_site_symmetry_multiplicity
  _atom_site_fract_x
  _atom_site_fract_y
  _atom_site_fract_z
  _atom_site_occupancy
  C   C1        1.0  0.17564589000000003  0.5313571599999999  0.5441785063959677  1.0000
  O   O1        1.0  0.21706616  0.39456421999999997  0.5509935507307615  1.0000
  Na  Na1       1.0  0.50185703  0.75  0.48337382867294015  1.0000
  Na  Na2       1.0  0.12379479000000003  0.75  0.48337382867294026  1.0000
  Na  Na3       1.0  0.58314887  0.24999999999999997  0.4758600858481018  1.0000
  Na  Na4       1.0  0.5567093900000001  0.24335045999999994  0.5285268534965802  1.0000
  Na  Na5       1.0  0.37583628  0.24999999999999997  0.49502182779168297  1.0000
  Na  Na6       1.0  0.4843361700000001  0.75048276  0.5148344860064447  1.0000
  Na  Na7       1.0  0.7091696200000001  0.75  0.46421208303218964  1.0000
  Na  Na8       1.0  0.9612111099999999  0.24999999999999997  0.47586008584810185  1.0000
  Ca  Ca1       1.0  0.038788890000000034  0.75148755  0.5244436329307167  1.0000
  Ca  Ca2       1.0  0.04818524000000003  0.25400357999999995  0.526162476617468  1.0000
  Sn  Sn1       1.0  0.21074244000000006  0.45808615999999996  0.511597569726503  1.0000
  Sn  Sn2       1.0  0.21225335  0.041955249999999965  0.5120019069737819  1.0000
  Sn  Sn3       1.0  0.72706168  0.45754577999999996  0.5119714903601489  1.0000
  Sn  Sn4       1.0  0.8736807099999999  0.96120872  0.4946233542552612  1.0000
  Sn  Sn5       1.0  0.8736807099999999  0.5387912799999999  0.44900644926923855  1.0000
  Sn  Sn6       1.0  0.38014743000000006  0.5387912799999999  0.4490064492692385  1.0000
  Sn  Sn7       1.0  0.38014743000000006  0.96120872  0.4490064492692385  1.0000
  Sn  Sn8       1.0  0.72988277  0.04194600999999997  0.5125973841880247  1.0000
  Sn  Sn9       1.0  0.8736807099999999  0.96120872  0.44900644926923855  1.0000
  Sn  Sn10      1.0  0.21132519000000002  0.03879127999999996  0.4646105602657807  1.0000
  Sn  Sn11      1.0  0.8736807099999999  0.5387912799999999  0.4946233542552612  1.0000
  Sn  Sn12      1.0  0.21132519000000002  0.46120871999999996  0.4646105602657807  1.0000
