data_image0
_chemical_formula_structural       COCa12Cu12Ge12Ca12Cu12Ge12
_chemical_formula_sum              "C1 O1 Ca24 Cu24 Ge24"
_cell_length_a       8.86407016
_cell_length_b       22.965602963695886
_cell_length_c       100.43396007999999
_cell_angle_alpha    109.34766154095945
_cell_angle_beta     90.0
_cell_angle_gamma    90.0

_space_group_name_H-M_alt    "P 1"
_space_group_IT_number       1

loop_
  _space_group_symop_operation_xyz
  'x, y, z'

loop_
  _atom_site_type_symbol
  _atom_site_label
  _atom_site_symmetry_multiplicity
  _atom_site_fract_x
  _atom_site_fract_y
  _atom_site_fract_z
  _atom_site_occupancy
  C   C1        1.0  0.124201375  0.23968510499999995  0.5353624429766233  1.0000
  O   O1        1.0  0.12345304499999998  0.252506175  0.5476460843197412  1.0000
  Ca  Ca1       1.0  0.375481045  0.992654815  0.4880340284305846  1.0000
  Ca  Ca2       1.0  0.125421015  0.0073451849999999754  0.5201013819609059  1.0000
  Ca  Ca3       1.0  0.12548104499999999  0.49575829500000007  0.48826913612312667  1.0000
  Ca  Ca4       1.0  0.37495767499999993  0.4997244450000001  0.5197500703966638  1.0000
  Ca  Ca5       1.0  0.375481045  0.8279177649999999  0.46966581079215386  1.0000
  Ca  Ca6       1.0  0.12548104499999999  0.16049534499999998  0.4633565993343032  1.0000
  Ca  Ca7       1.0  0.125802585  0.658907445  0.49424627201802734  1.0000
  Ca  Ca8       1.0  0.375907015  0.326481905  0.5145615741917913  1.0000
  Ca  Ca9       1.0  0.375481045  0.6610386250000001  0.46353095968628055  1.0000
  Ca  Ca10      1.0  0.12548104499999999  0.327374485  0.4694914534704224  1.0000
  Ca  Ca11      1.0  0.12577373500000003  0.823881395  0.5153748982653303  1.0000
  Ca  Ca12      1.0  0.37428646499999996  0.161214795  0.4933224439654205  1.0000
  Cu  Cu1       1.0  0.375562865  0.894969655  0.5030318822830632  1.0000
  Cu  Cu2       1.0  0.125335635  0.096433675  0.5048814686549471  1.0000
  Cu  Cu3       1.0  0.12583591500000002  0.594060835  0.5169067845610521  1.0000
  Cu  Cu4       1.0  0.375305495  0.3981488650000001  0.4912820005826061  1.0000
  Cu  Cu5       1.0  0.37558689500000003  0.758402675  0.49300613780239566  1.0000
  Cu  Cu6       1.0  0.125304995  0.22097243499999997  0.515854274083922  1.0000
  Cu  Cu7       1.0  0.12548104499999999  0.729330835  0.45302979082774036  1.0000
  Cu  Cu8       1.0  0.375481045  0.259082275  0.47999261929871667  1.0000
  Cu  Cu9       1.0  0.375481045  0.558037065  0.477480384802924  1.0000
  Cu  Cu10      1.0  0.12548104499999999  0.43037604500000004  0.45554202532353305  1.0000
  Cu  Cu11      1.0  0.12548104499999999  0.930376045  0.4678092760663061  1.0000
  Cu  Cu12      1.0  0.375481045  0.058037064999999964  0.4652131340601509  1.0000
  Ge  Ge1       1.0  0.375481045  0.925384325  0.45445382157935493  1.0000
  Ge  Ge2       1.0  0.12548104499999999  0.06302878499999998  0.47856858854710205  1.0000
  Ge  Ge3       1.0  0.12548104499999999  0.5630287850000001  0.464881237281712  1.0000
  Ge  Ge4       1.0  0.375481045  0.425384325  0.46814117284474505  1.0000
  Ge  Ge5       1.0  0.375922315  0.7278334750000001  0.5153379504764589  1.0000
  Ge  Ge6       1.0  0.125236735  0.261743075  0.49493477420038373  1.0000
  Ge  Ge7       1.0  0.12548104499999999  0.7632831449999999  0.4806684944461983  1.0000
  Ge  Ge8       1.0  0.375481045  0.225129965  0.4523539156802587  1.0000
  Ge  Ge9       1.0  0.375929045  0.604462215  0.5077953925539049  1.0000
  Ge  Ge10      1.0  0.125585685  0.39531304500000003  0.5046464488395376  1.0000
  Ge  Ge11      1.0  0.12548104499999999  0.892532955  0.49025495932268787  1.0000
  Ge  Ge12      1.0  0.37430412499999993  0.10451194499999998  0.5174075811882662  1.0000
  Ca  Ca13      1.0  0.875481045  0.992654815  0.4880340284305846  1.0000
  Ca  Ca14      1.0  0.625494955  0.0075639549999999755  0.5201748048202804  1.0000
  Ca  Ca15      1.0  0.6254810449999999  0.49575829500000007  0.48826913612312667  1.0000
  Ca  Ca16      1.0  0.876546955  0.49972104500000003  0.5197535127560632  1.0000
  Ca  Ca17      1.0  0.875481045  0.8279177649999999  0.46966581079215386  1.0000
  Ca  Ca18      1.0  0.6254810449999999  0.16049534499999998  0.4633565993343032  1.0000
  Ca  Ca19      1.0  0.625816595  0.6589310050000001  0.49424127817270136  1.0000
  Ca  Ca20      1.0  0.874942565  0.326539775  0.5145748133363478  1.0000
  Ca  Ca21      1.0  0.875481045  0.6610386250000001  0.46353095968628055  1.0000
  Ca  Ca22      1.0  0.6254810449999999  0.327374485  0.4694914534704224  1.0000
  Ca  Ca23      1.0  0.625787265  0.823984615  0.515393431249562  1.0000
  Ca  Ca24      1.0  0.876450505  0.161193345  0.4933201803716957  1.0000
  Cu  Cu13      1.0  0.875479505  0.8949729949999999  0.5030328216593078  1.0000
  Cu  Cu14      1.0  0.6253063349999999  0.09672584499999998  0.5051609542994305  1.0000
  Cu  Cu15      1.0  0.625811865  0.593947795  0.5169119208279379  1.0000
  Cu  Cu16      1.0  0.875790225  0.398152185  0.4912857762690601  1.0000
  Cu  Cu17      1.0  0.875566825  0.758402435  0.49300481055466944  1.0000
  Cu  Cu18      1.0  0.625467075  0.214874025  0.513568701985208  1.0000
  Cu  Cu19      1.0  0.6254810449999999  0.729330835  0.45302979082774036  1.0000
  Cu  Cu20      1.0  0.875481045  0.259082275  0.47999261929871667  1.0000
  Cu  Cu21      1.0  0.875481045  0.558037065  0.477480384802924  1.0000
  Cu  Cu22      1.0  0.6254810449999999  0.43037604500000004  0.45554202532353305  1.0000
  Cu  Cu23      1.0  0.6254810449999999  0.930376045  0.4678092760663061  1.0000
  Cu  Cu24      1.0  0.875481045  0.058037064999999964  0.4652131340601509  1.0000
  Ge  Ge13      1.0  0.875481045  0.925384325  0.45445382157935493  1.0000
  Ge  Ge14      1.0  0.6254810449999999  0.06302878499999998  0.47856858854710205  1.0000
  Ge  Ge15      1.0  0.6254810449999999  0.5630287850000001  0.464881237281712  1.0000
  Ge  Ge16      1.0  0.875481045  0.425384325  0.46814117284474505  1.0000
  Ge  Ge17      1.0  0.875992965  0.7278115250000001  0.5153335232871256  1.0000
  Ge  Ge18      1.0  0.6256361850000001  0.26458694499999996  0.49452134259416136  1.0000
  Ge  Ge19      1.0  0.6254810449999999  0.7632831449999999  0.4806684944461983  1.0000
  Ge  Ge20      1.0  0.875481045  0.225129965  0.4523539156802587  1.0000
  Ge  Ge21      1.0  0.875817255  0.604445865  0.5077951258922613  1.0000
  Ge  Ge22      1.0  0.6256145649999999  0.39648862500000004  0.5047145536172695  1.0000
  Ge  Ge23      1.0  0.6254810449999999  0.892532955  0.49025495932268787  1.0000
  Ge  Ge24      1.0  0.876278925  0.104562325  0.51740612667021  1.0000
