data_image0
_chemical_formula_structural       COCa2Si4Au4Ca2Si4Au4Ca2Si4Au4Ca2Si4Au4
_chemical_formula_sum              "C1 O1 Ca8 Si16 Au16"
_cell_length_a       8.80929262
_cell_length_b       8.80929262
_cell_length_c       100.48285675
_cell_angle_alpha    90.0
_cell_angle_beta     90.0
_cell_angle_gamma    90.0

_space_group_name_H-M_alt    "P 1"
_space_group_IT_number       1

loop_
  _space_group_symop_operation_xyz
  'x, y, z'

loop_
  _atom_site_type_symbol
  _atom_site_label
  _atom_site_symmetry_multiplicity
  _atom_site_fract_x
  _atom_site_fract_y
  _atom_site_fract_z
  _atom_site_occupancy
  C   C1        1.0  0.29229052999999994  0.4644020599999999  0.5444522656936263  1.0000
  O   O1        1.0  0.23164979999999996  0.52504278  0.5536089760430464  1.0000
  Ca  Ca1       1.0  0.12259027999999998  0.12692002999999996  0.5237551521542916  1.0000
  Ca  Ca2       1.0  0.37426834999999997  0.38242413  0.4716713358733489  1.0000
  Si  Si1       1.0  0.4063058  0.35038662  0.5335470819378562  1.0000
  Si  Si2       1.0  0.12426834999999997  0.13242412999999997  0.4600448289488155  1.0000
  Si  Si3       1.0  0.12426834999999997  0.13242412999999997  0.48329784279788235  1.0000
  Si  Si4       1.0  0.37073882999999996  0.38595367999999997  0.5103745777957637  1.0000
  Au  Au1       1.0  0.12426834999999997  0.38242413  0.44639102395695346  1.0000
  Au  Au2       1.0  0.37426834999999997  0.13242412999999997  0.44639102395695346  1.0000
  Au  Au3       1.0  0.37426834999999997  0.13242412999999997  0.4969516477897443  1.0000
  Au  Au4       1.0  0.12426834999999997  0.38242413  0.4969516477897443  1.0000
  Ca  Ca3       1.0  0.12041994999999997  0.6362726799999999  0.5233633487636268  1.0000
  Ca  Ca4       1.0  0.37426834999999997  0.88242413  0.4716713358733489  1.0000
  Si  Si5       1.0  0.37662552  0.8813362699999998  0.5335291258371899  1.0000
  Si  Si6       1.0  0.12426834999999997  0.63242413  0.4600448289488155  1.0000
  Si  Si7       1.0  0.12426834999999997  0.63242413  0.48329784279788235  1.0000
  Si  Si8       1.0  0.37572762  0.88257728  0.5110104828319948  1.0000
  Au  Au5       1.0  0.12426834999999997  0.88242413  0.44639102395695346  1.0000
  Au  Au6       1.0  0.37426834999999997  0.63242413  0.44639102395695346  1.0000
  Au  Au7       1.0  0.37426834999999997  0.63242413  0.4969516477897443  1.0000
  Au  Au8       1.0  0.12426834999999997  0.88242413  0.4969516477897443  1.0000
  Ca  Ca5       1.0  0.6392697999999999  0.11742271999999998  0.5235933015236539  1.0000
  Ca  Ca6       1.0  0.8742683499999999  0.38242413  0.4716713358733489  1.0000
  Si  Si9       1.0  0.8753562399999999  0.38006691  0.5335291288708275  1.0000
  Si  Si10      1.0  0.6242683499999999  0.13242412999999997  0.4600448289488155  1.0000
  Si  Si11      1.0  0.6242683499999999  0.13242412999999997  0.48329784279788235  1.0000
  Si  Si12      1.0  0.8741151599999999  0.38096487  0.5110104797983572  1.0000
  Au  Au9       1.0  0.6242683499999999  0.38242413  0.44639102395695346  1.0000
  Au  Au10      1.0  0.8742683499999999  0.13242412999999997  0.44639102395695346  1.0000
  Au  Au11      1.0  0.8742683499999999  0.13242412999999997  0.4969516477897443  1.0000
  Au  Au12      1.0  0.6242683499999999  0.38242413  0.4969516477897443  1.0000
  Ca  Ca7       1.0  0.6297733600000001  0.6341017999999999  0.5237551915915797  1.0000
  Ca  Ca8       1.0  0.8742683499999999  0.88242413  0.4716713358733489  1.0000
  Si  Si13      1.0  0.87958005  0.87711255  0.5335859398012509  1.0000
  Si  Si14      1.0  0.6242683499999999  0.63242413  0.4600448289488155  1.0000
  Si  Si15      1.0  0.6242683499999999  0.63242413  0.48329784279788235  1.0000
  Si  Si16      1.0  0.8758765499999999  0.8808159099999999  0.5108934875661908  1.0000
  Au  Au13      1.0  0.6242683499999999  0.88242413  0.44639102395695346  1.0000
  Au  Au14      1.0  0.8742683499999999  0.63242413  0.44639102395695346  1.0000
  Au  Au15      1.0  0.8742683499999999  0.63242413  0.4969516477897443  1.0000
  Au  Au16      1.0  0.6242683499999999  0.88242413  0.4969516477897443  1.0000
