data_image0
_chemical_formula_structural       COAl18Pd12
_chemical_formula_sum              "C1 O1 Al18 Pd12"
_cell_length_a       9.067691316755681
_cell_length_b       6.767815777378734
_cell_length_c       98.47133531
_cell_angle_alpha    84.66047167716131
_cell_angle_beta     89.93814535715339
_cell_angle_gamma    90.26021546069403

_space_group_name_H-M_alt    "P 1"
_space_group_IT_number       1

loop_
  _space_group_symop_operation_xyz
  'x, y, z'

loop_
  _atom_site_type_symbol
  _atom_site_label
  _atom_site_symmetry_multiplicity
  _atom_site_fract_x
  _atom_site_fract_y
  _atom_site_fract_z
  _atom_site_occupancy
  C   C1        1.0  0.7678824350000001  0.08017450999999996  0.5379125862021754  1.0000
  O   O1        1.0  0.800077845  0.012686359999999966  0.5490336275254033  1.0000
  Al  Al1       1.0  0.08715750500000001  0.5065974  0.4925689984029841  1.0000
  Al  Al2       1.0  0.759051645  0.2769882699999999  0.5203339565644162  1.0000
  Al  Al3       1.0  0.424361335  0.86852579  0.506641962793087  1.0000
  Al  Al4       1.0  0.7598981850000002  0.8679824499999998  0.5069448009389271  1.0000
  Al  Al5       1.0  0.42770256500000003  0.4932042  0.4928668750225854  1.0000
  Al  Al6       1.0  0.097051575  0.25801632999999996  0.5186560441433283  1.0000
  Al  Al7       1.0  0.076624515  0.8886665199999999  0.5063592136241161  1.0000
  Al  Al8       1.0  0.746612455  0.5199906000000001  0.49227111889205044  1.0000
  Al  Al9       1.0  0.40748189500000004  0.2709818399999999  0.5184724011718462  1.0000
  Al  Al10      1.0  0.08715750500000001  0.36374025  0.45126424909419793  1.0000
  Al  Al11      1.0  0.753824175  0.12564502  0.4788007486333888  1.0000
  Al  Al12      1.0  0.420490835  0.7446926399999999  0.4650324988637933  1.0000
  Al  Al13      1.0  0.761035895  0.7312994399999999  0.46533037837472707  1.0000
  Al  Al14      1.0  0.42770256500000003  0.35034706  0.45156212860513156  1.0000
  Al  Al15      1.0  0.094369225  0.11225181999999996  0.4790986281443223  1.0000
  Al  Al16      1.0  0.07994578499999999  0.7580858300000001  0.464734622244192  1.0000
  Al  Al17      1.0  0.746612455  0.37713345  0.45096637247459664  1.0000
  Al  Al18      1.0  0.41327911500000003  0.13903822  0.47850286912245504  1.0000
  Pd  Pd1       1.0  0.9229285550000002  0.56753758  0.5128021024051981  1.0000
  Pd  Pd2       1.0  0.5924541050000001  0.19318350999999997  0.4992947751369878  1.0000
  Pd  Pd3       1.0  0.256447135  0.96418001  0.525161718205458  1.0000
  Pd  Pd4       1.0  0.915750615  0.19287037999999995  0.4991798591344441  1.0000
  Pd  Pd5       1.0  0.5866066349999999  0.98731364  0.5262085424152187  1.0000
  Pd  Pd6       1.0  0.25068191500000003  0.57144058  0.5127579864568573  1.0000
  Pd  Pd7       1.0  0.9233754850000001  0.42981163  0.4720357741072983  1.0000
  Pd  Pd8       1.0  0.590042155  0.048859249999999965  0.45826752433770296  1.0000
  Pd  Pd9       1.0  0.25670881500000003  0.8107640100000001  0.48580402387689364  1.0000
  Pd  Pd10      1.0  0.917606195  0.05957363999999996  0.4580292265116206  1.0000
  Pd  Pd11      1.0  0.584272865  0.8214784099999999  0.4855657231594791  1.0000
  Pd  Pd12      1.0  0.250939525  0.44052602999999996  0.4717974733898837  1.0000
