data_image0
_chemical_formula_structural       COAu3Ca6Pd3
_chemical_formula_sum              "C1 O1 Au3 Ca6 Pd3"
_cell_length_a       5.16511225085611
_cell_length_b       5.16511225
_cell_length_c       107.95566846
_cell_angle_alpha    90.0
_cell_angle_beta     90.0
_cell_angle_gamma    120.00000005856164

_space_group_name_H-M_alt    "P 1"
_space_group_IT_number       1

loop_
  _space_group_symop_operation_xyz
  'x, y, z'

loop_
  _atom_site_type_symbol
  _atom_site_label
  _atom_site_symmetry_multiplicity
  _atom_site_fract_x
  _atom_site_fract_y
  _atom_site_fract_z
  _atom_site_occupancy
  C   C1        1.0  0.50010672  0.6661531349999998  0.5567513311334976  1.0000
  O   O1        1.0  0.49924831  0.667013745  0.5674360414251753  1.0000
  Au  Au1       1.0  0.49854562999999996  0.6677113949999999  0.5009278416743482  1.0000
  Au  Au2       1.0  0.8347877  0.3314699749999999  0.5377999903726386  1.0000
  Au  Au3       1.0  0.16521229999999995  0.001044724999999913  0.4618627651152124  1.0000
  Ca  Ca1       1.0  0.8318789699999999  0.33437805499999984  0.45209649509646416  1.0000
  Ca  Ca2       1.0  0.16521229999999995  0.001044724999999913  0.4911615716556001  1.0000
  Ca  Ca3       1.0  0.50121184  0.6650438649999999  0.5319005828555265  1.0000
  Ca  Ca4       1.0  0.16521229999999995  0.001044724999999913  0.43256395857482466  1.0000
  Ca  Ca5       1.0  0.49854562999999996  0.6677113949999999  0.4716290351339606  1.0000
  Ca  Ca6       1.0  0.8329934299999998  0.33326103499999976  0.5104711747213087  1.0000
  Pd  Pd1       1.0  0.16729149999999998  0.9989552749999998  0.5194913693528991  1.0000
  Pd  Pd2       1.0  0.49854562999999996  0.6677113949999999  0.44233022507771597  1.0000
  Pd  Pd3       1.0  0.8318789699999999  0.33437805499999984  0.4813953051527088  1.0000
