data_image0
_chemical_formula_structural       COCa6Rh3Zn3
_chemical_formula_sum              "C1 O1 Ca6 Rh3 Zn3"
_cell_length_a       5.0884321
_cell_length_b       5.088432096508013
_cell_length_c       107.39218667
_cell_angle_alpha    90.0
_cell_angle_beta     90.0
_cell_angle_gamma    120.00000002270129

_space_group_name_H-M_alt    "P 1"
_space_group_IT_number       1

loop_
  _space_group_symop_operation_xyz
  'x, y, z'

loop_
  _atom_site_type_symbol
  _atom_site_label
  _atom_site_symmetry_multiplicity
  _atom_site_fract_x
  _atom_site_fract_y
  _atom_site_fract_z
  _atom_site_occupancy
  C   C1        1.0  0.7933885550000002  0.4194665550000001  0.5496110590432288  1.0000
  O   O1        1.0  0.7360590250000001  0.304642915  0.5601444975727891  1.0000
  Ca  Ca1       1.0  0.8324627750000001  0.498276355  0.5268477449605962  1.0000
  Ca  Ca2       1.0  0.5037099150000001  0.8404170950000001  0.4882143212789726  1.0000
  Ca  Ca3       1.0  0.17037658500000008  0.17375042500000001  0.44952726689393024  1.0000
  Ca  Ca4       1.0  0.4944886350000001  0.8225798750000002  0.5471322815657438  1.0000
  Ca  Ca5       1.0  0.17037658500000008  0.17375042500000001  0.5075578502124111  1.0000
  Ca  Ca6       1.0  0.8370432550000001  0.507083755  0.46887079582736885  1.0000
  Rh  Rh1       1.0  0.17037658500000008  0.17375042500000001  0.4785425568122533  1.0000
  Rh  Rh2       1.0  0.8370432550000001  0.507083755  0.439855502427211  1.0000
  Rh  Rh3       1.0  0.5037099150000001  0.8404170950000001  0.5172296111972955  1.0000
  Zn  Zn1       1.0  0.5037099150000001  0.8404170950000001  0.4591990313606495  1.0000
  Zn  Zn2       1.0  0.1629567450000001  0.15958290500000002  0.5356626402966772  1.0000
  Zn  Zn3       1.0  0.8370432550000001  0.507083755  0.4978860857456919  1.0000
