data_image0
_chemical_formula_structural       CONi6Se6
_chemical_formula_sum              "C1 O1 Ni6 Se6"
_cell_length_a       6.624750315252635
_cell_length_b       5.23080734
_cell_length_c       100.34942883
_cell_angle_alpha    90.0
_cell_angle_beta     109.19481471896376
_cell_angle_gamma    66.74694837293667

_space_group_name_H-M_alt    "P 1"
_space_group_IT_number       1

loop_
  _space_group_symop_operation_xyz
  'x, y, z'

loop_
  _atom_site_type_symbol
  _atom_site_label
  _atom_site_symmetry_multiplicity
  _atom_site_fract_x
  _atom_site_fract_y
  _atom_site_fract_z
  _atom_site_occupancy
  C   C1        1.0  0.953647775  0.81029939  0.527753712595009  1.0000
  O   O1        1.0  0.046352225000000025  0.7640173700000001  0.5403476873023263  1.0000
  Ni  Ni1       1.0  0.8274780050000001  0.11516714000000014  0.512318655279832  1.0000
  Ni  Ni2       1.0  0.154614505  0.46269749000000016  0.45965231269767387  1.0000
  Ni  Ni3       1.0  0.487947835  0.79603082  0.4848554384252824  1.0000
  Ni  Ni4       1.0  0.487947835  0.29603082000000014  0.4848554384252824  1.0000
  Ni  Ni5       1.0  0.8268586750000001  0.63322337  0.5123010050282344  1.0000
  Ni  Ni6       1.0  0.154614505  0.96269749  0.45965231269767387  1.0000
  Se  Se1       1.0  0.13715787500000004  0.7214258000000001  0.4792145982674498  1.0000
  Se  Se2       1.0  0.458436155  0.06028068000000011  0.502830389930594  1.0000
  Se  Se3       1.0  0.6653815550000001  0.4548938900000001  0.5256325491509646  1.0000
  Se  Se4       1.0  0.838737795  0.37063584000000016  0.4904962755587401  1.0000
  Se  Se5       1.0  0.19267747500000001  0.6928317200000002  0.5115612096729353  1.0000
  Se  Se6       1.0  0.505404465  0.037302510000000046  0.46529315285550643  1.0000
