data_image0
_chemical_formula_structural       COCa4Zn8
_chemical_formula_sum              "C1 O1 Ca4 Zn8"
_cell_length_a       4.65848257
_cell_length_b       7.69590885
_cell_length_c       99.97885169
_cell_angle_alpha    90.0
_cell_angle_beta     90.0
_cell_angle_gamma    90.0

_space_group_name_H-M_alt    "P 1"
_space_group_IT_number       1

loop_
  _space_group_symop_operation_xyz
  'x, y, z'

loop_
  _atom_site_type_symbol
  _atom_site_label
  _atom_site_symmetry_multiplicity
  _atom_site_fract_x
  _atom_site_fract_y
  _atom_site_fract_z
  _atom_site_occupancy
  C   C1        1.0  0.4999983950000001  0.04297781000000002  0.5296215446243283  1.0000
  O   O1        1.0  0.4999995650000001  0.04297719000000002  0.5413101746774214  1.0000
  Ca  Ca1       1.0  0.7499997950000001  0.7426322800000001  0.4728194659834603  1.0000
  Ca  Ca2       1.0  0.7392297050000001  0.8488988700000001  0.5092665311065621  1.0000
  Ca  Ca3       1.0  0.26076703500000004  0.23705795000000005  0.5092665790828709  1.0000
  Ca  Ca4       1.0  0.24999979500000005  0.3433243  0.4728194659834603  1.0000
  Zn  Zn1       1.0  0.247837255  0.6307599  0.4942616826308908  1.0000
  Zn  Zn2       1.0  0.24999979500000005  0.95702281  0.486949106644342  1.0000
  Zn  Zn3       1.0  0.7499997950000001  0.12893377000000003  0.486949106644342  1.0000
  Zn  Zn4       1.0  0.752162745  0.4551980100000001  0.4942619644917055  1.0000
  Zn  Zn5       1.0  0.7499997950000001  0.12893377000000003  0.4586898253225787  1.0000
  Zn  Zn6       1.0  0.7515524750000001  0.46674000000000004  0.5214198896726843  1.0000
  Zn  Zn7       1.0  0.2484426150000001  0.6192157899999999  0.5214189601316996  1.0000
  Zn  Zn8       1.0  0.24999979500000005  0.95702281  0.4586898253225787  1.0000
