data_image0
_chemical_formula_structural       COCa4Zn8
_chemical_formula_sum              "C1 O1 Ca4 Zn8"
_cell_length_a       5.854468263205895
_cell_length_b       5.854468268784649
_cell_length_c       101.90862903
_cell_angle_alpha    88.19705914130867
_cell_angle_beta     88.19705913959007
_cell_angle_gamma    79.59629417979812

_space_group_name_H-M_alt    "P 1"
_space_group_IT_number       1

loop_
  _space_group_symop_operation_xyz
  'x, y, z'

loop_
  _atom_site_type_symbol
  _atom_site_label
  _atom_site_symmetry_multiplicity
  _atom_site_fract_x
  _atom_site_fract_y
  _atom_site_fract_z
  _atom_site_occupancy
  C   C1        1.0  0.19521972999999995  0.19517696500000004  0.5296872910898017  1.0000
  O   O1        1.0  0.17805221999999996  0.17804627500000003  0.5413651453726569  1.0000
  Ca  Ca1       1.0  0.7014036699999999  0.7013991850000001  0.4625758158894938  1.0000
  Ca  Ca2       1.0  0.94735847  0.947362955  0.5016221956550819  1.0000
  Ca  Ca3       1.0  0.27692268  0.27691819500000003  0.45863485462734327  1.0000
  Ca  Ca4       1.0  0.5289949299999999  0.528992475  0.49648873549136424  1.0000
  Zn  Zn1       1.0  0.05264152999999995  0.42961354499999993  0.486595224100648  1.0000
  Zn  Zn2       1.0  0.34019159  0.685497395  0.5234221881188171  1.0000
  Zn  Zn3       1.0  0.17568480999999989  0.798703825  0.47375422186436167  1.0000
  Zn  Zn4       1.0  0.43904841999999994  0.059927505000000034  0.5130179533225846  1.0000
  Zn  Zn5       1.0  0.42961803  0.05263704500000002  0.4865952241006479  1.0000
  Zn  Zn6       1.0  0.6855024099999998  0.34016881500000007  0.5234221442833922  1.0000
  Zn  Zn7       1.0  0.7987083099999999  0.17568032500000003  0.47375422186436167  1.0000
  Zn  Zn8       1.0  0.05992714999999995  0.43904996499999993  0.5130175055750293  1.0000
