data_image0
_chemical_formula_structural       COCa24Cu24Ge24
_chemical_formula_sum              "C1 O1 Ca24 Cu24 Ge24"
_cell_length_a       8.805228862138843
_cell_length_b       23.411568483511484
_cell_length_c       105.22091545
_cell_angle_alpha    100.98632415187036
_cell_angle_beta     60.44260791400854
_cell_angle_gamma    79.01367584016712

_space_group_name_H-M_alt    "P 1"
_space_group_IT_number       1

loop_
  _space_group_symop_operation_xyz
  'x, y, z'

loop_
  _atom_site_type_symbol
  _atom_site_label
  _atom_site_symmetry_multiplicity
  _atom_site_fract_x
  _atom_site_fract_y
  _atom_site_fract_z
  _atom_site_occupancy
  C   C1        1.0  0.7268264099999998  0.43471894500000013  0.5436434375790935  1.0000
  O   O1        1.0  0.6008356300000001  0.44184956500000006  0.5558580632822531  1.0000
  Ca  Ca1       1.0  0.98196312  0.00097973500000005  0.4585746708191397  1.0000
  Ca  Ca2       1.0  0.46947666  0.00269915500000005  0.500548217382014  1.0000
  Ca  Ca3       1.0  0.019525840000000214  0.999020265  0.5053551677416681  1.0000
  Ca  Ca4       1.0  0.5207249799999999  0.9978762550000001  0.4612989691942801  1.0000
  Ca  Ca5       1.0  0.4850666  0.49787625500000005  0.45831496150608797  1.0000
  Ca  Ca6       1.0  0.9823784999999999  0.4954472750000001  0.4998356310211408  1.0000
  Ca  Ca7       1.0  0.5237498300000001  0.4973757650000001  0.5034954814259184  1.0000
  Ca  Ca8       1.0  0.0176215  0.5009797350000001  0.4615586785073319  1.0000
  Ca  Ca9       1.0  0.8560900699999999  0.16571678500000006  0.4756126688842195  1.0000
  Ca  Ca10      1.0  0.34787519000000006  0.17202226500000006  0.5189770311710293  1.0000
  Ca  Ca11      1.0  0.14659803000000016  0.833139205  0.48610259940644235  1.0000
  Ca  Ca12      1.0  0.64659803  0.833139205  0.44426097112920043  1.0000
  Ca  Ca13      1.0  0.6886676500000002  0.33313920500000005  0.4477814956064752  1.0000
  Ca  Ca14      1.0  0.18866765000000005  0.33313920500000005  0.48962312388371704  1.0000
  Ca  Ca15      1.0  0.31354636999999996  0.6721966050000001  0.5140108717421153  1.0000
  Ca  Ca16      1.0  0.81402045  0.6657167850000001  0.47209214775427494  1.0000
  Ca  Ca17      1.0  0.64626216  0.33259592500000007  0.48598356499498896  1.0000
  Ca  Ca18      1.0  0.14626216  0.33259592500000007  0.4441419367177471  1.0000
  Ca  Ca19      1.0  0.35642594000000016  0.6662600650000001  0.4757317032956728  1.0000
  Ca  Ca20      1.0  0.8543617199999998  0.6748049450000001  0.5173922845210241  1.0000
  Ca  Ca21      1.0  0.7954472599999999  0.16837925500000006  0.5154160341235545  1.0000
  Ca  Ca22      1.0  0.31259801000000004  0.16626006500000007  0.47206404022206344  1.0000
  Ca  Ca23      1.0  0.19009009000000018  0.832595925  0.4478095997913565  1.0000
  Ca  Ca24      1.0  0.6900900900000001  0.832595925  0.48965122806859834  1.0000
  Cu  Cu1       1.0  0.24833336  0.09686382500000007  0.4939779570395191  1.0000
  Cu  Cu2       1.0  0.7362295299999999  0.09680081500000005  0.4540481229682182  1.0000
  Cu  Cu3       1.0  0.76645857  0.902055175  0.46582551704520164  1.0000
  Cu  Cu4       1.0  0.2649554300000002  0.898174845  0.5084840579255981  1.0000
  Cu  Cu5       1.0  0.44452111000000005  0.39972940500000015  0.518073318946846  1.0000
  Cu  Cu6       1.0  0.9309751700000002  0.4020551750000001  0.47959280189047304  1.0000
  Cu  Cu7       1.0  0.5887126100000001  0.5976269050000002  0.5219337380336031  1.0000
  Cu  Cu8       1.0  0.07171293000000006  0.5968008150000002  0.4821224664001887  1.0000
  Cu  Cu9       1.0  0.11574950000000003  0.22113497500000007  0.5055591004905611  1.0000
  Cu  Cu10      1.0  0.5977609300000001  0.23455227500000003  0.4655156011255474  1.0000
  Cu  Cu11      1.0  0.9049271699999999  0.764303715  0.4543580388878724  1.0000
  Cu  Cu12      1.0  0.40064414000000004  0.766048645  0.49707714970936306  1.0000
  Cu  Cu13      1.0  0.5853748300000001  0.2605478750000001  0.5071391976988321  1.0000
  Cu  Cu14      1.0  0.06800948  0.26430371500000005  0.4680052985119328  1.0000
  Cu  Cu15      1.0  0.4346786199999999  0.7345522750000001  0.451868341501487  1.0000
  Cu  Cu16      1.0  0.93467862  0.7345522750000001  0.49370996977872894  1.0000
  Cu  Cu17      1.0  0.9048716899999999  0.42437105500000005  0.5231975393107403  1.0000
  Cu  Cu18      1.0  0.39969186999999995  0.4355974850000001  0.48258877293702224  1.0000
  Cu  Cu19      1.0  0.12126474000000012  0.5491261050000001  0.5177479986133254  1.0000
  Cu  Cu20      1.0  0.60299623  0.5632585050000001  0.47912649535363966  1.0000
  Cu  Cu21      1.0  0.77203085  0.06325850500000005  0.4932718644993544  1.0000
  Cu  Cu22      1.0  0.2720308500000001  0.06325850500000005  0.4514302362221125  1.0000
  Cu  Cu23      1.0  0.2306572500000001  0.9355974850000001  0.46844340713863764  1.0000
  Cu  Cu24      1.0  0.7153108500000002  0.939159675  0.5119157375630541  1.0000
  Ge  Ge1       1.0  0.10269093000000007  0.06825022500000005  0.47993639529989496  1.0000
  Ge  Ge2       1.0  0.6073404  0.06181922500000006  0.5197592520433468  1.0000
  Ge  Ge3       1.0  0.8999971699999999  0.9306057650000001  0.4817788763380971  1.0000
  Ge  Ge4       1.0  0.41375058000000015  0.925346695  0.5223214626452016  1.0000
  Ge  Ge5       1.0  0.21685255000000006  0.4352785250000001  0.511810520930923  1.0000
  Ge  Ge6       1.0  0.74033539  0.4306057650000001  0.46841785696674637  1.0000
  Ge  Ge7       1.0  0.76235271  0.5682502250000001  0.45145578304667344  1.0000
  Ge  Ge8       1.0  0.26235271  0.5682502250000001  0.4932974113239153  1.0000
  Ge  Ge9       1.0  0.8956757399999999  0.269248035  0.4981298850768185  1.0000
  Ge  Ge10      1.0  0.39836589000000006  0.268504585  0.45451205624789576  1.0000
  Ge  Ge11      1.0  0.10432221000000001  0.7303514050000002  0.4653615871128544  1.0000
  Ge  Ge12      1.0  0.6073848700000001  0.7317874450000001  0.5073305679172511  1.0000
  Ge  Ge13      1.0  0.43651907  0.23035140500000006  0.4931609005011632  1.0000
  Ge  Ge14      1.0  0.9365190699999999  0.23035140500000006  0.4513192722239212  1.0000
  Ge  Ge15      1.0  0.5661690300000002  0.768504585  0.4685543677894986  1.0000
  Ge  Ge16      1.0  0.05951160000000003  0.7704774850000001  0.510662048570639  1.0000
  Ge  Ge17      1.0  0.7719871799999998  0.3925210050000001  0.5074350883046878  1.0000
  Ge  Ge18      1.0  0.2704691100000002  0.39775439500000015  0.46544132721436  1.0000
  Ge  Ge19      1.0  0.23221899000000001  0.6011015950000002  0.4544323127990599  1.0000
  Ge  Ge20      1.0  0.73524697  0.6005582450000001  0.49582156278068934  1.0000
  Ge  Ge21      1.0  0.56712192  0.10110159500000007  0.48245808312159594  1.0000
  Ge  Ge22      1.0  0.07310311000000007  0.11487539500000006  0.5212006559695346  1.0000
  Ge  Ge23      1.0  0.43556618  0.8977543950000001  0.4792571851690659  1.0000
  Ge  Ge24      1.0  0.9414835799999999  0.8885774150000001  0.519980641119557  1.0000
