data_image0
_chemical_formula_structural       COMn4Pb4Rh8Mn4Pb4Rh8Mn4Pb4Rh8Mn4Pb4Rh8
_chemical_formula_sum              "C1 O1 Mn16 Pb16 Rh32"
_cell_length_a       8.97686538
_cell_length_b       8.97686538
_cell_length_c       108.08561434
_cell_angle_alpha    90.0
_cell_angle_beta     90.0
_cell_angle_gamma    90.0

_space_group_name_H-M_alt    "P 1"
_space_group_IT_number       1

loop_
  _space_group_symop_operation_xyz
  'x, y, z'

loop_
  _atom_site_type_symbol
  _atom_site_label
  _atom_site_symmetry_multiplicity
  _atom_site_fract_x
  _atom_site_fract_y
  _atom_site_fract_z
  _atom_site_occupancy
  C   C1        1.0  0.46749957000000003  0.29941642000000007  0.5536628083363083  1.0000
  O   O1        1.0  0.46116806000000005  0.30585843  0.564645205069051  1.0000
  Mn  Mn1       1.0  0.13775205000000001  0.12886058000000003  0.4940823339735504  1.0000
  Mn  Mn2       1.0  0.34370336  0.42262018000000007  0.5291923314951946  1.0000
  Mn  Mn3       1.0  0.13775205000000001  0.12886058000000003  0.4353547949309491  1.0000
  Mn  Mn4       1.0  0.38775205  0.37886058  0.46471856445224974  1.0000
  Pb  Pb1       1.0  0.14483438  0.12959264000000004  0.5233456582571564  1.0000
  Pb  Pb2       1.0  0.38775205  0.37886058  0.4940823339735504  1.0000
  Pb  Pb3       1.0  0.13775205000000001  0.12886058000000003  0.46471856445224974  1.0000
  Pb  Pb4       1.0  0.38775205  0.37886058  0.4353547949309491  1.0000
  Rh  Rh1       1.0  0.09629869  0.36861758000000006  0.5378847135262141  1.0000
  Rh  Rh2       1.0  0.37690905  0.17884742000000003  0.5397504663743137  1.0000
  Rh  Rh3       1.0  0.38775205  0.12886058000000003  0.508764220496027  1.0000
  Rh  Rh4       1.0  0.13775205000000001  0.37886058  0.508764220496027  1.0000
  Rh  Rh5       1.0  0.13775205000000001  0.37886058  0.47940045097472633  1.0000
  Rh  Rh6       1.0  0.38775205  0.12886058000000003  0.47940045097472633  1.0000
  Rh  Rh7       1.0  0.38775205  0.12886058000000003  0.45003667792977314  1.0000
  Rh  Rh8       1.0  0.13775205000000001  0.37886058  0.45003667792977314  1.0000
  Mn  Mn5       1.0  0.13775205000000001  0.62886058  0.4940823339735504  1.0000
  Mn  Mn6       1.0  0.39260762  0.8891092400000001  0.527088348026338  1.0000
  Mn  Mn7       1.0  0.13775205000000001  0.62886058  0.4353547949309491  1.0000
  Mn  Mn8       1.0  0.38775205  0.87886058  0.46471856445224974  1.0000
  Pb  Pb5       1.0  0.13227443000000003  0.63450501  0.5246489903614067  1.0000
  Pb  Pb6       1.0  0.38775205  0.87886058  0.4940823339735504  1.0000
  Pb  Pb7       1.0  0.13775205000000001  0.62886058  0.46471856445224974  1.0000
  Pb  Pb8       1.0  0.38775205  0.87886058  0.4353547949309491  1.0000
  Rh  Rh9       1.0  0.15337211  0.89188669  0.5380570342272674  1.0000
  Rh  Rh10      1.0  0.39788257  0.66957481  0.5380036614630997  1.0000
  Rh  Rh11      1.0  0.38775205  0.62886058  0.508764220496027  1.0000
  Rh  Rh12      1.0  0.13775205000000001  0.87886058  0.508764220496027  1.0000
  Rh  Rh13      1.0  0.13775205000000001  0.87886058  0.47940045097472633  1.0000
  Rh  Rh14      1.0  0.38775205  0.62886058  0.47940045097472633  1.0000
  Rh  Rh15      1.0  0.38775205  0.62886058  0.45003667792977314  1.0000
  Rh  Rh16      1.0  0.13775205000000001  0.87886058  0.45003667792977314  1.0000
  Mn  Mn9       1.0  0.63775205  0.12886058000000003  0.4940823339735504  1.0000
  Mn  Mn10      1.0  0.87598489  0.3743996800000001  0.5270101476067717  1.0000
  Mn  Mn11      1.0  0.63775205  0.12886058000000003  0.4353547949309491  1.0000
  Mn  Mn12      1.0  0.8877520500000001  0.37886058  0.46471856445224974  1.0000
  Pb  Pb9       1.0  0.6238424100000001  0.14246783000000005  0.5249108893558954  1.0000
  Pb  Pb10      1.0  0.8877520500000001  0.37886058  0.4940823339735504  1.0000
  Pb  Pb11      1.0  0.63775205  0.12886058000000003  0.46471856445224974  1.0000
  Pb  Pb12      1.0  0.8877520500000001  0.37886058  0.4353547949309491  1.0000
  Rh  Rh17      1.0  0.58798299  0.38958186000000006  0.5397374147655147  1.0000
  Rh  Rh18      1.0  0.8901644500000001  0.10811331000000005  0.5362566380854319  1.0000
  Rh  Rh19      1.0  0.8877520500000001  0.12886058000000003  0.508764220496027  1.0000
  Rh  Rh20      1.0  0.63775205  0.37886058  0.508764220496027  1.0000
  Rh  Rh21      1.0  0.63775205  0.37886058  0.47940045097472633  1.0000
  Rh  Rh22      1.0  0.8877520500000001  0.12886058000000003  0.47940045097472633  1.0000
  Rh  Rh23      1.0  0.8877520500000001  0.12886058000000003  0.45003667792977314  1.0000
  Rh  Rh24      1.0  0.63775205  0.37886058  0.45003667792977314  1.0000
  Mn  Mn13      1.0  0.63775205  0.62886058  0.4940823339735504  1.0000
  Mn  Mn14      1.0  0.9037013100000001  0.8633091800000001  0.5268814884836416  1.0000
  Mn  Mn15      1.0  0.63775205  0.62886058  0.4353547949309491  1.0000
  Mn  Mn16      1.0  0.8877520500000001  0.87886058  0.46471856445224974  1.0000
  Pb  Pb13      1.0  0.63642126  0.62220485  0.5233443686003474  1.0000
  Pb  Pb14      1.0  0.8877520500000001  0.87886058  0.4940823339735504  1.0000
  Pb  Pb15      1.0  0.63775205  0.62886058  0.46471856445224974  1.0000
  Pb  Pb16      1.0  0.8877520500000001  0.87886058  0.4353547949309491  1.0000
  Rh  Rh25      1.0  0.65770177  0.87633868  0.5362807856759013  1.0000
  Rh  Rh26      1.0  0.8743004800000002  0.61430832  0.5379517862512376  1.0000
  Rh  Rh27      1.0  0.8877520500000001  0.62886058  0.508764220496027  1.0000
  Rh  Rh28      1.0  0.63775205  0.87886058  0.508764220496027  1.0000
  Rh  Rh29      1.0  0.63775205  0.87886058  0.47940045097472633  1.0000
  Rh  Rh30      1.0  0.8877520500000001  0.62886058  0.47940045097472633  1.0000
  Rh  Rh31      1.0  0.8877520500000001  0.62886058  0.45003667792977314  1.0000
  Rh  Rh32      1.0  0.63775205  0.87886058  0.45003667792977314  1.0000
