data_image0
_chemical_formula_structural       COCa8Sn16Pd8
_chemical_formula_sum              "C1 O1 Ca8 Sn16 Pd8"
_cell_length_a       13.723513009424737
_cell_length_b       4.50411979
_cell_length_c       111.17053901
_cell_angle_alpha    90.0
_cell_angle_beta     67.83379429925138
_cell_angle_gamma    90.0

_space_group_name_H-M_alt    "P 1"
_space_group_IT_number       1

loop_
  _space_group_symop_operation_xyz
  'x, y, z'

loop_
  _atom_site_type_symbol
  _atom_site_label
  _atom_site_symmetry_multiplicity
  _atom_site_fract_x
  _atom_site_fract_y
  _atom_site_fract_z
  _atom_site_occupancy
  C   C1        1.0  0.10524503500000001  0.803402415  0.5639459807585788  1.0000
  O   O1        1.0  0.09268273500000002  0.9118446250000001  0.5738594037058371  1.0000
  Ca  Ca1       1.0  0.143946175  0.586719985  0.5409855783771971  1.0000
  Ca  Ca2       1.0  0.663901645  0.589342555  0.4795271682602634  1.0000
  Ca  Ca3       1.0  0.588825515  0.08944726500000003  0.5335347320425673  1.0000
  Ca  Ca4       1.0  0.09446174500000001  0.08934255500000002  0.4709551199293714  1.0000
  Ca  Ca5       1.0  0.413901645  0.08934255500000002  0.4486657714895813  1.0000
  Ca  Ca6       1.0  0.913901645  0.08934255500000002  0.5103885687343132  1.0000
  Ca  Ca7       1.0  0.8444617449999999  0.589342555  0.4400937231586892  1.0000
  Ca  Ca8       1.0  0.344461745  0.589342555  0.5018165167000534  1.0000
  Sn  Sn1       1.0  0.205719475  0.589342555  0.44830537825595684  1.0000
  Sn  Sn2       1.0  0.7057194750000001  0.589342555  0.5100281717973211  1.0000
  Sn  Sn3       1.0  0.552643915  0.08934255500000002  0.5021769136370456  1.0000
  Sn  Sn4       1.0  0.05264391500000001  0.08934255500000002  0.4404541163923137  1.0000
  Sn  Sn5       1.0  0.34535726499999997  0.08905165500000002  0.5293566073485108  1.0000
  Sn  Sn6       1.0  0.847381215  0.08934255500000002  0.46579289191355067  1.0000
  Sn  Sn7       1.0  0.37462480499999995  0.589638235  0.5464885643707755  1.0000
  Sn  Sn8       1.0  0.9109821750000001  0.589342555  0.4846893962760841  1.0000
  Sn  Sn9       1.0  0.45571947499999993  0.08934255500000002  0.479166775026639  1.0000
  Sn  Sn10      1.0  0.936238295  0.08815537500000002  0.5405853702367784  1.0000
  Sn  Sn11      1.0  0.794774455  0.5894546549999999  0.5357001319092453  1.0000
  Sn  Sn12      1.0  0.302643915  0.589342555  0.4713155168663635  1.0000
  Sn  Sn13      1.0  0.597381215  0.589342555  0.4349314951428685  1.0000
  Sn  Sn14      1.0  0.09738121500000001  0.589342555  0.4966542923876005  1.0000
  Sn  Sn15      1.0  0.6609821750000001  0.08934255500000002  0.45382799950540204  1.0000
  Sn  Sn16      1.0  0.160982175  0.08934255500000002  0.5155507967501339  1.0000
  Pd  Pd1       1.0  0.27693222500000003  0.08934255500000002  0.4317575015834255  1.0000
  Pd  Pd2       1.0  0.776932225  0.08934255500000002  0.4934802951247897  1.0000
  Pd  Pd3       1.0  0.481431165  0.589342555  0.518724790309577  1.0000
  Pd  Pd4       1.0  0.9814311649999999  0.589342555  0.45700199306484496  1.0000
  Pd  Pd5       1.0  0.526932225  0.589342555  0.46261889835410763  1.0000
  Pd  Pd6       1.0  0.018568835000000016  0.589182645  0.5234651602970503  1.0000
  Pd  Pd7       1.0  0.7314311649999999  0.08934255500000002  0.4261405962941629  1.0000
  Pd  Pd8       1.0  0.23143116500000002  0.08934255500000002  0.4878633898355271  1.0000
