data_image0
_chemical_formula_structural       COCa2Rh2Sn4Ca2Rh2Sn4
_chemical_formula_sum              "C1 O1 Ca4 Rh4 Sn8"
_cell_length_a       8.8104237
_cell_length_b       5.936622950669292
_cell_length_c       100.76983924
_cell_angle_alpha    90.0
_cell_angle_beta     90.0
_cell_angle_gamma    111.778537837552

_space_group_name_H-M_alt    "P 1"
_space_group_IT_number       1

loop_
  _space_group_symop_operation_xyz
  'x, y, z'

loop_
  _atom_site_type_symbol
  _atom_site_label
  _atom_site_symmetry_multiplicity
  _atom_site_fract_x
  _atom_site_fract_y
  _atom_site_fract_z
  _atom_site_occupancy
  C   C1        1.0  0.029067649999999997  0.12024854  0.5351830665077575  1.0000
  O   O1        1.0  0.028511419999999996  0.11747668  0.5466822198888163  1.0000
  Ca  Ca1       1.0  0.033041680000000004  0.13028509000000002  0.5091362232121096  1.0000
  Ca  Ca2       1.0  0.47148858  0.8825233200000001  0.4688092906244057  1.0000
  Rh  Rh1       1.0  0.39795537  0.58916241  0.5066827421809638  1.0000
  Rh  Rh2       1.0  0.11028720999999998  0.43771779  0.4688092906244057  1.0000
  Sn  Sn1       1.0  0.17003376000000003  0.67703282  0.5212163036571987  1.0000
  Sn  Sn2       1.0  0.32711271999999997  0.30501986  0.4533177801111836  1.0000
  Sn  Sn3       1.0  0.32711271999999997  0.30501986  0.48430080113762786  1.0000
  Sn  Sn4       1.0  0.18223178  0.7254961  0.4914862433538367  1.0000
  Ca  Ca3       1.0  0.5341928100000001  0.13087768  0.5077267809501639  1.0000
  Ca  Ca4       1.0  0.97148858  0.8825233200000001  0.4688092906244057  1.0000
  Rh  Rh3       1.0  0.8970320100000001  0.5857391400000002  0.5065805484107393  1.0000
  Rh  Rh4       1.0  0.6102872100000001  0.43771779  0.4688092906244057  1.0000
  Sn  Sn5       1.0  0.6675034700000002  0.6675137100000001  0.5212916634710251  1.0000
  Sn  Sn6       1.0  0.8271127199999999  0.30501986  0.4533177801111836  1.0000
  Sn  Sn7       1.0  0.8271127199999999  0.30501986  0.48430080113762786  1.0000
  Sn  Sn8       1.0  0.6822317800000001  0.7254961  0.4914862433538367  1.0000
