data_image0
_chemical_formula_structural       COAl16Au16Ca16
_chemical_formula_sum              "C1 O1 Al16 Au16 Ca16"
_cell_length_a       10.808200400819919
_cell_length_b       11.745664034525628
_cell_length_c       99.63073729999999
_cell_angle_alpha    91.65364535578311
_cell_angle_beta     91.29737352342322
_cell_angle_gamma    93.27438119014208

_space_group_name_H-M_alt    "P 1"
_space_group_IT_number       1

loop_
  _space_group_symop_operation_xyz
  'x, y, z'

loop_
  _atom_site_type_symbol
  _atom_site_label
  _atom_site_symmetry_multiplicity
  _atom_site_fract_x
  _atom_site_fract_y
  _atom_site_fract_z
  _atom_site_occupancy
  C   C1        1.0  0.8082386299999998  0.22019867499999995  0.5400076797984754  1.0000
  O   O1        1.0  0.74701354  0.2621836349999999  0.5487499495629952  1.0000
  Al  Al1       1.0  0.14447927999999988  0.749669345  0.47769594057766196  1.0000
  Al  Al2       1.0  0.6444792799999999  0.32109791499999996  0.4564526852255342  1.0000
  Al  Al3       1.0  0.8675507199999999  0.3238282149999999  0.4813718170502525  1.0000
  Al  Al4       1.0  0.3675507199999999  0.8952567950000001  0.4601285616981247  1.0000
  Al  Al5       1.0  0.7992743499999997  0.953779395  0.4630293873307242  1.0000
  Al  Al6       1.0  0.29927434999999986  0.38235082499999995  0.4842726426828519  1.0000
  Al  Al7       1.0  0.21275564999999988  0.262575315  0.45355185959293487  1.0000
  Al  Al8       1.0  0.7127556499999999  0.691146735  0.4747951149450626  1.0000
  Al  Al9       1.0  0.13672452999999987  0.6202962049999999  0.519513901380439  1.0000
  Al  Al10      1.0  0.6422944999999999  0.17672518499999998  0.49901418674700815  1.0000
  Al  Al11      1.0  0.8631384699999999  0.17336761499999997  0.5224501539658325  1.0000
  Al  Al12      1.0  0.36942085999999985  0.7537978649999999  0.5008774267630965  1.0000
  Al  Al13      1.0  0.7994623299999999  0.8109780050000001  0.5045949013542844  1.0000
  Al  Al14      1.0  0.29880839999999986  0.24024895499999993  0.5239114533134203  1.0000
  Al  Al15      1.0  0.21275564999999988  0.11971816499999996  0.49603837029719033  1.0000
  Al  Al16      1.0  0.7089237299999999  0.5407075149999999  0.5169314127334996  1.0000
  Au  Au1       1.0  0.7080311699999999  0.14924216499999995  0.472718007601709  1.0000
  Au  Au2       1.0  0.20803116999999985  0.720670745  0.45147474927552544  1.0000
  Au  Au3       1.0  0.3039988299999999  0.924255395  0.4863497500262055  1.0000
  Au  Au4       1.0  0.8039988299999998  0.4956839649999999  0.4651064946740777  1.0000
  Au  Au5       1.0  0.91643938  0.827877775  0.48157254499895447  1.0000
  Au  Au6       1.0  0.41643937999999986  0.39930634499999995  0.4603292896468266  1.0000
  Au  Au7       1.0  0.09559061999999988  0.24561978499999995  0.47749521262896005  1.0000
  Au  Au8       1.0  0.5955906199999998  0.817048355  0.4562519572768323  1.0000
  Au  Au9       1.0  0.7089612099999999  0.999782835  0.5140560063558978  1.0000
  Au  Au10      1.0  0.20803116999999988  0.577813595  0.49396126295383685  1.0000
  Au  Au11      1.0  0.32589480999999987  0.7617206249999999  0.5256472788305491  1.0000
  Au  Au12      1.0  0.7988198299999999  0.350744905  0.5071111429080832  1.0000
  Au  Au13      1.0  0.90861308  0.678912965  0.521722640433889  1.0000
  Au  Au14      1.0  0.4229087399999999  0.259291825  0.5021550900607155  1.0000
  Au  Au15      1.0  0.0914750199999999  0.12600267499999995  0.519042394572515  1.0000
  Au  Au16      1.0  0.5961180999999998  0.671671385  0.49822555934225005  1.0000
  Ca  Ca1       1.0  0.10454982999999989  0.00021716500000001915  0.46533119351259844  1.0000
  Ca  Ca2       1.0  0.6045498299999998  0.428788595  0.48657445183878195  1.0000
  Ca  Ca3       1.0  0.92172812  0.728350055  0.4518553957044353  1.0000
  Ca  Ca4       1.0  0.4217281199999999  0.15692148499999994  0.473098651056563  1.0000
  Ca  Ca5       1.0  0.9074801699999998  0.21613753499999994  0.45125005043700483  1.0000
  Ca  Ca6       1.0  0.4074801699999998  0.644708965  0.47249330578913257  1.0000
  Ca  Ca7       1.0  0.09030187999999988  0.48800464499999996  0.4647258512192237  1.0000
  Ca  Ca8       1.0  0.5903018799999997  0.9165760749999999  0.48596910657135145  1.0000
  Ca  Ca9       1.0  0.09843383999999988  0.871435395  0.509951166943728  1.0000
  Ca  Ca10      1.0  0.6064769099999999  0.29710824499999994  0.5296362520024646  1.0000
  Ca  Ca11      1.0  0.9217281199999999  0.585492915  0.49434190640869086  1.0000
  Ca  Ca12      1.0  0.4224801399999999  0.01067634499999994  0.515563677181656  1.0000
  Ca  Ca13      1.0  0.9074801699999998  0.07328039499999993  0.4937365611412603  1.0000
  Ca  Ca14      1.0  0.40166707999999984  0.509986105  0.5152755625511247  1.0000
  Ca  Ca15      1.0  0.07827187999999989  0.357927905  0.5080815505519855  1.0000
  Ca  Ca16      1.0  0.6203493099999998  0.7717878549999999  0.5283982179984975  1.0000
