data_image0
_chemical_formula_structural       COCa6Ag12Ge12Ca6Ag12Ge12
_chemical_formula_sum              "C1 O1 Ca12 Ag24 Ge24"
_cell_length_a       9.897474837277088
_cell_length_b       11.976474259521206
_cell_length_c       107.55827629000001
_cell_angle_alpha    105.14921404643405
_cell_angle_beta     71.5650511587718
_cell_angle_gamma    80.48638634683543

_space_group_name_H-M_alt    "P 1"
_space_group_IT_number       1

loop_
  _space_group_symop_operation_xyz
  'x, y, z'

loop_
  _atom_site_type_symbol
  _atom_site_label
  _atom_site_symmetry_multiplicity
  _atom_site_fract_x
  _atom_site_fract_y
  _atom_site_fract_z
  _atom_site_occupancy
  C   C1        1.0  0.4866654450000001  0.45471717000000006  0.5577138710454275  1.0000
  O   O1        1.0  0.4282772450000001  0.47125917000000006  0.5697743040898557  1.0000
  Ca  Ca1       1.0  0.017566165000000085  0.003695310000000016  0.48413645118658555  1.0000
  Ca  Ca2       1.0  0.35089949500000006  0.003695310000000016  0.44533756083418813  1.0000
  Ca  Ca3       1.0  0.6842328350000001  0.003695310000000016  0.4647370042644367  1.0000
  Ca  Ca4       1.0  0.8508994950000002  0.50369531  0.4744367277255112  1.0000
  Ca  Ca5       1.0  0.18423283500000007  0.50369531  0.4356378373731137  1.0000
  Ca  Ca6       1.0  0.5175661650000001  0.50369531  0.45503728080336237  1.0000
  Ag  Ag1       1.0  0.7675661650000001  0.25369531  0.45503728080336237  1.0000
  Ag  Ag2       1.0  0.10089949500000009  0.25369531  0.4744367277255112  1.0000
  Ag  Ag3       1.0  0.4342328350000001  0.25369531  0.4356378373731137  1.0000
  Ag  Ag4       1.0  0.10089949500000009  0.25369531  0.44533756083418813  1.0000
  Ag  Ag5       1.0  0.4342328350000001  0.25369531  0.46473700426443676  1.0000
  Ag  Ag6       1.0  0.7675661650000001  0.25369531  0.48413645118658555  1.0000
  Ag  Ag7       1.0  0.9342328350000003  0.75369531  0.4647370042644367  1.0000
  Ag  Ag8       1.0  0.26756616500000013  0.75369531  0.48413645118658555  1.0000
  Ag  Ag9       1.0  0.6008994950000002  0.75369531  0.445337560834188  1.0000
  Ag  Ag10      1.0  0.6008994950000002  0.75369531  0.4744367277255111  1.0000
  Ag  Ag11      1.0  0.9342328350000003  0.75369531  0.4356378373731137  1.0000
  Ag  Ag12      1.0  0.26756616500000013  0.75369531  0.45503728080336225  1.0000
  Ge  Ge1       1.0  0.8877354650000002  0.39318742000000007  0.44104997534418294  1.0000
  Ge  Ge2       1.0  0.22106879500000004  0.39318742000000007  0.4604494222663318  1.0000
  Ge  Ge3       1.0  0.5544021250000001  0.39318742000000007  0.47984886569658036  1.0000
  Ge  Ge4       1.0  0.9807302050000003  0.11420320000000002  0.4593248662933675  1.0000
  Ge  Ge5       1.0  0.31406353500000006  0.11420320000000002  0.4787243097236162  1.0000
  Ge  Ge6       1.0  0.647396865  0.11420320000000002  0.43992541937121865  1.0000
  Ge  Ge7       1.0  0.7210687950000002  0.8931874200000001  0.43135025188310855  1.0000
  Ge  Ge8       1.0  0.05440212500000005  0.8931874200000001  0.4507496988052573  1.0000
  Ge  Ge9       1.0  0.387735465  0.8931874200000001  0.47014914223550597  1.0000
  Ge  Ge10      1.0  0.8140635350000002  0.6142032000000001  0.4496251428322931  1.0000
  Ge  Ge11      1.0  0.1473968650000001  0.6142032000000001  0.46902458975444195  1.0000
  Ge  Ge12      1.0  0.4807302050000001  0.6142032000000001  0.4302256959101443  1.0000
  Ca  Ca7       1.0  0.06805858500000003  0.9963046900000001  0.5382959484794969  1.0000
  Ca  Ca8       1.0  0.35089949500000006  0.003695310000000016  0.5035358946168342  1.0000
  Ca  Ca9       1.0  0.6914316250000001  0.004703320000000016  0.5209357049085596  1.0000
  Ca  Ca10      1.0  0.881555335  0.5011234800000001  0.529943019485592  1.0000
  Ca  Ca11      1.0  0.18423283500000007  0.50369531  0.49383617115575984  1.0000
  Ca  Ca12      1.0  0.5175661650000001  0.50369531  0.5132356180779086  1.0000
  Ag  Ag13      1.0  0.7675661650000001  0.25369531  0.5132356180779086  1.0000
  Ag  Ag14      1.0  0.13912284500000008  0.23930454000000004  0.5306891023670954  1.0000
  Ag  Ag15      1.0  0.4342328350000001  0.25369531  0.4938361711557598  1.0000
  Ag  Ag16      1.0  0.10089949500000009  0.25369531  0.5035358946168342  1.0000
  Ag  Ag17      1.0  0.44513219500000006  0.2711911  0.5263128889589609  1.0000
  Ag  Ag18      1.0  0.7650893150000001  0.2807821100000001  0.5405521280313625  1.0000
  Ag  Ag19      1.0  0.9463789350000003  0.7453924999999999  0.5228731577808157  1.0000
  Ag  Ag20      1.0  0.29802533500000006  0.75221013  0.5396943322797282  1.0000
  Ag  Ag21      1.0  0.6008994950000002  0.75369531  0.5035358946168342  1.0000
  Ag  Ag22      1.0  0.6106964750000003  0.7525570600000001  0.5320438024962422  1.0000
  Ag  Ag23      1.0  0.9342328350000003  0.75369531  0.49383617115575973  1.0000
  Ag  Ag24      1.0  0.26756616500000013  0.75369531  0.5132356180779085  1.0000
  Ge  Ge13      1.0  0.8877354650000002  0.39318742000000007  0.4992483126187292  1.0000
  Ge  Ge14      1.0  0.23240450500000007  0.40135751000000003  0.5192447033662645  1.0000
  Ge  Ge15      1.0  0.5705962250000001  0.45275751000000003  0.5388667519402358  1.0000
  Ge  Ge16      1.0  0.9824338350000001  0.12066380000000002  0.5189813512394971  1.0000
  Ge  Ge17      1.0  0.3208954050000001  0.13163833000000003  0.540332564332685  1.0000
  Ge  Ge18      1.0  0.647396865  0.11420320000000002  0.49812375664576497  1.0000
  Ge  Ge19      1.0  0.7210687950000002  0.8931874200000001  0.4895485891576548  1.0000
  Ge  Ge20      1.0  0.05440212500000005  0.8931874200000001  0.5089480360798037  1.0000
  Ge  Ge21      1.0  0.405730095  0.91038419  0.5291354372583539  1.0000
  Ge  Ge22      1.0  0.8140635350000002  0.6142032000000001  0.5078234801068393  1.0000
  Ge  Ge23      1.0  0.13304421500000008  0.6257591  0.5314392952150948  1.0000
  Ge  Ge24      1.0  0.4807302050000001  0.6142032000000001  0.4884240331846906  1.0000
