data_image0
_chemical_formula_structural       COCa16Al16Au16
_chemical_formula_sum              "C1 O1 Ca16 Al16 Au16"
_cell_length_a       15.500829376497558
_cell_length_b       9.120172837134557
_cell_length_c       106.48069136000001
_cell_angle_alpha    60.5537163263562
_cell_angle_beta     98.60146735796958
_cell_angle_gamma    81.39853258157713

_space_group_name_H-M_alt    "P 1"
_space_group_IT_number       1

loop_
  _space_group_symop_operation_xyz
  'x, y, z'

loop_
  _atom_site_type_symbol
  _atom_site_label
  _atom_site_symmetry_multiplicity
  _atom_site_fract_x
  _atom_site_fract_y
  _atom_site_fract_z
  _atom_site_occupancy
  C   C1        1.0  0.132531345  0.98408324  0.544122835631581  1.0000
  O   O1        1.0  0.18021544499999997  0.96270265  0.5549176994974826  1.0000
  Ca  Ca1       1.0  0.767693105  0.7086912  0.5130713497485168  1.0000
  Ca  Ca2       1.0  0.26142652499999997  0.94644273  0.4907370754003178  1.0000
  Ca  Ca3       1.0  0.26142652499999997  0.44644272999999995  0.4479115982010496  1.0000
  Ca  Ca4       1.0  0.761426525  0.19644272999999998  0.46932433680068375  1.0000
  Ca  Ca5       1.0  0.5114265250000001  0.7542644399999999  0.49568956090328276  1.0000
  Ca  Ca6       1.0  0.01142652499999997  0.004264440000000036  0.4742768223036487  1.0000
  Ca  Ca7       1.0  0.022441924999999988  0.50834747  0.5180115049400864  1.0000
  Ca  Ca8       1.0  0.511426525  0.25426444  0.45286408370401454  1.0000
  Ca  Ca9       1.0  0.7471785850000001  0.6363884099999999  0.4629602790307345  1.0000
  Ca  Ca10      1.0  0.24539827500000003  0.90085874  0.5261639135254188  1.0000
  Ca  Ca11      1.0  0.24717858499999998  0.38638840999999996  0.4843730176303687  1.0000
  Ca  Ca12      1.0  0.743119395  0.14906028999999998  0.505887211498507  1.0000
  Ca  Ca13      1.0  0.9971785849999999  0.5785667  0.47942053212740376  1.0000
  Ca  Ca14      1.0  0.497178585  0.8285667  0.4580077935277696  1.0000
  Ca  Ca15      1.0  0.496684665  0.33202278999999996  0.5027557920494675  1.0000
  Ca  Ca16      1.0  0.002821414999999992  0.06965199999999998  0.5219392727027418  1.0000
  Al  Al1       1.0  0.681808445  0.38758626  0.5189526787394756  1.0000
  Al  Al2       1.0  0.176905025  0.6142525200000001  0.4978707960725304  1.0000
  Al  Al3       1.0  0.176905025  0.11425251999999998  0.45504531887326205  1.0000
  Al  Al4       1.0  0.6769050249999999  0.86425252  0.4764580574728962  1.0000
  Al  Al5       1.0  0.831700085  0.96857862  0.45582655835852204  1.0000
  Al  Al6       1.0  0.317441645  0.26173229  0.5181137790317147  1.0000
  Al  Al7       1.0  0.331700085  0.7185786200000001  0.4772392969581562  1.0000
  Al  Al8       1.0  0.832666955  0.48283667999999996  0.497003460247909  1.0000
  Al  Al9       1.0  0.5684936650000001  0.92880615  0.5140140001703597  1.0000
  Al  Al10      1.0  0.08170008499999999  0.16185499  0.49379360165483127  1.0000
  Al  Al11      1.0  0.08170008499999999  0.6618549899999999  0.4509681244555631  1.0000
  Al  Al12      1.0  0.5817000850000003  0.41185499000000003  0.47238086305519716  1.0000
  Al  Al13      1.0  0.9269050249999999  0.42097615  0.45990375277622114  1.0000
  Al  Al14      1.0  0.429058875  0.7016586499999999  0.5220330947581899  1.0000
  Al  Al15      1.0  0.42690502500000005  0.17097615  0.48131649137585525  1.0000
  Al  Al16      1.0  0.9240309749999999  0.92282578  0.5023296751252966  1.0000
  Au  Au1       1.0  0.650098445  0.03729735000000001  0.4461580285252284  1.0000
  Au  Au2       1.0  0.14658688499999997  0.29301993000000004  0.5094591989007436  1.0000
  Au  Au3       1.0  0.15009844500000002  0.78729735  0.4675707671248625  1.0000
  Au  Au4       1.0  0.650098445  0.53729735  0.48898350572449667  1.0000
  Au  Au5       1.0  0.857350945  0.31716046000000003  0.5250460897716399  1.0000
  Au  Au6       1.0  0.35791377500000005  0.5605748100000001  0.5079628390409812  1.0000
  Au  Au7       1.0  0.3585066650000001  0.045533789999999984  0.4647138487065558  1.0000
  Au  Au8       1.0  0.858506665  0.79553379  0.48612658730618985  1.0000
  Au  Au9       1.0  0.6044092249999999  0.58887264  0.5265939806716066  1.0000
  Au  Au10      1.0  0.106652225  0.82157196  0.507093773067081  1.0000
  Au  Au11      1.0  0.10850666499999999  0.30809324  0.46578957672926696  1.0000
  Au  Au12      1.0  0.608506665  0.058093239999999984  0.48720231532890107  1.0000
  Au  Au13      1.0  0.9000984450000001  0.7747379  0.44508230050251724  1.0000
  Au  Au14      1.0  0.39341824500000006  0.04387605999999999  0.5098618508894475  1.0000
  Au  Au15      1.0  0.400098445  0.5247379  0.46649503910215134  1.0000
  Au  Au16      1.0  0.9000984450000002  0.2747379  0.4879077777017855  1.0000
