data_image0
_chemical_formula_structural       COAu8Zn8
_chemical_formula_sum              "C1 O1 Au8 Zn8"
_cell_length_a       4.55658187
_cell_length_b       5.58065028
_cell_length_c       101.56892524
_cell_angle_alpha    90.0
_cell_angle_beta     90.0
_cell_angle_gamma    90.0

_space_group_name_H-M_alt    "P 1"
_space_group_IT_number       1

loop_
  _space_group_symop_operation_xyz
  'x, y, z'

loop_
  _atom_site_type_symbol
  _atom_site_label
  _atom_site_symmetry_multiplicity
  _atom_site_fract_x
  _atom_site_fract_y
  _atom_site_fract_z
  _atom_site_occupancy
  C   C1        1.0  0.9499581899999999  0.22342512000000003  0.5501750515312359  1.0000
  O   O1        1.0  0.8210782299999999  0.18980378000000003  0.5598128601336104  1.0000
  Au  Au1       1.0  0.05394606999999998  0.09714468000000004  0.47903874379619005  1.0000
  Au  Au2       1.0  0.55394607  0.09714468000000004  0.4401871398663895  1.0000
  Au  Au3       1.0  0.05394606999999998  0.7638113400000001  0.45313767243757086  1.0000
  Au  Au4       1.0  0.55394607  0.43047801  0.46608820811688045  1.0000
  Au  Au5       1.0  0.050041809999999985  0.7490902199999999  0.5280676963224591  1.0000
  Au  Au6       1.0  0.55394607  0.7638113400000001  0.4919892763673714  1.0000
  Au  Au7       1.0  0.05361165999999998  0.43999484  0.5038703672562678  1.0000
  Au  Au8       1.0  0.5483561899999999  0.054365190000000035  0.519126369545285  1.0000
  Zn  Zn1       1.0  0.05394606999999998  0.26381134  0.45313767243757086  1.0000
  Zn  Zn2       1.0  0.55394607  0.93047801  0.46608820811688045  1.0000
  Zn  Zn3       1.0  0.05394606999999998  0.5971446800000001  0.47903874379619005  1.0000
  Zn  Zn4       1.0  0.55394607  0.5971446800000001  0.4401871398663895  1.0000
  Zn  Zn5       1.0  0.05076596999999998  0.94563481  0.504024005146976  1.0000
  Zn  Zn6       1.0  0.5507590099999999  0.54049982  0.5207695903631752  1.0000
  Zn  Zn7       1.0  0.05218978999999998  0.25025487  0.5295476720250212  1.0000
  Zn  Zn8       1.0  0.55394607  0.26381134  0.4919892763673714  1.0000
