data_image0
_chemical_formula_structural       COCa8Pb4Au8Ca8Pb4Au8
_chemical_formula_sum              "C1 O1 Ca16 Pb8 Au16"
_cell_length_a       7.60258844
_cell_length_b       11.86105405
_cell_length_c       105.58316214999999
_cell_angle_alpha    90.0
_cell_angle_beta     90.0
_cell_angle_gamma    90.0

_space_group_name_H-M_alt    "P 1"
_space_group_IT_number       1

loop_
  _space_group_symop_operation_xyz
  'x, y, z'

loop_
  _atom_site_type_symbol
  _atom_site_label
  _atom_site_symmetry_multiplicity
  _atom_site_fract_x
  _atom_site_fract_y
  _atom_site_fract_z
  _atom_site_occupancy
  C   C1        1.0  0.11992500499999996  0.8208395549999999  0.5561956697154242  1.0000
  O   O1        1.0  0.11992046499999996  0.860724045  0.5663727390790899  1.0000
  Ca  Ca1       1.0  0.35976574499999997  0.750368025  0.5386958096192408  1.0000
  Ca  Ca2       1.0  0.369922635  0.253643795  0.48422228910719217  1.0000
  Ca  Ca3       1.0  0.369922635  0.426333685  0.4474527623496395  1.0000
  Ca  Ca4       1.0  0.369922635  0.9263336849999999  0.5036220134200436  1.0000
  Ca  Ca5       1.0  0.369922635  0.580953905  0.5036220134200436  1.0000
  Ca  Ca6       1.0  0.369922635  0.08095390499999996  0.4474527623496395  1.0000
  Ca  Ca7       1.0  0.36961994499999995  0.25329697500000004  0.5228513494365659  1.0000
  Ca  Ca8       1.0  0.369922635  0.753643795  0.466852486662491  1.0000
  Pb  Pb1       1.0  0.11992263499999996  0.503643795  0.4755373895699191  1.0000
  Pb  Pb2       1.0  0.11992165499999996  0.00033397499999996577  0.5314159344404524  1.0000
  Pb  Pb3       1.0  0.11992308499999996  0.5025515649999999  0.5311263707231255  1.0000
  Pb  Pb4       1.0  0.11992263499999996  0.0036437949999999658  0.4755373895699191  1.0000
  Au  Au1       1.0  0.11992263499999996  0.253643795  0.43362726092091025  1.0000
  Au  Au2       1.0  0.11992263499999996  0.753643795  0.48979651199131435  1.0000
  Au  Au3       1.0  0.11992263499999996  0.37671381499999995  0.5036220134200436  1.0000
  Au  Au4       1.0  0.11992263499999996  0.876713815  0.4474527623496395  1.0000
  Au  Au5       1.0  0.11992263499999996  0.630573775  0.4474527623496395  1.0000
  Au  Au6       1.0  0.11992263499999996  0.13057377499999995  0.5036220134200436  1.0000
  Au  Au7       1.0  0.11992256499999997  0.753931405  0.516935315322201  1.0000
  Au  Au8       1.0  0.11992263499999996  0.253643795  0.46127826377836884  1.0000
  Ca  Ca9       1.0  0.880079535  0.750367345  0.5386957051444359  1.0000
  Ca  Ca10      1.0  0.869922635  0.253643795  0.48422228910719217  1.0000
  Ca  Ca11      1.0  0.869922635  0.426333685  0.4474527623496395  1.0000
  Ca  Ca12      1.0  0.869922635  0.9263336849999999  0.5036220134200436  1.0000
  Ca  Ca13      1.0  0.869922635  0.580953905  0.5036220134200436  1.0000
  Ca  Ca14      1.0  0.869922635  0.08095390499999996  0.4474527623496395  1.0000
  Ca  Ca15      1.0  0.870225265  0.25329710499999997  0.5228513561768758  1.0000
  Ca  Ca16      1.0  0.869922635  0.753643795  0.466852486662491  1.0000
  Pb  Pb5       1.0  0.619922635  0.503643795  0.4755373895699191  1.0000
  Pb  Pb6       1.0  0.619923355  0.9996660250000001  0.5314252326980886  1.0000
  Pb  Pb7       1.0  0.619921995  0.504884955  0.5312975442655691  1.0000
  Pb  Pb8       1.0  0.619922635  0.0036437949999999658  0.4755373895699191  1.0000
  Au  Au9       1.0  0.619922635  0.253643795  0.43362726092091025  1.0000
  Au  Au10      1.0  0.619922635  0.753643795  0.48979651199131435  1.0000
  Au  Au11      1.0  0.619922635  0.37671381499999995  0.5036220134200436  1.0000
  Au  Au12      1.0  0.619922635  0.876713815  0.4474527623496395  1.0000
  Au  Au13      1.0  0.619922635  0.630573775  0.4474527623496395  1.0000
  Au  Au14      1.0  0.619922635  0.13057377499999995  0.5036220134200436  1.0000
  Au  Au15      1.0  0.6199223349999999  0.753839825  0.5176366041351795  1.0000
  Au  Au16      1.0  0.619922635  0.253643795  0.46127826377836884  1.0000
