data_image0
_chemical_formula_structural       COZn5Au5Zn5Au5
_chemical_formula_sum              "C1 O1 Zn10 Au10"
_cell_length_a       4.55658187
_cell_length_b       7.204588526204235
_cell_length_c       103.48390167
_cell_angle_alpha    75.03678255476557
_cell_angle_beta     90.0
_cell_angle_gamma    71.56505113275034

_space_group_name_H-M_alt    "P 1"
_space_group_IT_number       1

loop_
  _space_group_symop_operation_xyz
  'x, y, z'

loop_
  _atom_site_type_symbol
  _atom_site_label
  _atom_site_symmetry_multiplicity
  _atom_site_fract_x
  _atom_site_fract_y
  _atom_site_fract_z
  _atom_site_occupancy
  C   C1        1.0  0.8216112299999999  0.7381733899999999  0.5543249932456454  1.0000
  O   O1        1.0  0.9508765899999999  0.65732372  0.564910583994542  1.0000
  Zn  Zn1       1.0  0.85234899  0.5  0.46744604455313005  1.0000
  Zn  Zn2       1.0  0.6523489899999999  0.9  0.47823158632379986  1.0000
  Zn  Zn3       1.0  0.052348989999999894  0.09999999999999994  0.45666049954679755  1.0000
  Zn  Zn4       1.0  0.4523489899999998  0.3  0.43508941600545814  1.0000
  Zn  Zn5       1.0  0.2523489899999999  0.6999999999999998  0.4458749577761279  1.0000
  Au  Au1       1.0  0.85234899  0.5  0.44048218527296157  1.0000
  Au  Au2       1.0  0.6523489899999999  0.9  0.4512677302792941  1.0000
  Au  Au3       1.0  0.052348989999999894  0.09999999999999994  0.483624358826966  1.0000
  Au  Au4       1.0  0.4523489899999998  0.3  0.4620532720499638  1.0000
  Au  Au5       1.0  0.2523489899999999  0.6999999999999998  0.47283881382063353  1.0000
  Zn  Zn6       1.0  0.8652261899999999  0.50814967  0.524300581948747  1.0000
  Zn  Zn7       1.0  0.6763454099999999  0.8897572499999999  0.5331330420279876  1.0000
  Zn  Zn8       1.0  0.0491234100000002  0.11315347999999995  0.5088318970739042  1.0000
  Zn  Zn9       1.0  0.4523489899999998  0.3  0.48901712809446957  1.0000
  Zn  Zn10      1.0  0.2523489899999999  0.6999999999999998  0.49980267310080206  1.0000
  Au  Au6       1.0  0.85234899  0.5  0.4944099005976358  1.0000
  Au  Au7       1.0  0.6523489899999999  0.9  0.5051954423683056  1.0000
  Au  Au8       1.0  0.0722500399999999  0.10313928999999993  0.533851757168277  1.0000
  Au  Au9       1.0  0.46201694  0.3154570799999999  0.5184137690269376  1.0000
  Au  Au10      1.0  0.26201045999999983  0.71494393  0.5261469806001913  1.0000
