data_image0
_chemical_formula_structural       COAg20In10Na10
_chemical_formula_sum              "C1 O1 Ag20 In10 Na10"
_cell_length_a       4.97144269
_cell_length_b       14.914328076795949
_cell_length_c       105.50320217000001
_cell_angle_alpha    98.0494669861604
_cell_angle_beta     90.0
_cell_angle_gamma    90.0

_space_group_name_H-M_alt    "P 1"
_space_group_IT_number       1

loop_
  _space_group_symop_operation_xyz
  'x, y, z'

loop_
  _atom_site_type_symbol
  _atom_site_label
  _atom_site_symmetry_multiplicity
  _atom_site_fract_x
  _atom_site_fract_y
  _atom_site_fract_z
  _atom_site_occupancy
  C   C1        1.0  0.5002329100000001  0.56660271  0.5559058770434696  1.0000
  O   O1        1.0  0.49993848000000013  0.56280456  0.5668709050857066  1.0000
  Ag  Ag1       1.0  0.5000314000000001  0.15956447  0.47238894609686205  1.0000
  Ag  Ag2       1.0  0.5000314000000001  0.69289781  0.4499547463825743  1.0000
  Ag  Ag3       1.0  0.5000314000000001  0.62623114  0.4948231491762801  1.0000
  Ag  Ag4       1.0  0.50046533  0.53452243  0.5358099683999016  1.0000
  Ag  Ag5       1.0  0.49997014  0.14016645000000003  0.5313956106714651  1.0000
  Ag  Ag6       1.0  3.140000000004773e-05  0.12623114  0.49482314917628006  1.0000
  Ag  Ag7       1.0  3.140000000004773e-05  0.6595644700000001  0.472388946096862  1.0000
  Ag  Ag8       1.0  0.00012314000000004772  0.57631626  0.5196750166546542  1.0000
  Ag  Ag9       1.0  3.140000000004773e-05  0.19289781000000003  0.4499547463825743  1.0000
  Ag  Ag10      1.0  0.00012155000000004773  0.05247063999999999  0.5377834086790527  1.0000
  Ag  Ag11      1.0  3.140000000004773e-05  0.95956447  0.43873764316030023  1.0000
  Ag  Ag12      1.0  0.99996929  0.8482313499999999  0.5262718565560837  1.0000
  Ag  Ag13      1.0  3.140000000004773e-05  0.42623114  0.46117184623971813  1.0000
  Ag  Ag14      1.0  3.140000000004773e-05  0.35956447  0.5060402490334238  1.0000
  Ag  Ag15      1.0  3.140000000004773e-05  0.89289781  0.48360604931913614  1.0000
  Ag  Ag16      1.0  0.5000314000000001  0.9262311400000001  0.4611718462397182  1.0000
  Ag  Ag17      1.0  0.5000314000000001  0.45956446999999995  0.4387376431603002  1.0000
  Ag  Ag18      1.0  0.5000314000000001  0.39289780999999996  0.48360604931913614  1.0000
  Ag  Ag19      1.0  0.50013852  0.33029052999999997  0.5271044705538612  1.0000
  Ag  Ag20      1.0  0.5000314000000001  0.8595644699999999  0.5060402490334239  1.0000
  In  In1       1.0  3.140000000004773e-05  0.27623114  0.4779974977079991  1.0000
  In  In2       1.0  3.140000000004773e-05  0.80956447  0.4555632946285812  1.0000
  In  In3       1.0  3.140000000004773e-05  0.7428978099999999  0.5004317007874172  1.0000
  In  In4       1.0  3.140000000004773e-05  0.34289781  0.4331290949142934  1.0000
  In  In5       1.0  9.063000000004772e-05  0.21167071  0.5226560072298987  1.0000
  In  In6       1.0  0.5000314000000001  0.009564469999999992  0.48921459756514296  1.0000
  In  In7       1.0  0.5000314000000001  0.54289781  0.4667803978508553  1.0000
  In  In8       1.0  0.5000332800000001  0.47349247999999994  0.5100552734801727  1.0000
  In  In9       1.0  0.5000314000000001  0.07623114  0.4443461947714373  1.0000
  In  In10      1.0  0.50011331  0.9478519400000001  0.533518318035052  1.0000
  Na  Na1       1.0  3.140000000004773e-05  0.04289781  0.4667803978508553  1.0000
  Na  Na2       1.0  3.140000000004773e-05  0.5762311399999999  0.4443461947714373  1.0000
  Na  Na3       1.0  3.140000000004773e-05  0.5095644699999999  0.48921459756514296  1.0000
  Na  Na4       1.0  0.0004586900000000477  0.42192246999999994  0.5389866143806797  1.0000
  Na  Na5       1.0  3.0709999999878335e-05  0.9904355300000001  0.5108031164807227  1.0000
  Na  Na6       1.0  0.5000314000000001  0.24289781  0.5004317007874172  1.0000
  Na  Na7       1.0  0.5000314000000001  0.7762311399999999  0.47799749770799915  1.0000
  Na  Na8       1.0  0.5000360100000001  0.71470175  0.5247139358353325  1.0000
  Na  Na9       1.0  0.5000314000000001  0.30956447  0.4555632946285811  1.0000
  Na  Na10      1.0  0.5000314000000001  0.84289781  0.43312909491429336  1.0000
