data_image0
_chemical_formula_structural       COAg4Au4Zn8
_chemical_formula_sum              "C1 O1 Ag4 Au4 Zn8"
_cell_length_a       4.55637548
_cell_length_b       4.55637548
_cell_length_c       108.66212798000001
_cell_angle_alpha    90.0
_cell_angle_beta     90.0
_cell_angle_gamma    90.0

_space_group_name_H-M_alt    "P 1"
_space_group_IT_number       1

loop_
  _space_group_symop_operation_xyz
  'x, y, z'

loop_
  _atom_site_type_symbol
  _atom_site_label
  _atom_site_symmetry_multiplicity
  _atom_site_fract_x
  _atom_site_fract_y
  _atom_site_fract_z
  _atom_site_occupancy
  C   C1        1.0  0.7499853  2.0524999999989135e-05  0.5570487184585338  1.0000
  O   O1        1.0  0.7499881199999999  1.6574999999989137e-05  0.5676592260131079  1.0000
  Ag  Ag1       1.0  0.74998894  1.5964999999989135e-05  0.47681593830899605  1.0000
  Ag  Ag2       1.0  0.24998894  0.500015965  0.4471658299469311  1.0000
  Ag  Ag3       1.0  0.7500138900000001  0.999984035  0.5370047154460845  1.0000
  Ag  Ag4       1.0  0.24998894  0.500015965  0.5064660502290742  1.0000
  Au  Au1       1.0  0.74998894  1.5964999999989135e-05  0.4471658299469311  1.0000
  Au  Au2       1.0  0.24998894  0.500015965  0.47681593830899605  1.0000
  Au  Au3       1.0  0.74998894  1.5964999999989135e-05  0.5064660502290742  1.0000
  Au  Au4       1.0  0.24998611  0.500019565  0.5345028558064797  1.0000
  Zn  Zn1       1.0  0.74998894  0.500015965  0.432340773986892  1.0000
  Zn  Zn2       1.0  0.24998894  1.5964999999989135e-05  0.432340773986892  1.0000
  Zn  Zn3       1.0  0.24998894  1.5964999999989135e-05  0.46199088590697013  1.0000
  Zn  Zn4       1.0  0.74998894  0.500015965  0.46199088590697013  1.0000
  Zn  Zn5       1.0  0.74998894  0.500015965  0.4916409942690351  1.0000
  Zn  Zn6       1.0  0.24998894  1.5964999999989135e-05  0.4916409942690351  1.0000
  Zn  Zn7       1.0  0.24999411  1.8764999999989135e-05  0.5215117599323612  1.0000
  Zn  Zn8       1.0  0.7499868199999999  0.5000093250000001  0.521511752816335  1.0000
