data_image0
_chemical_formula_structural       COCaCu5CaCu5CaCu5CaCu5
_chemical_formula_sum              "C1 O1 Ca4 Cu20"
_cell_length_a       5.199088641067734
_cell_length_b       8.19966638
_cell_length_c       106.39362048000001
_cell_angle_alpha    90.0
_cell_angle_beta     119.99999999320643
_cell_angle_gamma    90.0

_space_group_name_H-M_alt    "P 1"
_space_group_IT_number       1

loop_
  _space_group_symop_operation_xyz
  'x, y, z'

loop_
  _atom_site_type_symbol
  _atom_site_label
  _atom_site_symmetry_multiplicity
  _atom_site_fract_x
  _atom_site_fract_y
  _atom_site_fract_z
  _atom_site_occupancy
  C   C1        1.0  0.09519127499999996  0.25236117499999994  0.5409482830808533  1.0000
  O   O1        1.0  0.333850665  0.25235675499999993  0.5518929524783279  1.0000
  Ca  Ca1       1.0  0.23814205499999996  0.0023561949999999325  0.4725403195193834  1.0000
  Cu  Cu1       1.0  0.9048087250000001  0.0023561949999999325  0.488829168658077  1.0000
  Cu  Cu2       1.0  0.571475385  0.0023561949999999325  0.45625147038068975  1.0000
  Cu  Cu3       1.0  0.23814205499999996  0.25235619499999995  0.4481070475216721  1.0000
  Cu  Cu4       1.0  0.738142055  0.25235619499999995  0.448107047521672  1.0000
  Cu  Cu5       1.0  0.738142055  0.25235619499999995  0.47254031951938336  1.0000
  Ca  Ca2       1.0  0.23622043499999998  0.9988789349999999  0.5208151785922979  1.0000
  Cu  Cu6       1.0  0.889306395  0.0011210650000001987  0.535574254676634  1.0000
  Cu  Cu7       1.0  0.571475385  0.0023561949999999325  0.5051180177967706  1.0000
  Cu  Cu8       1.0  0.23814205499999996  0.25235619499999995  0.49697359151709475  1.0000
  Cu  Cu9       1.0  0.738142055  0.25235619499999995  0.49697359151709475  1.0000
  Cu  Cu10      1.0  0.7682218749999999  0.2523598249999999  0.5213936768776452  1.0000
  Ca  Ca3       1.0  0.23814205499999996  0.5023561949999998  0.4725403195193834  1.0000
  Cu  Cu11      1.0  0.9048087250000001  0.5023561949999998  0.488829168658077  1.0000
  Cu  Cu12      1.0  0.571475385  0.5023561949999998  0.45625147038068975  1.0000
  Cu  Cu13      1.0  0.23814205499999996  0.7523561949999998  0.4481070475216721  1.0000
  Cu  Cu14      1.0  0.738142055  0.7523561949999998  0.448107047521672  1.0000
  Cu  Cu15      1.0  0.738142055  0.7523561949999998  0.47254031951938336  1.0000
  Ca  Ca4       1.0  0.23622522499999996  0.5058317449999998  0.5208166699992504  1.0000
  Cu  Cu16      1.0  0.889315065  0.5035893449999999  0.5355758247587241  1.0000
  Cu  Cu17      1.0  0.571475385  0.5023561949999998  0.5051180177967706  1.0000
  Cu  Cu18      1.0  0.23814205499999996  0.7523561949999998  0.49697359151709475  1.0000
  Cu  Cu19      1.0  0.738142055  0.7523561949999998  0.49697359151709475  1.0000
  Cu  Cu20      1.0  0.738627485  0.7523521049999998  0.5213135650638169  1.0000
