data_image0
_chemical_formula_structural       COCa4Ge8Ni4Ca4Ge8Ni4
_chemical_formula_sum              "C1 O1 Ca8 Ge16 Ni8"
_cell_length_a       8.57004006
_cell_length_b       9.036971910197174
_cell_length_c       98.91597394
_cell_angle_alpha    90.0
_cell_angle_beta     90.0
_cell_angle_gamma    103.71442469741534

_space_group_name_H-M_alt    "P 1"
_space_group_IT_number       1

loop_
  _space_group_symop_operation_xyz
  'x, y, z'

loop_
  _atom_site_type_symbol
  _atom_site_label
  _atom_site_symmetry_multiplicity
  _atom_site_fract_x
  _atom_site_fract_y
  _atom_site_fract_z
  _atom_site_occupancy
  C   C1        1.0  0.16091069000000008  0.64794722  0.5358682060205612  1.0000
  O   O1        1.0  0.15987593000000005  0.6444505700000001  0.5477023980043186  1.0000
  Ca  Ca1       1.0  0.44269164000000016  0.7743905000000001  0.45229760199568125  1.0000
  Ca  Ca2       1.0  0.05134326000000004  0.20899702  0.47317822002350657  1.0000
  Ca  Ca3       1.0  0.4423093500000001  0.7858268700000001  0.4948587603451561  1.0000
  Ca  Ca4       1.0  0.053871440000000055  0.20997269000000002  0.5147670786392552  1.0000
  Ge  Ge1       1.0  0.3722167600000001  0.49249100000000007  0.47317822002350657  1.0000
  Ge  Ge2       1.0  0.12181814000000003  0.49089652000000006  0.45229760199568125  1.0000
  Ge  Ge3       1.0  0.26850954000000005  0.07766213000000001  0.45229760199568125  1.0000
  Ge  Ge4       1.0  0.22552536000000006  0.9057253900000001  0.47317822002350657  1.0000
  Ge  Ge5       1.0  0.3777442900000001  0.5037178800000001  0.5155928574029003  1.0000
  Ge  Ge6       1.0  0.12580084000000008  0.5082104700000001  0.4957756433351405  1.0000
  Ge  Ge7       1.0  0.2679796300000001  0.07196211  0.49469821344605286  1.0000
  Ge  Ge8       1.0  0.22863334000000002  0.9291614  0.5169045857882777  1.0000
  Ni  Ni1       1.0  0.15809651000000005  0.6360099900000001  0.47317822002350657  1.0000
  Ni  Ni2       1.0  0.33593839  0.34737753000000005  0.45229760199568125  1.0000
  Ni  Ni3       1.0  0.15967640000000005  0.64337498  0.5178620118398729  1.0000
  Ni  Ni4       1.0  0.33526198000000007  0.35109811  0.4946636865082285  1.0000
  Ca  Ca5       1.0  0.9426916400000002  0.7743905000000001  0.45229760199568125  1.0000
  Ca  Ca6       1.0  0.5513432600000001  0.20899702  0.47317822002350657  1.0000
  Ca  Ca7       1.0  0.9486567400000001  0.7849823400000001  0.49481154342027783  1.0000
  Ca  Ca8       1.0  0.5489745800000001  0.21061073  0.5147176517097205  1.0000
  Ge  Ge9       1.0  0.8722167599999999  0.49249100000000007  0.47317822002350657  1.0000
  Ge  Ge10      1.0  0.62181814  0.49089652000000006  0.45229760199568125  1.0000
  Ge  Ge11      1.0  0.7685095399999999  0.07766213000000001  0.45229760199568125  1.0000
  Ge  Ge12      1.0  0.72552536  0.9057253900000001  0.47317822002350657  1.0000
  Ge  Ge13      1.0  0.8711322899999999  0.50377418  0.5156621626811949  1.0000
  Ge  Ge14      1.0  0.62461275  0.5001570000000001  0.4943649412359442  1.0000
  Ge  Ge15      1.0  0.7663800300000001  0.0708386  0.49511402465281446  1.0000
  Ge  Ge16      1.0  0.7292805  0.9131900799999999  0.5165099537928053  1.0000
  Ni  Ni5       1.0  0.65809651  0.6360099900000001  0.47317822002350657  1.0000
  Ni  Ni6       1.0  0.8359383899999999  0.34737753000000005  0.45229760199568125  1.0000
  Ni  Ni7       1.0  0.6587961400000001  0.64133258  0.5150033503539879  1.0000
  Ni  Ni8       1.0  0.83824843  0.35034837999999996  0.494872830123477  1.0000
