data_image0
_chemical_formula_structural       COIn6Na18
_chemical_formula_sum              "C1 O1 In6 Na18"
_cell_length_a       9.413142705925997
_cell_length_b       6.217032778434666
_cell_length_c       109.41278013
_cell_angle_alpha    90.55403756116569
_cell_angle_beta     94.22725462832555
_cell_angle_gamma    88.84006255338655

_space_group_name_H-M_alt    "P 1"
_space_group_IT_number       1

loop_
  _space_group_symop_operation_xyz
  'x, y, z'

loop_
  _atom_site_type_symbol
  _atom_site_label
  _atom_site_symmetry_multiplicity
  _atom_site_fract_x
  _atom_site_fract_y
  _atom_site_fract_z
  _atom_site_occupancy
  C   C1        1.0  0.93262315  0.41389158000000004  0.5566435513613766  1.0000
  O   O1        1.0  0.94893254  0.40511013  0.5674306643299918  1.0000
  In  In1       1.0  0.04166667000000004  0.08048643  0.49760923489335335  1.0000
  In  In2       1.0  0.93216328  0.41425751  0.5350385445404314  1.0000
  In  In3       1.0  0.48611110999999996  0.7471531000000001  0.5176215137942041  1.0000
  In  In4       1.0  0.70833333  0.08048643  0.4375724053952209  1.0000
  In  In5       1.0  0.59722222  0.41381976000000004  0.47759695959471254  1.0000
  In  In6       1.0  0.15277778000000006  0.7471530999999999  0.45758468069386177  1.0000
  Na  Na1       1.0  0.5723783  0.24951630000000002  0.5322885346412739  1.0000
  Na  Na2       1.0  0.12500000000000006  0.5804864300000001  0.5126184440689914  1.0000
  Na  Na3       1.0  0.6805555600000001  0.9138197599999999  0.4926061651681407  1.0000
  Na  Na4       1.0  0.2647177400000001  0.60372146  0.5431462977529318  1.0000
  Na  Na5       1.0  0.8592193  0.91951357  0.5234674646171881  1.0000
  Na  Na6       1.0  0.4027777800000001  0.2471531  0.502612304618566  1.0000
  Na  Na7       1.0  0.67774281  0.73405336  0.5464416534153861  1.0000
  Na  Na8       1.0  0.20840669000000003  0.08683415  0.5272713046288894  1.0000
  Na  Na9       1.0  0.76388889  0.41381976000000004  0.5076153743437787  1.0000
  Na  Na10      1.0  0.23611111000000004  0.2471531  0.47259388986949974  1.0000
  Na  Na11      1.0  0.79166667  0.5804864300000001  0.452581610968649  1.0000
  Na  Na12      1.0  0.34722222  0.9138197599999999  0.4325693356700082  1.0000
  Na  Na13      1.0  0.95833333  0.5804864300000001  0.48260002931992524  1.0000
  Na  Na14      1.0  0.51388889  0.91381976  0.46258775041907446  1.0000
  Na  Na15      1.0  0.06944445000000003  0.2471531  0.4425754751204335  1.0000
  Na  Na16      1.0  0.31944445000000005  0.7471530999999999  0.48760309904513793  1.0000
  Na  Na17      1.0  0.875  0.08048643000000001  0.46759082014428716  1.0000
  Na  Na18      1.0  0.43055556  0.41381976  0.4475785412434364  1.0000
