data_image0
_chemical_formula_structural       COCa16In32Au24
_chemical_formula_sum              "C1 O1 Ca16 In32 Au24"
_cell_length_a       4.55516026
_cell_length_b       20.018912631384538
_cell_length_c       130.0567379
_cell_angle_alpha    81.93969259732712
_cell_angle_beta     90.0
_cell_angle_gamma    90.0

_space_group_name_H-M_alt    "P 1"
_space_group_IT_number       1

loop_
  _space_group_symop_operation_xyz
  'x, y, z'

loop_
  _atom_site_type_symbol
  _atom_site_label
  _atom_site_symmetry_multiplicity
  _atom_site_fract_x
  _atom_site_fract_y
  _atom_site_fract_z
  _atom_site_occupancy
  C   C1        1.0  0.750000255  0.69045022  0.5765166621188366  1.0000
  O   O1        1.0  0.7500009950000001  0.6800508800000001  0.5856267118334263  1.0000
  Ca  Ca1       1.0  0.25000120499999995  0.34680984000000004  0.4321935010944737  1.0000
  Ca  Ca2       1.0  0.25000120499999995  0.84680984  0.5091557260272921  1.0000
  Ca  Ca3       1.0  0.25000120499999995  0.56239789  0.4341828530882457  1.0000
  Ca  Ca4       1.0  0.25000120499999995  0.06239789000000004  0.5111450826387979  1.0000
  Ca  Ca5       1.0  0.750000585  0.65258882  0.5451203029342746  1.0000
  Ca  Ca6       1.0  0.750001205  0.15319016000000002  0.4679996112347364  1.0000
  Ca  Ca7       1.0  0.750001205  0.36631066000000007  0.5121573822162762  1.0000
  Ca  Ca8       1.0  0.750001205  0.86631066  0.43519515266572406  1.0000
  Ca  Ca9       1.0  0.25000120499999995  0.63368934  0.4649979550457523  1.0000
  Ca  Ca10      1.0  0.250001185  0.13075898000000002  0.5421264784216131  1.0000
  Ca  Ca11      1.0  0.750000015  0.43722868  0.5428323590452426  1.0000
  Ca  Ca12      1.0  0.750001205  0.93760211  0.46601025462323065  1.0000
  Ca  Ca13      1.0  0.25000120499999995  0.14661357000000003  0.4212200018949156  1.0000
  Ca  Ca14      1.0  0.25000120499999995  0.64661357  0.49818223144546775  1.0000
  Ca  Ca15      1.0  0.750001145  0.86248479  0.5531799521507867  1.0000
  Ca  Ca16      1.0  0.750001205  0.35338643000000003  0.4789731058165607  1.0000
  In  In1       1.0  0.250000375  0.6931746900000001  0.564675984858183  1.0000
  In  In2       1.0  0.25000120499999995  0.19842943000000002  0.48581982416263636  1.0000
  In  In3       1.0  0.750001205  0.5179168800000001  0.4580345280986312  1.0000
  In  In4       1.0  0.750001205  0.01791688000000003  0.5349967530314497  1.0000
  In  In5       1.0  0.25000113500000004  0.2708692200000001  0.5552839255299806  1.0000
  In  In6       1.0  0.25000120499999995  0.78262514  0.47521480625759543  1.0000
  In  In7       1.0  0.750001205  0.45894805  0.4186407020993012  1.0000
  In  In8       1.0  0.750001205  0.95894805  0.49560292703211956  1.0000
  In  In9       1.0  0.25000120499999995  0.69454169  0.5246449670237235  1.0000
  In  In10      1.0  0.25000120499999995  0.19454169000000002  0.44768274209090503  1.0000
  In  In11      1.0  0.25000120499999995  0.48208312  0.5191208091633973  1.0000
  In  In12      1.0  0.25000120499999995  0.98208312  0.44215858423057885  1.0000
  In  In13      1.0  0.750001205  0.30157057000000004  0.41437328816657376  1.0000
  In  In14      1.0  0.750001205  0.80157057  0.49133551309939216  1.0000
  In  In15      1.0  0.25000120499999995  0.73431818  0.4415601628874324  1.0000
  In  In16      1.0  0.25000120499999995  0.23431818000000004  0.5185223924379845  1.0000
  In  In17      1.0  0.249998765  0.54040815  0.558740262248099  1.0000
  In  In18      1.0  0.25000120499999995  0.04105195000000003  0.48155241022990886  1.0000
  In  In19      1.0  0.750001205  0.30545831000000007  0.45251037023830504  1.0000
  In  In20      1.0  0.750001205  0.80545831  0.5294725951711236  1.0000
  In  In21      1.0  0.25000120499999995  0.9543590400000002  0.4179343412313688  1.0000
  In  In22      1.0  0.25000120499999995  0.45435904000000005  0.49489656616418726  1.0000
  In  In23      1.0  0.750001205  0.7173748600000001  0.42497830607161463  1.0000
  In  In24      1.0  0.750001205  0.21737486000000006  0.5019405310044331  1.0000
  In  In25      1.0  0.750001205  0.26568182000000007  0.5355951743745961  1.0000
  In  In26      1.0  0.750001205  0.76568182  0.45863294482404404  1.0000
  In  In27      1.0  0.25000120499999995  0.41318557  0.4551183600132776  1.0000
  In  In28      1.0  0.25000120499999995  0.9131855700000001  0.5320805895638296  1.0000
  In  In29      1.0  0.750001255  0.03495224000000004  0.559795631427617  1.0000
  In  In30      1.0  0.750001205  0.5456409600000001  0.4822587710978412  1.0000
  In  In31      1.0  0.750001205  0.58681443  0.522036977248751  1.0000
  In  In32      1.0  0.750001205  0.08681443000000003  0.4450747476981988  1.0000
  Au  Au1       1.0  0.25000120499999995  0.81238841  0.4206156098221201  1.0000
  Au  Au2       1.0  0.25000120499999995  0.31238841000000006  0.49757783937267225  1.0000
  Au  Au3       1.0  0.250000995  0.77039015  0.544509330590984  1.0000
  Au  Au4       1.0  0.25000120499999995  0.27281370000000005  0.4659149723064635  1.0000
  Au  Au5       1.0  0.750001205  0.22718630000000006  0.43427813540501287  1.0000
  Au  Au6       1.0  0.750001205  0.7271863  0.5112403649555649  1.0000
  Au  Au7       1.0  0.25000120499999995  0.55847136  0.536661884708034  1.0000
  Au  Au8       1.0  0.25000120499999995  0.058471360000000035  0.45969965515748185  1.0000
  Au  Au9       1.0  0.25000120499999995  0.35276741000000006  0.5305703689990312  1.0000
  Au  Au10      1.0  0.25000120499999995  0.85276741  0.45360813944847905  1.0000
  Au  Au11      1.0  0.750001205  0.51982125  0.5043259413982633  1.0000
  Au  Au12      1.0  0.750001205  0.01982125000000003  0.4273637118477111  1.0000
  Au  Au13      1.0  0.24999874499999997  0.4026806700000001  0.5591530876391515  1.0000
  Au  Au14      1.0  0.25000120499999995  0.8976883  0.4855266950463206  1.0000
  Au  Au15      1.0  0.750001075  0.17805803000000003  0.5553235318317598  1.0000
  Au  Au16      1.0  0.750001205  0.68761159  0.4795774978893564  1.0000
  Au  Au17      1.0  0.750001205  0.6023117000000001  0.4146664172828895  1.0000
  Au  Au18      1.0  0.750001205  0.10231170000000002  0.491628642215708  1.0000
  Au  Au19      1.0  0.750001205  0.44152864  0.4404934525539946  1.0000
  Au  Au20      1.0  0.750001205  0.9415286400000001  0.5174556821045467  1.0000
  Au  Au21      1.0  0.25000120499999995  0.48017875  0.4728293958637652  1.0000
  Au  Au22      1.0  0.2500012549999999  0.97627623  0.5505738694998243  1.0000
  Au  Au23      1.0  0.750001205  0.64723259  0.4465849682629974  1.0000
  Au  Au24      1.0  0.750001205  0.14723259000000002  0.5235471978135495  1.0000
