data_image0
_chemical_formula_structural       COCa16Cu16In32
_chemical_formula_sum              "C1 O1 Ca16 Cu16 In32"
_cell_length_a       13.401127353190752
_cell_length_b       14.143044179719812
_cell_length_c       100.25339072
_cell_angle_alpha    82.34756664599851
_cell_angle_beta     81.27084454317844
_cell_angle_gamma    71.0563548052236

_space_group_name_H-M_alt    "P 1"
_space_group_IT_number       1

loop_
  _space_group_symop_operation_xyz
  'x, y, z'

loop_
  _atom_site_type_symbol
  _atom_site_label
  _atom_site_symmetry_multiplicity
  _atom_site_fract_x
  _atom_site_fract_y
  _atom_site_fract_z
  _atom_site_occupancy
  C   C1        1.0  0.030897735000000072  0.155394275  0.5405863680238733  1.0000
  O   O1        1.0  0.029228475000000077  0.14822044499999998  0.5524958846832103  1.0000
  Ca  Ca1       1.0  0.660174075  0.991115585  0.4643867258762224  1.0000
  Ca  Ca2       1.0  0.16017407500000008  0.41968701500000005  0.48594167201082494  1.0000
  Ca  Ca3       1.0  0.09180211500000003  0.861082475  0.48299416498423836  1.0000
  Ca  Ca4       1.0  0.5918021150000001  0.432511055  0.46143921583194314  1.0000
  Ca  Ca5       1.0  0.910174075  0.276829875  0.45360925130007484  1.0000
  Ca  Ca6       1.0  0.410174075  0.7054013050000001  0.4751641974346774  1.0000
  Ca  Ca7       1.0  0.3418021150000001  0.14679676500000002  0.47221669040809067  1.0000
  Ca  Ca8       1.0  0.8418021150000001  0.718225335  0.45066174427348804  1.0000
  Ca  Ca9       1.0  0.649360275  0.8549096549999999  0.5087395664640826  1.0000
  Ca  Ca10      1.0  0.1522960150000001  0.290624265  0.5271974819254648  1.0000
  Ca  Ca11      1.0  0.08346500500000012  0.7206320249999999  0.5251783710201018  1.0000
  Ca  Ca12      1.0  0.594868965  0.29807064499999997  0.5047344728818326  1.0000
  Ca  Ca13      1.0  0.910174075  0.133972735  0.49671914356928004  1.0000
  Ca  Ca14      1.0  0.41173033500000006  0.5676234050000001  0.5183294945385352  1.0000
  Ca  Ca15      1.0  0.333545915  0.008884415000000007  0.5158133636398753  1.0000
  Ca  Ca16      1.0  0.8418021150000001  0.575368195  0.4937716365426933  1.0000
  Cu  Cu1       1.0  0.7685560849999998  0.155443025  0.44750411531678963  1.0000
  Cu  Cu2       1.0  0.2685560850000001  0.584014455  0.46905906145139226  1.0000
  Cu  Cu3       1.0  0.9834201050000001  0.8396121849999999  0.45676688025677326  1.0000
  Cu  Cu4       1.0  0.4834201050000001  0.268183615  0.4783218263913759  1.0000
  Cu  Cu5       1.0  0.018556085000000087  0.298300165  0.4798365360275398  1.0000
  Cu  Cu6       1.0  0.5185560849999999  0.8697287349999999  0.4582815898929372  1.0000
  Cu  Cu7       1.0  0.23342010500000004  0.9824693250000001  0.4890993009675234  1.0000
  Cu  Cu8       1.0  0.7334201049999999  0.5538978950000001  0.4675443548329209  1.0000
  Cu  Cu9       1.0  0.768556085  0.012585885000000008  0.4906140075859948  1.0000
  Cu  Cu10      1.0  0.25771082500000003  0.44908394500000004  0.5124201524812806  1.0000
  Cu  Cu11      1.0  0.9834201050000001  0.696755045  0.49987677252597856  1.0000
  Cu  Cu12      1.0  0.4891288350000001  0.142024735  0.5195780889598935  1.0000
  Cu  Cu13      1.0  0.01657989500000006  0.16169381500000002  0.5223613731595855  1.0000
  Cu  Cu14      1.0  0.514717265  0.7283385749999999  0.5005336034797071  1.0000
  Cu  Cu15      1.0  0.23943813500000002  0.828272525  0.5297464845487362  1.0000
  Cu  Cu16      1.0  0.729297045  0.42553382500000003  0.5109487406973822  1.0000
  In  In1       1.0  0.7049260849999999  0.20021446499999998  0.47490332696947024  1.0000
  In  In2       1.0  0.20492608500000006  0.7716430350000001  0.45334838083486767  1.0000
  In  In3       1.0  0.04705010500000011  0.651983605  0.47247756087329784  1.0000
  In  In4       1.0  0.547050105  0.223412175  0.4509226147386952  1.0000
  In  In5       1.0  0.847853425  0.8227236149999999  0.48106490889132714  1.0000
  In  In6       1.0  0.3478534250000001  0.39415218500000004  0.4595099627567244  1.0000
  In  In7       1.0  0.9041227649999999  0.029474455000000004  0.46631597895144095  1.0000
  In  In8       1.0  0.404122765  0.458045875  0.4878709250860437  1.0000
  In  In9       1.0  0.954926085  0.48592874500000005  0.46412585239332277  1.0000
  In  In10      1.0  0.454926085  0.914500175  0.4856808015456178  1.0000
  In  In11      1.0  0.29705010499999995  0.937697895  0.46170008931484274  1.0000
  In  In12      1.0  0.7970501049999998  0.366269315  0.4832550354494454  1.0000
  In  In13      1.0  0.09785342500000005  0.10843790500000001  0.4702874373328721  1.0000
  In  In14      1.0  0.5978534250000002  0.679866475  0.4487324881805768  1.0000
  In  In15      1.0  0.15412276500000008  0.31518873500000005  0.455538507392986  1.0000
  In  In16      1.0  0.654122765  0.743760165  0.4770934535275886  1.0000
  In  In17      1.0  0.702618365  0.067677595  0.5180962691544965  1.0000
  In  In18      1.0  0.20492608500000012  0.6287858949999999  0.4964582731040729  1.0000
  In  In19      1.0  0.03683598500000008  0.519133205  0.5159276104609596  1.0000
  In  In20      1.0  0.5470501050000001  0.08055503500000001  0.4940325070079004  1.0000
  In  In21      1.0  0.8406134249999999  0.6881698350000001  0.5258443003167759  1.0000
  In  In22      1.0  0.3452061350000001  0.252843385  0.5019426848246217  1.0000
  In  In23      1.0  0.8914613049999999  0.8867858249999999  0.5102166394391471  1.0000
  In  In24      1.0  0.38998646500000006  0.322532925  0.5293693273023018  1.0000
  In  In25      1.0  0.9529331050000001  0.348834075  0.507502891928175  1.0000
  In  In26      1.0  0.44857929500000004  0.7758851649999999  0.5285543300305645  1.0000
  In  In27      1.0  0.29088780500000005  0.8016835349999999  0.5035654429414353  1.0000
  In  In28      1.0  0.7923498150000001  0.243056685  0.5251209020837662  1.0000
  In  In29      1.0  0.07327791500000008  0.9640127749999999  0.5184101755657284  1.0000
  In  In30      1.0  0.597853425  0.537009335  0.49184238346747466  1.0000
  In  In31      1.0  0.1541227650000001  0.17233159499999998  0.4986483996621913  1.0000
  In  In32      1.0  0.653949385  0.6087882349999999  0.5207211426030854  1.0000
