data_image0
_chemical_formula_structural       COCo12Se16
_chemical_formula_sum              "C1 O1 Co12 Se16"
_cell_length_a       7.0233126
_cell_length_b       7.0233126
_cell_length_c       109.72985572
_cell_angle_alpha    90.0
_cell_angle_beta     90.0
_cell_angle_gamma    90.0

_space_group_name_H-M_alt    "P 1"
_space_group_IT_number       1

loop_
  _space_group_symop_operation_xyz
  'x, y, z'

loop_
  _atom_site_type_symbol
  _atom_site_label
  _atom_site_symmetry_multiplicity
  _atom_site_fract_x
  _atom_site_fract_y
  _atom_site_fract_z
  _atom_site_occupancy
  C   C1        1.0  0.877819575  0.11217279499999996  0.5428356694147544  1.0000
  O   O1        1.0  0.8694554749999999  0.11217776499999998  0.5534464115698355  1.0000
  Co  Co1       1.0  0.11737943499999999  0.11216944499999998  0.49181230067774495  1.0000
  Co  Co2       1.0  0.617379435  0.11216944499999998  0.46918294455395465  1.0000
  Co  Co3       1.0  0.11737943499999999  0.862169445  0.4578682664920596  1.0000
  Co  Co4       1.0  0.367379435  0.612169445  0.4804976226158498  1.0000
  Co  Co5       1.0  0.11737943499999999  0.36216944500000003  0.4578682664920596  1.0000
  Co  Co6       1.0  0.8673794349999999  0.612169445  0.4804976226158498  1.0000
  Co  Co7       1.0  0.617379435  0.612169445  0.4465535884301644  1.0000
  Co  Co8       1.0  0.12191166499999999  0.6121655850000001  0.5148793628594239  1.0000
  Co  Co9       1.0  0.6185271250000001  0.35315444500000004  0.5034696740880816  1.0000
  Co  Co10      1.0  0.882620565  0.11217052499999998  0.5267778022746762  1.0000
  Co  Co11      1.0  0.618535155  0.871168175  0.5034699130540824  1.0000
  Co  Co12      1.0  0.38048639500000003  0.11216494499999997  0.5229239396507642  1.0000
  Se  Se1       1.0  0.11737943499999999  0.37715348499999996  0.47981946245083507  1.0000
  Se  Se2       1.0  0.8525172050000001  0.612163435  0.5027178327395279  1.0000
  Se  Se3       1.0  0.617379435  0.37715348499999996  0.48117577916016757  1.0000
  Se  Se4       1.0  0.38895229500000006  0.612161985  0.5025488511907834  1.0000
  Se  Se5       1.0  0.11737943499999999  0.8471854050000001  0.47981946245083507  1.0000
  Se  Se6       1.0  0.352395395  0.612169445  0.45854642303637727  1.0000
  Se  Se7       1.0  0.8823634749999999  0.612169445  0.45854642303637727  1.0000
  Se  Se8       1.0  0.617379435  0.8471854050000001  0.48117577916016757  1.0000
  Se  Se9       1.0  0.624580865  0.887835055  0.5251804955950649  1.0000
  Se  Se10      1.0  0.352395395  0.11216944499999998  0.4571901063270448  1.0000
  Se  Se11      1.0  0.14167597499999998  0.8827244750000001  0.5260690472201821  1.0000
  Se  Se12      1.0  0.8823634749999999  0.11216944499999998  0.4571901063270448  1.0000
  Se  Se13      1.0  0.624575915  0.336498845  0.5251804593880951  1.0000
  Se  Se14      1.0  0.8625498149999999  0.11216940499999997  0.5046508649258948  1.0000
  Se  Se15      1.0  0.383854755  0.11216543499999998  0.502411916431007  1.0000
  Se  Se16      1.0  0.141681505  0.34161966499999996  0.5260714948113404  1.0000
