data_image0
_chemical_formula_structural       COCaZn5CaZn5CaZn5CaZn5
_chemical_formula_sum              "C1 O1 Ca4 Zn20"
_cell_length_a       5.475161940109388
_cell_length_b       8.62878564
_cell_length_c       108.32613355000001
_cell_angle_alpha    90.0
_cell_angle_beta     119.9999999993391
_cell_angle_gamma    90.0

_space_group_name_H-M_alt    "P 1"
_space_group_IT_number       1

loop_
  _space_group_symop_operation_xyz
  'x, y, z'

loop_
  _atom_site_type_symbol
  _atom_site_label
  _atom_site_symmetry_multiplicity
  _atom_site_fract_x
  _atom_site_fract_y
  _atom_site_fract_z
  _atom_site_occupancy
  C   C1        1.0  0.18904956499999997  0.25352928  0.5424168598233003  1.0000
  O   O1        1.0  0.30489059499999993  0.25353637000000007  0.554905087033065  1.0000
  Ca  Ca1       1.0  0.0036826249999999824  0.0035342900000000428  0.4703665701690446  1.0000
  Zn  Zn1       1.0  0.0036826249999999824  0.25353429000000005  0.4450949129669351  1.0000
  Zn  Zn2       1.0  0.5036826249999999  0.25353429000000005  0.4450949129669351  1.0000
  Zn  Zn3       1.0  0.5036826249999999  0.25353429000000005  0.4703665701690445  1.0000
  Zn  Zn4       1.0  0.670349295  0.0035342900000000428  0.48721434281646153  1.0000
  Zn  Zn5       1.0  0.3370159549999999  0.0035342900000000428  0.45351879752162755  1.0000
  Ca  Ca2       1.0  0.996316455  0.01854009000000004  0.5205536330471591  1.0000
  Zn  Zn6       1.0  0.0036826249999999824  0.25353429000000005  0.4956382273711539  1.0000
  Zn  Zn7       1.0  0.5036826249999999  0.25353429000000005  0.4956382273711539  1.0000
  Zn  Zn8       1.0  0.493482575  0.2535324400000001  0.5212479329243209  1.0000
  Zn  Zn9       1.0  0.6501402949999999  0.9964657099999998  0.5364161769775855  1.0000
  Zn  Zn10      1.0  0.3370159549999999  0.0035342900000000428  0.5040621154638785  1.0000
  Ca  Ca3       1.0  0.0036826249999999824  0.50353429  0.4703665701690446  1.0000
  Zn  Zn11      1.0  0.0036826249999999824  0.75353429  0.4450949129669351  1.0000
  Zn  Zn12      1.0  0.5036826249999999  0.75353429  0.4450949129669351  1.0000
  Zn  Zn13      1.0  0.5036826249999999  0.75353429  0.4703665701690445  1.0000
  Zn  Zn14      1.0  0.670349295  0.50353429  0.48721434281646153  1.0000
  Zn  Zn15      1.0  0.3370159549999999  0.50353429  0.45351879752162755  1.0000
  Ca  Ca4       1.0  0.9963173750000001  0.48853001  0.5205533747708172  1.0000
  Zn  Zn16      1.0  0.0036826249999999824  0.75353429  0.4956382273711539  1.0000
  Zn  Zn17      1.0  0.5036826249999999  0.75353429  0.4956382273711539  1.0000
  Zn  Zn18      1.0  0.5060153049999999  0.7535345  0.5210714912645384  1.0000
  Zn  Zn19      1.0  0.6501395249999999  0.51060415  0.536414988198807  1.0000
  Zn  Zn20      1.0  0.3370159549999999  0.50353429  0.5040621154638785  1.0000
