data_image0
_chemical_formula_structural       COCa12Si12
_chemical_formula_sum              "C1 O1 Ca12 Si12"
_cell_length_a       5.872690066492016
_cell_length_b       9.122675623863419
_cell_length_c       103.58013303999999
_cell_angle_alpha    89.43051017826086
_cell_angle_beta     88.49616517794665
_cell_angle_gamma    78.59587596744748

_space_group_name_H-M_alt    "P 1"
_space_group_IT_number       1

loop_
  _space_group_symop_operation_xyz
  'x, y, z'

loop_
  _atom_site_type_symbol
  _atom_site_label
  _atom_site_symmetry_multiplicity
  _atom_site_fract_x
  _atom_site_fract_y
  _atom_site_fract_z
  _atom_site_occupancy
  C   C1        1.0  0.29294549999999986  0.8372463200000001  0.5533442762241997  1.0000
  O   O1        1.0  0.3171963499999999  0.89428386  0.5633225393162845  1.0000
  Ca  Ca1       1.0  0.08963515999999988  0.8102581000000001  0.46118695817391403  1.0000
  Ca  Ca2       1.0  0.2007462699999999  0.4213692100000001  0.4791977778278265  1.0000
  Ca  Ca3       1.0  0.9785240499999999  0.19914699000000002  0.44317614176194886  1.0000
  Ca  Ca4       1.0  0.43005008  0.45520624  0.44415832859329185  1.0000
  Ca  Ca5       1.0  0.54116119  0.06631735000000004  0.46216914824720423  1.0000
  Ca  Ca6       1.0  0.6522722999999999  0.67742846  0.4801799646591696  1.0000
  Ca  Ca7       1.0  0.43153209999999986  0.63945766  0.5130607341208905  1.0000
  Ca  Ca8       1.0  0.5341554599999998  0.23267298000000006  0.5323406237627542  1.0000
  Ca  Ca9       1.0  0.3118573799999999  0.03248033000000003  0.4972085974817391  1.0000
  Ca  Ca10      1.0  0.76338341  0.2885395700000001  0.49819078431308206  1.0000
  Ca  Ca11      1.0  0.8799958799999998  0.8995027700000001  0.5166857239540703  1.0000
  Ca  Ca12      1.0  0.9571500799999997  0.51641616  0.5332627016496094  1.0000
  Si  Si1       1.0  0.6093203999999999  0.7452974499999999  0.4506570096715254  1.0000
  Si  Si2       1.0  0.7204315099999997  0.3564085600000001  0.46866782608349056  1.0000
  Si  Si3       1.0  0.8315426199999997  0.9675196699999999  0.4866786457374031  1.0000
  Si  Si4       1.0  0.9103648400000001  0.5201668900000002  0.4546882803376279  1.0000
  Si  Si5       1.0  0.021475949999999914  0.13127800000000003  0.47269909999154036  1.0000
  Si  Si6       1.0  0.79925373  0.9090557800000001  0.4366774606837154  1.0000
  Si  Si7       1.0  0.94265373  0.5786307800000001  0.5046894621493683  1.0000
  Si  Si8       1.0  0.05363456999999991  0.19465432000000005  0.5237903249786272  1.0000
  Si  Si9       1.0  0.24783975999999994  0.7581032000000001  0.538120250660492  1.0000
  Si  Si10      1.0  0.2436981699999999  0.35350023  0.5087207360574181  1.0000
  Si  Si11      1.0  0.3620804199999999  0.9606456999999999  0.5256535790637542  1.0000
  Si  Si12      1.0  0.13258705999999995  0.7423891200000001  0.49070991640350553  1.0000
