data_image0
_chemical_formula_structural       COCa6Ga16Ca6Ga16
_chemical_formula_sum              "C1 O1 Ca12 Ga32"
_cell_length_a       8.68678825
_cell_length_b       13.289632909908656
_cell_length_c       100.20881034
_cell_angle_alpha    99.3442000532826
_cell_angle_beta     90.0
_cell_angle_gamma    99.40504727945154

_space_group_name_H-M_alt    "P 1"
_space_group_IT_number       1

loop_
  _space_group_symop_operation_xyz
  'x, y, z'

loop_
  _atom_site_type_symbol
  _atom_site_label
  _atom_site_symmetry_multiplicity
  _atom_site_fract_x
  _atom_site_fract_y
  _atom_site_fract_z
  _atom_site_occupancy
  C   C1        1.0  0.4490401500000001  0.7459337500000001  0.547427665758157  1.0000
  O   O1        1.0  0.44493631  0.74658529  0.5589466983252254  1.0000
  Ca  Ca1       1.0  0.5362954300000001  0.05744914000000001  0.46466162403453726  1.0000
  Ca  Ca2       1.0  0.46370457000000004  0.76708571  0.4799420583818365  1.0000
  Ca  Ca3       1.0  0.10888629000000001  0.34781257  0.4493811927018243  1.0000
  Ca  Ca4       1.0  0.037910680000000016  0.06255786  0.5073908219591426  1.0000
  Ca  Ca5       1.0  0.45608674000000005  0.74403827  0.5214234406716322  1.0000
  Ca  Ca6       1.0  0.10888629000000001  0.34781257  0.4924467099286285  1.0000
  Ga  Ga1       1.0  0.16114463  0.55684593  0.47541501499631056  1.0000
  Ga  Ga2       1.0  0.41144623  0.55805235  0.45390823307276396  1.0000
  Ga  Ga3       1.0  0.26219770000000003  0.9610582  0.4410533016747746  1.0000
  Ga  Ga4       1.0  0.31039316000000006  0.15384008  0.4452044291674957  1.0000
  Ga  Ga5       1.0  0.33358554000000007  0.24660959000000002  0.4687347702097251  1.0000
  Ga  Ga6       1.0  0.23900532000000005  0.86828869  0.46058847785934937  1.0000
  Ga  Ga7       1.0  0.3816816900000001  0.43899416  0.4728773423066228  1.0000
  Ga  Ga8       1.0  0.19090917000000002  0.67590412  0.45644590877703795  1.0000
  Ga  Ga9       1.0  0.16198657000000002  0.55612728  0.5221890219852019  1.0000
  Ga  Ga10      1.0  0.4080457500000001  0.54206216  0.49844174227150023  1.0000
  Ga  Ga11      1.0  0.26219770000000003  0.9610582  0.48411882191616507  1.0000
  Ga  Ga12      1.0  0.31039316000000006  0.15384008  0.48826994639429994  1.0000
  Ga  Ga13      1.0  0.39304663  0.23818720000000002  0.5142062407939031  1.0000
  Ga  Ga14      1.0  0.22465579000000005  0.8713580600000002  0.506071723417483  1.0000
  Ga  Ga15      1.0  0.38477401  0.43631049  0.5191045395218664  1.0000
  Ga  Ga16      1.0  0.18702555  0.6669613  0.4999001870487272  1.0000
  Ca  Ca7       1.0  0.03629543000000002  0.05744914000000001  0.46466162403453726  1.0000
  Ca  Ca8       1.0  0.9637045700000001  0.76708571  0.4799420583818365  1.0000
  Ca  Ca9       1.0  0.6088862900000002  0.34781257  0.4493811927018243  1.0000
  Ca  Ca10      1.0  0.5324460300000001  0.03894180000000001  0.5070535138726486  1.0000
  Ca  Ca11      1.0  0.9586277800000002  0.7394855100000001  0.5216512017077999  1.0000
  Ca  Ca12      1.0  0.6088862900000002  0.34781257  0.4924467099286285  1.0000
  Ga  Ga17      1.0  0.66114463  0.55684593  0.47541501499631056  1.0000
  Ga  Ga18      1.0  0.9114462300000001  0.55805235  0.45390823307276396  1.0000
  Ga  Ga19      1.0  0.7621977  0.9610582  0.4410533016747746  1.0000
  Ga  Ga20      1.0  0.8103931600000002  0.15384008  0.4452044291674957  1.0000
  Ga  Ga21      1.0  0.8335855400000001  0.24660959000000002  0.4687347702097251  1.0000
  Ga  Ga22      1.0  0.73900532  0.86828869  0.46058847785934937  1.0000
  Ga  Ga23      1.0  0.88168169  0.43899416  0.4728773423066228  1.0000
  Ga  Ga24      1.0  0.6909091700000001  0.67590412  0.45644590877703795  1.0000
  Ga  Ga25      1.0  0.6619610199999999  0.5630037  0.5220436948104825  1.0000
  Ga  Ga26      1.0  0.90565361  0.5398958  0.49830875681295445  1.0000
  Ga  Ga27      1.0  0.7621977  0.9610582  0.48411882191616507  1.0000
  Ga  Ga28      1.0  0.8103931600000002  0.15384008  0.48826994639429994  1.0000
  Ga  Ga29      1.0  0.77099034  0.23862363  0.5138950179223701  1.0000
  Ga  Ga30      1.0  0.75727614  0.8719652200000001  0.5061204059710954  1.0000
  Ga  Ga31      1.0  0.8800284800000001  0.43698607999999994  0.5188974133286907  1.0000
  Ga  Ga32      1.0  0.6907343100000001  0.6695009000000001  0.499855718886715  1.0000
