data_image0
_chemical_formula_structural       COCu24
_chemical_formula_sum              "C1 O1 Cu24"
_cell_length_a       5.12123874
_cell_length_b       5.121238742004841
_cell_length_c       107.63326528
_cell_angle_alpha    90.0
_cell_angle_beta     90.0
_cell_angle_gamma    119.99999998705009

_space_group_name_H-M_alt    "P 1"
_space_group_IT_number       1

loop_
  _space_group_symop_operation_xyz
  'x, y, z'

loop_
  _atom_site_type_symbol
  _atom_site_label
  _atom_site_symmetry_multiplicity
  _atom_site_fract_x
  _atom_site_fract_y
  _atom_site_fract_z
  _atom_site_occupancy
  C   C1        1.0  0.24922118499999998  0.41684355000000006  0.5505985002733453  1.0000
  O   O1        1.0  0.24923311500000003  0.4168267100000001  0.5616097582370626  1.0000
  Cu  Cu1       1.0  0.24921522499999996  0.41684711  0.43839024176293745  1.0000
  Cu  Cu2       1.0  0.082548555  0.08351378000000005  0.4772395126394408  1.0000
  Cu  Cu3       1.0  0.41588188499999995  0.25018045000000005  0.4578148789494063  1.0000
  Cu  Cu4       1.0  0.24921522499999996  0.41684711  0.4966641498259096  1.0000
  Cu  Cu5       1.0  0.08237102499999999  0.08315289000000005  0.5370977390497542  1.0000
  Cu  Cu6       1.0  0.4150097249999999  0.25104876000000004  0.5164936566353303  1.0000
  Cu  Cu7       1.0  0.24921522499999996  0.9168471100000001  0.43839024176293745  1.0000
  Cu  Cu8       1.0  0.08254855500000001  0.5835137800000001  0.4772395126394408  1.0000
  Cu  Cu9       1.0  0.41588188500000006  0.7501804500000001  0.4578148789494063  1.0000
  Cu  Cu10      1.0  0.24921522499999996  0.9168471100000001  0.4966641498259096  1.0000
  Cu  Cu11      1.0  0.08237168500000001  0.58368927  0.5370987565121685  1.0000
  Cu  Cu12      1.0  0.415010105  0.7484409800000001  0.516493789499838  1.0000
  Cu  Cu13      1.0  0.749215225  0.41684711  0.43839024176293745  1.0000
  Cu  Cu14      1.0  0.582548555  0.08351378000000005  0.4772395126394408  1.0000
  Cu  Cu15      1.0  0.9158818850000001  0.25018045000000005  0.4578148789494063  1.0000
  Cu  Cu16      1.0  0.749215225  0.41684711  0.4966641498259096  1.0000
  Cu  Cu17      1.0  0.582551065  0.08351871000000005  0.5357050917405458  1.0000
  Cu  Cu18      1.0  0.917628975  0.25105419000000007  0.5164939188679113  1.0000
  Cu  Cu19      1.0  0.749215225  0.9168471100000001  0.43839024176293745  1.0000
  Cu  Cu20      1.0  0.582548555  0.5835137800000001  0.4772395126394408  1.0000
  Cu  Cu21      1.0  0.9158818850000001  0.7501804500000001  0.4578148789494063  1.0000
  Cu  Cu22      1.0  0.749215225  0.9168471100000001  0.4966641498259096  1.0000
  Cu  Cu23      1.0  0.5828952350000001  0.5836837300000001  0.5370976900996725  1.0000
  Cu  Cu24      1.0  0.915875295  0.7501744000000001  0.5174158936584993  1.0000
