data_image0
_chemical_formula_structural       COCa12Zn24
_chemical_formula_sum              "C1 O1 Ca12 Zn24"
_cell_length_a       4.59021589
_cell_length_b       16.60270705417016
_cell_length_c       101.75473797000001
_cell_angle_alpha    107.06419078954461
_cell_angle_beta     90.0
_cell_angle_gamma    90.0

_space_group_name_H-M_alt    "P 1"
_space_group_IT_number       1

loop_
  _space_group_symop_operation_xyz
  'x, y, z'

loop_
  _atom_site_type_symbol
  _atom_site_label
  _atom_site_symmetry_multiplicity
  _atom_site_fract_x
  _atom_site_fract_y
  _atom_site_fract_z
  _atom_site_occupancy
  C   C1        1.0  0.74999999  0.6758771  0.5516595399710899  1.0000
  O   O1        1.0  0.74999999  0.65105742  0.5612781093548418  1.0000
  Ca  Ca1       1.0  0.25  0.06287839999999997  0.440071037485204  1.0000
  Ca  Ca2       1.0  0.25  0.72954507  0.4747456310618302  1.0000
  Ca  Ca3       1.0  0.25000017  0.39639384999999994  0.5087902274893976  1.0000
  Ca  Ca4       1.0  0.25000004  0.27523910999999995  0.5338925318627814  1.0000
  Ca  Ca5       1.0  0.25  0.92977574  0.4643912442565382  1.0000
  Ca  Ca6       1.0  0.25  0.59644241  0.4990658378331643  1.0000
  Ca  Ca7       1.0  0.75  0.39621172999999993  0.45740833271316034  1.0000
  Ca  Ca8       1.0  0.75  0.06287839999999997  0.49208292941049997  1.0000
  Ca  Ca9       1.0  0.74999994  0.72673102  0.5298863877437693  1.0000
  Ca  Ca10      1.0  0.75  0.26310906999999994  0.4817285394844945  1.0000
  Ca  Ca11      1.0  0.74999999  0.9371216  0.5181777361283685  1.0000
  Ca  Ca12      1.0  0.75  0.59644241  0.44705394590786834  1.0000
  Zn  Zn1       1.0  0.74999993  0.26433388999999996  0.5130096848557834  1.0000
  Zn  Zn2       1.0  0.75  0.92114165  0.4429876812441821  1.0000
  Zn  Zn3       1.0  0.75  0.58780831  0.47766227482080836  1.0000
  Zn  Zn4       1.0  0.74999995  0.42542251999999997  0.5309088114888423  1.0000
  Zn  Zn5       1.0  0.75  0.07151248999999997  0.46147460049756  1.0000
  Zn  Zn6       1.0  0.75  0.73817916  0.4961491940741863  1.0000
  Zn  Zn7       1.0  0.25  0.46214947999999995  0.43872189064515826  1.0000
  Zn  Zn8       1.0  0.25  0.12881614999999996  0.4733964842217845  1.0000
  Zn  Zn9       1.0  0.25000001  0.79874659  0.5077810698972138  1.0000
  Zn  Zn10      1.0  0.25  0.53050466  0.46574039109658394  1.0000
  Zn  Zn11      1.0  0.25  0.19717132999999995  0.5004149846732101  1.0000
  Zn  Zn12      1.0  0.25  0.86621664  0.5347789798812758  1.0000
  Zn  Zn13      1.0  0.25  0.2544749799999999  0.46032497959285196  1.0000
  Zn  Zn14      1.0  0.25  0.92114165  0.4949995731694781  1.0000
  Zn  Zn15      1.0  0.25000058  0.57517864  0.5294890304204991  1.0000
  Zn  Zn16      1.0  0.25  0.4048458299999999  0.4788118957255164  1.0000
  Zn  Zn17      1.0  0.25000007  0.07113170999999996  0.5148718457803847  1.0000
  Zn  Zn18      1.0  0.25  0.73817916  0.4441373021488902  1.0000
  Zn  Zn19      1.0  0.74999993  0.14078997999999998  0.5244499925627786  1.0000
  Zn  Zn20      1.0  0.75  0.79548281  0.4560591889938281  1.0000
  Zn  Zn21      1.0  0.75  0.46214947999999995  0.49073378257045436  1.0000
  Zn  Zn22      1.0  0.75  0.19717132999999995  0.44840309274791407  1.0000
  Zn  Zn23      1.0  0.75  0.86383799  0.48307768632454023  1.0000
  Zn  Zn24      1.0  0.74999932  0.53520499  0.5174951768026191  1.0000
