data_image0
_chemical_formula_structural       COTi4Cu12Ti4Cu12
_chemical_formula_sum              "C1 O1 Ti8 Cu24"
_cell_length_a       5.42695334
_cell_length_b       6.179213302908814
_cell_length_c       107.07527984000001
_cell_angle_alpha    88.39497661179874
_cell_angle_beta     90.0
_cell_angle_gamma    90.0

_space_group_name_H-M_alt    "P 1"
_space_group_IT_number       1

loop_
  _space_group_symop_operation_xyz
  'x, y, z'

loop_
  _atom_site_type_symbol
  _atom_site_label
  _atom_site_symmetry_multiplicity
  _atom_site_fract_x
  _atom_site_fract_y
  _atom_site_fract_z
  _atom_site_occupancy
  C   C1        1.0  0.46873560500000006  0.15483503499999998  0.5538669548642621  1.0000
  O   O1        1.0  0.494426725  0.18091468499999996  0.5645082508469894  1.0000
  Ti  Ti1       1.0  0.615771935  0.4183738149999999  0.46950037559034324  1.0000
  Ti  Ti2       1.0  0.615771935  0.918373815  0.4406458488091311  1.0000
  Ti  Ti3       1.0  0.11577193500000002  0.32906203500000003  0.4354917491530106  1.0000
  Ti  Ti4       1.0  0.11577193500000002  0.829062035  0.4643462759342227  1.0000
  Cu  Cu1       1.0  0.36886634500000004  0.08248012499999996  0.4789707952257914  1.0000
  Cu  Cu2       1.0  0.36886634500000004  0.5824801249999999  0.4501162684445792  1.0000
  Cu  Cu3       1.0  0.362677525  0.664955725  0.48373038307998684  1.0000
  Cu  Cu4       1.0  0.362677525  0.16495572499999994  0.45487585629877475  1.0000
  Cu  Cu5       1.0  0.11577193500000002  0.4083783949999999  0.46892354703074907  1.0000
  Cu  Cu6       1.0  0.11577193500000002  0.908378395  0.44006902024953687  1.0000
  Cu  Cu7       1.0  0.615771935  0.33905745499999995  0.4360685742500615  1.0000
  Cu  Cu8       1.0  0.615771935  0.8390574549999998  0.46492310449381696  1.0000
  Cu  Cu9       1.0  0.868866345  0.664955725  0.48373038307998684  1.0000
  Cu  Cu10      1.0  0.868866345  0.16495572499999994  0.45487585629877475  1.0000
  Cu  Cu11      1.0  0.8626775250000002  0.08248012499999996  0.4789707952257914  1.0000
  Cu  Cu12      1.0  0.8626775250000002  0.5824801249999999  0.4501162684445792  1.0000
  Ti  Ti5       1.0  0.6173600850000001  0.41943772500000004  0.52705731616076  1.0000
  Ti  Ti6       1.0  0.615771935  0.918373815  0.4983549023715554  1.0000
  Ti  Ti7       1.0  0.11577193500000002  0.32906203500000003  0.4932008027154349  1.0000
  Ti  Ti8       1.0  0.11418396500000003  0.8287219949999999  0.5223166095554643  1.0000
  Cu  Cu13      1.0  0.36018656500000007  0.08162618499999998  0.5379636144364082  1.0000
  Cu  Cu14      1.0  0.36886634500000004  0.5824801249999999  0.5078253220070035  1.0000
  Cu  Cu15      1.0  0.3526989750000001  0.6727550749999999  0.5412605201023138  1.0000
  Cu  Cu16      1.0  0.362677525  0.16495572499999994  0.5125849133237423  1.0000
  Cu  Cu17      1.0  0.11675175500000003  0.40374956500000003  0.5273191225261669  1.0000
  Cu  Cu18      1.0  0.11577193500000002  0.908378395  0.4977780772745046  1.0000
  Cu  Cu19      1.0  0.615771935  0.33905745499999995  0.49377763127502916  1.0000
  Cu  Cu20      1.0  0.616091795  0.8426732949999999  0.5230515586197823  1.0000
  Cu  Cu21      1.0  0.8770139950000002  0.6707690049999999  0.541367284164037  1.0000
  Cu  Cu22      1.0  0.868866345  0.16495572499999994  0.5125849133237423  1.0000
  Cu  Cu23      1.0  0.8858160350000001  0.08429964499999996  0.5373606644497645  1.0000
  Cu  Cu24      1.0  0.8626775250000002  0.5824801249999999  0.5078253220070035  1.0000
