data_image0
_chemical_formula_structural       COV6Pd18V6Pd18
_chemical_formula_sum              "C1 O1 V12 Pd36"
_cell_length_a       7.8738172
_cell_length_b       8.70985513920161
_cell_length_c       103.05157642
_cell_angle_alpha    71.56505119788031
_cell_angle_beta     90.0
_cell_angle_gamma    90.0

_space_group_name_H-M_alt    "P 1"
_space_group_IT_number       1

loop_
  _space_group_symop_operation_xyz
  'x, y, z'

loop_
  _atom_site_type_symbol
  _atom_site_label
  _atom_site_symmetry_multiplicity
  _atom_site_fract_x
  _atom_site_fract_y
  _atom_site_fract_z
  _atom_site_occupancy
  C   C1        1.0  0.415029545  0.93329672  0.5483120716148696  1.0000
  O   O1        1.0  0.38890911499999997  0.89137178  0.5602838077145512  1.0000
  V   V1        1.0  0.10828081499999999  0.76519881  0.4664435685277912  1.0000
  V   V2        1.0  0.10828081499999999  0.43186547  0.4486253176995628  1.0000
  V   V3        1.0  0.10828081499999999  0.09853214  0.4842618161487346  1.0000
  V   V4        1.0  0.608280815  0.76519881  0.4397161922854487  1.0000
  V   V5        1.0  0.608280815  0.43186547  0.4753526907346204  1.0000
  V   V6        1.0  0.608280815  0.09853214  0.457534443113677  1.0000
  Pd  Pd1       1.0  0.858280815  0.59853214  0.457534443113677  1.0000
  Pd  Pd2       1.0  0.858280815  0.26519881  0.4397161922854487  1.0000
  Pd  Pd3       1.0  0.858280815  0.9318654700000001  0.47535269073462044  1.0000
  Pd  Pd4       1.0  0.858280815  0.9318654700000001  0.4486253176995629  1.0000
  Pd  Pd5       1.0  0.858280815  0.59853214  0.4842618161487346  1.0000
  Pd  Pd6       1.0  0.858280815  0.26519881  0.4664435685277912  1.0000
  Pd  Pd7       1.0  0.10828081499999999  0.76519881  0.4397161922854487  1.0000
  Pd  Pd8       1.0  0.10828081499999999  0.43186547  0.4753526907346204  1.0000
  Pd  Pd9       1.0  0.10828081499999999  0.09853214  0.457534443113677  1.0000
  Pd  Pd10      1.0  0.358280815  0.9318654700000001  0.4486253176995629  1.0000
  Pd  Pd11      1.0  0.358280815  0.59853214  0.4842618161487346  1.0000
  Pd  Pd12      1.0  0.358280815  0.26519881  0.4664435685277912  1.0000
  Pd  Pd13      1.0  0.358280815  0.59853214  0.457534443113677  1.0000
  Pd  Pd14      1.0  0.358280815  0.26519881  0.4397161922854487  1.0000
  Pd  Pd15      1.0  0.358280815  0.9318654700000001  0.47535269073462044  1.0000
  Pd  Pd16      1.0  0.608280815  0.76519881  0.4664435685277912  1.0000
  Pd  Pd17      1.0  0.608280815  0.43186547  0.4486253176995628  1.0000
  Pd  Pd18      1.0  0.608280815  0.09853214  0.4842618161487346  1.0000
  V   V7        1.0  0.107079415  0.75835734  0.5185395226949202  1.0000
  V   V8        1.0  0.10828081499999999  0.43186547  0.5020800669769628  1.0000
  V   V9        1.0  0.097254655  0.13580481  0.5336818170677962  1.0000
  V   V10       1.0  0.608280815  0.76519881  0.49317094156284874  1.0000
  V   V11       1.0  0.6100885750000001  0.44955357  0.5264907764394653  1.0000
  V   V12       1.0  0.611257765  0.09518396  0.5107450602796297  1.0000
  Pd  Pd19      1.0  0.8581541250000001  0.59846174  0.5108461988014298  1.0000
  Pd  Pd20      1.0  0.858280815  0.26519881  0.49317094156284874  1.0000
  Pd  Pd21      1.0  0.902745345  0.9167732500000001  0.5300100724208756  1.0000
  Pd  Pd22      1.0  0.858280815  0.9318654700000001  0.5020800669769628  1.0000
  Pd  Pd23      1.0  0.8409942549999999  0.57789639  0.5373689470603459  1.0000
  Pd  Pd24      1.0  0.8451082149999999  0.26025244999999997  0.5207869057065124  1.0000
  Pd  Pd25      1.0  0.10828081499999999  0.76519881  0.49317094156284874  1.0000
  Pd  Pd26      1.0  0.10452115499999999  0.42074465000000005  0.5299968263342695  1.0000
  Pd  Pd27      1.0  0.108793805  0.10116423000000001  0.5104462664117597  1.0000
  Pd  Pd28      1.0  0.358280815  0.9318654700000001  0.5020800669769628  1.0000
  Pd  Pd29      1.0  0.371752115  0.5767199  0.5371085700509183  1.0000
  Pd  Pd30      1.0  0.359050875  0.26631211  0.520427561507157  1.0000
  Pd  Pd31      1.0  0.35858463500000004  0.59969894  0.5107884997462138  1.0000
  Pd  Pd32      1.0  0.358280815  0.26519881  0.49317094156284874  1.0000
  Pd  Pd33      1.0  0.319367735  0.91820235  0.5305442136468723  1.0000
  Pd  Pd34      1.0  0.608645615  0.7831875  0.520820511637616  1.0000
  Pd  Pd35      1.0  0.608280815  0.43186547  0.5020800669769628  1.0000
  Pd  Pd36      1.0  0.606365265  0.06670328  0.5369177173561053  1.0000
