data_image0
_chemical_formula_structural       COCa12Zn4Ca12Zn4
_chemical_formula_sum              "C1 O1 Ca24 Zn8"
_cell_length_a       13.27432071
_cell_length_b       11.054108710761382
_cell_length_c       101.948612
_cell_angle_alpha    111.17853756270434
_cell_angle_beta     90.0
_cell_angle_gamma    90.0

_space_group_name_H-M_alt    "P 1"
_space_group_IT_number       1

loop_
  _space_group_symop_operation_xyz
  'x, y, z'

loop_
  _atom_site_type_symbol
  _atom_site_label
  _atom_site_symmetry_multiplicity
  _atom_site_fract_x
  _atom_site_fract_y
  _atom_site_fract_z
  _atom_site_occupancy
  C   C1        1.0  0.21328208499999998  0.937107035  0.5399390272813043  1.0000
  O   O1        1.0  0.238239035  0.8906892849999999  0.5481940561960029  1.0000
  Ca  Ca1       1.0  0.430592735  0.26294873499999993  0.4518059438039971  1.0000
  Ca  Ca2       1.0  0.06730215499999999  0.762948735  0.4518059438039971  1.0000
  Ca  Ca3       1.0  0.140756625  0.452365225  0.45922585064138216  1.0000
  Ca  Ca4       1.0  0.35713826500000007  0.5735322449999999  0.4835584829828461  1.0000
  Ca  Ca5       1.0  0.140756625  0.07353224499999994  0.4835584829828461  1.0000
  Ca  Ca6       1.0  0.35713826500000007  0.9523652250000001  0.45922585064138216  1.0000
  Ca  Ca7       1.0  0.9305927349999998  0.26294873499999993  0.47139216681211416  1.0000
  Ca  Ca8       1.0  0.567302155  0.762948735  0.47139216681211416  1.0000
  Ca  Ca9       1.0  0.640756625  0.452365225  0.47881207364949924  1.0000
  Ca  Ca10      1.0  0.857138265  0.5735322449999999  0.463972259974729  1.0000
  Ca  Ca11      1.0  0.640756625  0.07353224499999994  0.463972259974729  1.0000
  Ca  Ca12      1.0  0.857138265  0.9523652250000001  0.47881207364949924  1.0000
  Zn  Zn1       1.0  0.252476675  0.26294873499999993  0.47139216681211416  1.0000
  Zn  Zn2       1.0  0.24541821499999997  0.762948735  0.47139216681211416  1.0000
  Zn  Zn3       1.0  0.752476675  0.26294873499999993  0.4518059438039971  1.0000
  Zn  Zn4       1.0  0.7454182149999999  0.762948735  0.4518059438039971  1.0000
  Ca  Ca13      1.0  0.430592735  0.26294873499999993  0.49097838982023123  1.0000
  Ca  Ca14      1.0  0.06730215499999999  0.762948735  0.49097838982023123  1.0000
  Ca  Ca15      1.0  0.139226955  0.451162605  0.4981250641459596  1.0000
  Ca  Ca16      1.0  0.35437250500000006  0.5521044549999999  0.5222406497985367  1.0000
  Ca  Ca17      1.0  0.14783318499999998  0.04763477499999994  0.5235582291223734  1.0000
  Ca  Ca18      1.0  0.358077065  0.950708345  0.49826203922139345  1.0000
  Ca  Ca19      1.0  0.932697845  0.25169823499999994  0.5105777465660486  1.0000
  Ca  Ca20      1.0  0.566208505  0.7521862349999999  0.5104939676723047  1.0000
  Ca  Ca21      1.0  0.641310345  0.4372853749999999  0.5177905909875876  1.0000
  Ca  Ca22      1.0  0.857719235  0.5654687249999999  0.5021370120530717  1.0000
  Ca  Ca23      1.0  0.640603245  0.06542331499999994  0.5021714211296524  1.0000
  Ca  Ca24      1.0  0.857477115  0.9362418050000001  0.5179574844103908  1.0000
  Zn  Zn5       1.0  0.248659375  0.25568502499999995  0.5109418152793235  1.0000
  Zn  Zn6       1.0  0.24853592499999996  0.7595110549999999  0.5112012214844343  1.0000
  Zn  Zn7       1.0  0.752476675  0.26294873499999993  0.49097838982023123  1.0000
  Zn  Zn8       1.0  0.7454182149999999  0.762948735  0.49097838982023123  1.0000
