data_image0
_chemical_formula_structural       COCa16Pb8
_chemical_formula_sum              "C1 O1 Ca16 Pb8"
_cell_length_a       5.15327447
_cell_length_b       20.995172715032698
_cell_length_c       101.95321984
_cell_angle_alpha    112.36360003935049
_cell_angle_beta     90.0
_cell_angle_gamma    90.0

_space_group_name_H-M_alt    "P 1"
_space_group_IT_number       1

loop_
  _space_group_symop_operation_xyz
  'x, y, z'

loop_
  _atom_site_type_symbol
  _atom_site_label
  _atom_site_symmetry_multiplicity
  _atom_site_fract_x
  _atom_site_fract_y
  _atom_site_fract_z
  _atom_site_occupancy
  C   C1        1.0  0.25000000499999997  0.13099270999999998  0.543889696096243  1.0000
  O   O1        1.0  0.250000015  0.15123591999999997  0.5562087447869506  1.0000
  Ca  Ca1       1.0  0.25000000499999997  0.46139698  0.5190778376097691  1.0000
  Ca  Ca2       1.0  0.25000000499999997  0.96503392  0.47864480187189334  1.0000
  Ca  Ca3       1.0  0.750000005  0.03496607999999997  0.459280292287122  1.0000
  Ca  Ca4       1.0  0.750000005  0.54032138  0.5001854716921416  1.0000
  Ca  Ca5       1.0  0.25000000499999997  0.28496607999999995  0.4645360094113326  1.0000
  Ca  Ca6       1.0  0.24999999499999997  0.7831494999999999  0.5071550934891271  1.0000
  Ca  Ca7       1.0  0.7499999949999999  0.22876464999999993  0.5153667082155882  1.0000
  Ca  Ca8       1.0  0.750000005  0.71503392  0.4733890847476828  1.0000
  Ca  Ca9       1.0  0.25000000499999997  0.15729586999999998  0.482967580259656  1.0000
  Ca  Ca10      1.0  0.25000000499999997  0.65729587  0.44379125521304924  1.0000
  Ca  Ca11      1.0  0.7499999949999999  0.34218592999999997  0.4937657883415243  1.0000
  Ca  Ca12      1.0  0.750000005  0.84270413  0.4549575138993594  1.0000
  Ca  Ca13      1.0  0.24999999499999997  0.08539830999999998  0.5164309942005464  1.0000
  Ca  Ca14      1.0  0.25000000499999997  0.59270413  0.4779066446894712  1.0000
  Ca  Ca15      1.0  0.750000005  0.40729586999999995  0.4600184463354382  1.0000
  Ca  Ca16      1.0  0.7499999949999999  0.9016040499999999  0.497886062738068  1.0000
  Pb  Pb1       1.0  0.25000000499999997  0.44534628  0.4841184992027693  1.0000
  Pb  Pb2       1.0  0.25000000499999997  0.94534628  0.44494217415616244  1.0000
  Pb  Pb3       1.0  0.750000005  0.06108404999999997  0.4959147414027828  1.0000
  Pb  Pb4       1.0  0.750000005  0.55465372  0.45380659182214017  1.0000
  Pb  Pb5       1.0  0.24999999499999997  0.30333790999999993  0.510861057876614  1.0000
  Pb  Pb6       1.0  0.25000000499999997  0.80465372  0.4730948642783708  1.0000
  Pb  Pb7       1.0  0.750000005  0.19534627999999998  0.46483022674653857  1.0000
  Pb  Pb8       1.0  0.7499999949999999  0.69224857  0.5021898296388121  1.0000
