data_image0
_chemical_formula_structural       COCa8Cu8In16
_chemical_formula_sum              "C1 O1 Ca8 Cu8 In16"
_cell_length_a       5.843611840688682
_cell_length_b       15.765246356424496
_cell_length_c       102.53056325
_cell_angle_alpha    102.38116944446622
_cell_angle_beta     90.29973379210203
_cell_angle_gamma    96.16811618463902

_space_group_name_H-M_alt    "P 1"
_space_group_IT_number       1

loop_
  _space_group_symop_operation_xyz
  'x, y, z'

loop_
  _atom_site_type_symbol
  _atom_site_label
  _atom_site_symmetry_multiplicity
  _atom_site_fract_x
  _atom_site_fract_y
  _atom_site_fract_z
  _atom_site_occupancy
  C   C1        1.0  0.10636473000000006  0.010587134999999958  0.5404404967087735  1.0000
  O   O1        1.0  0.07333067000000004  0.01515412499999996  0.5518173522516279  1.0000
  Ca  Ca1       1.0  0.7084344300000001  0.9424648050000001  0.5141917157774216  1.0000
  Ca  Ca2       1.0  0.84879905  0.392670765  0.4923339339336794  1.0000
  Ca  Ca3       1.0  0.15060091  0.6285137449999999  0.4878422407258834  1.0000
  Ca  Ca4       1.0  0.02620095000000006  0.18720603499999997  0.5085998210416853  1.0000
  Ca  Ca5       1.0  0.97379905  0.830170765  0.47250413744492364  1.0000
  Ca  Ca6       1.0  0.09879905000000005  0.267670765  0.4526743409561679  1.0000
  Ca  Ca7       1.0  0.4006009100000001  0.503513745  0.44818264774837197  1.0000
  Ca  Ca8       1.0  0.2756009100000001  0.06601374499999997  0.4680124442371277  1.0000
  Cu  Cu1       1.0  0.21200683000000006  0.9991245550000001  0.5232950359749449  1.0000
  Cu  Cu2       1.0  0.3531101500000001  0.42552925500000005  0.5033935634969927  1.0000
  Cu  Cu3       1.0  0.38757176000000004  0.709436735  0.5142116375841661  1.0000
  Cu  Cu4       1.0  0.5271101  0.15343266499999997  0.49571668463924284  1.0000
  Cu  Cu5       1.0  0.4694620200000001  0.865575255  0.48373715874873463  1.0000
  Cu  Cu6       1.0  0.59446202  0.303075255  0.4639073622599789  1.0000
  Cu  Cu7       1.0  0.6549379400000002  0.5931092549999999  0.47660921942207246  1.0000
  Cu  Cu8       1.0  0.7799379400000002  0.03060925499999996  0.4567794229333167  1.0000
  In  In1       1.0  0.23687348000000005  0.0008754449999999567  0.49660627786463524  1.0000
  In  In2       1.0  0.13312389000000008  0.566607775  0.5178081027315992  1.0000
  In  In3       1.0  0.6470714000000002  0.576811685  0.5061054928103297  1.0000
  In  In4       1.0  0.51895632  0.13280182499999996  0.522177641220257  1.0000
  In  In5       1.0  0.68613943  0.748074325  0.49536246101860476  1.0000
  In  In6       1.0  0.5540300200000001  0.3174640650000001  0.5172220545125542  1.0000
  In  In7       1.0  0.1742865300000001  0.8328328150000001  0.5074100237340576  1.0000
  In  In8       1.0  0.07630149000000004  0.393516775  0.5246557090184917  1.0000
  In  In9       1.0  0.4934724200000001  0.881231725  0.4571043555649651  1.0000
  In  In10      1.0  0.36847242  0.4437317250000001  0.4769341520537209  1.0000
  In  In11      1.0  0.8809275400000001  0.452452785  0.4635824296283304  1.0000
  In  In12      1.0  0.7559275400000001  0.014952784999999958  0.4834122261170861  1.0000
  In  In13      1.0  0.9307267100000001  0.626749885  0.4556823719634425  1.0000
  In  In14      1.0  0.8057267100000001  0.189249885  0.47551216845219824  1.0000
  In  In15      1.0  0.44367325  0.7069346249999999  0.46500441322985303  1.0000
  In  In16      1.0  0.3186732500000001  0.26943462500000004  0.4848342097186088  1.0000
