data_image0
_chemical_formula_structural       COVPt3VPt3VPt3VPt3VPt3VPt3VPt3VPt3
_chemical_formula_sum              "C1 O1 V8 Pt24"
_cell_length_a       7.85816092
_cell_length_b       7.85816092
_cell_length_c       101.43264368
_cell_angle_alpha    90.0
_cell_angle_beta     90.0
_cell_angle_gamma    90.0

_space_group_name_H-M_alt    "P 1"
_space_group_IT_number       1

loop_
  _space_group_symop_operation_xyz
  'x, y, z'

loop_
  _atom_site_type_symbol
  _atom_site_label
  _atom_site_symmetry_multiplicity
  _atom_site_fract_x
  _atom_site_fract_y
  _atom_site_fract_z
  _atom_site_occupancy
  C   C1        1.0  0.12433163500000002  0.122948155  0.5300043786397961  1.0000
  O   O1        1.0  0.123548775  0.122946965  0.5417148048367371  1.0000
  V   V1        1.0  0.12298334500000001  0.12294630499999999  0.49806965430708916  1.0000
  Pt  Pt1       1.0  0.12298872500000001  0.368838555  0.516057753065204  1.0000
  Pt  Pt2       1.0  0.36876485500000006  0.122946555  0.5160732721992656  1.0000
  Pt  Pt3       1.0  0.37214411500000005  0.371974155  0.4969047214167713  1.0000
  V   V2        1.0  0.12300520499999998  0.122946555  0.4582851951632628  1.0000
  Pt  Pt4       1.0  0.12300520499999998  0.37294655500000007  0.47765312405406196  1.0000
  Pt  Pt5       1.0  0.37300520500000006  0.122946555  0.47765312405406196  1.0000
  Pt  Pt6       1.0  0.37300520500000006  0.37294655500000007  0.4582851951632628  1.0000
  V   V3        1.0  0.12300016500000002  0.622946435  0.49943627396283574  1.0000
  Pt  Pt7       1.0  0.122988605  0.8770538050000001  0.5160577127799119  1.0000
  Pt  Pt8       1.0  0.374335515  0.6229464450000001  0.5157455141616666  1.0000
  Pt  Pt9       1.0  0.37214454500000005  0.873919435  0.4969046718348733  1.0000
  V   V4        1.0  0.12300520499999998  0.6229465550000001  0.4582851951632628  1.0000
  Pt  Pt10      1.0  0.12300520499999998  0.8729465550000001  0.47765312405406196  1.0000
  Pt  Pt11      1.0  0.37300520500000006  0.6229465550000001  0.47765312405406196  1.0000
  Pt  Pt12      1.0  0.37300520500000006  0.8729465550000001  0.4582851951632628  1.0000
  V   V5        1.0  0.623065375  0.122946535  0.4994374360385692  1.0000
  Pt  Pt13      1.0  0.623027155  0.374227715  0.5157463911414868  1.0000
  Pt  Pt14      1.0  0.8770166550000001  0.122946195  0.5160440684613669  1.0000
  Pt  Pt15      1.0  0.8739339350000002  0.372105175  0.49690230429924576  1.0000
  V   V6        1.0  0.623005205  0.122946555  0.4582851951632628  1.0000
  Pt  Pt16      1.0  0.623005205  0.37294655500000007  0.47765312405406196  1.0000
  Pt  Pt17      1.0  0.873005205  0.122946555  0.47765312405406196  1.0000
  Pt  Pt18      1.0  0.873005205  0.37294655500000007  0.4582851951632628  1.0000
  V   V7        1.0  0.6229814350000001  0.6229463350000001  0.4991987518806562  1.0000
  Pt  Pt19      1.0  0.6230275150000001  0.871665275  0.5157463849437496  1.0000
  Pt  Pt20      1.0  0.8717180750000001  0.6229465050000002  0.5157489198182829  1.0000
  Pt  Pt21      1.0  0.8739338750000001  0.8737878950000001  0.49690230120037704  1.0000
  V   V8        1.0  0.623005205  0.6229465550000001  0.4582851951632628  1.0000
  Pt  Pt22      1.0  0.623005205  0.8729465550000001  0.47765312405406196  1.0000
  Pt  Pt23      1.0  0.873005205  0.6229465550000001  0.47765312405406196  1.0000
  Pt  Pt24      1.0  0.873005205  0.8729465550000001  0.4582851951632628  1.0000
