data_image0
_chemical_formula_structural       COCu24
_chemical_formula_sum              "C1 O1 Cu24"
_cell_length_a       7.3541736868992995
_cell_length_b       4.503493258776421
_cell_length_c       104.59198807
_cell_angle_alpha    87.51279388211253
_cell_angle_beta     93.04667186446912
_cell_angle_gamma    114.09484257804324

_space_group_name_H-M_alt    "P 1"
_space_group_IT_number       1

loop_
  _space_group_symop_operation_xyz
  'x, y, z'

loop_
  _atom_site_type_symbol
  _atom_site_label
  _atom_site_symmetry_multiplicity
  _atom_site_fract_x
  _atom_site_fract_y
  _atom_site_fract_z
  _atom_site_occupancy
  C   C1        1.0  0.3585412750000001  0.463281465  0.5463870999463549  1.0000
  O   O1        1.0  0.4405265050000001  0.45196237499999997  0.5561046543501751  1.0000
  Cu  Cu1       1.0  0.2917653850000001  0.6792365049999999  0.5069446949581722  1.0000
  Cu  Cu2       1.0  0.10092213500000001  0.8744408649999998  0.5222915642443954  1.0000
  Cu  Cu3       1.0  0.48214285500000004  0.488095235  0.49114287311059834  1.0000
  Cu  Cu4       1.0  0.44748931500000017  0.268258135  0.5150624424924576  1.0000
  Cu  Cu5       1.0  0.26052949500000006  0.481643515  0.5298381232184594  1.0000
  Cu  Cu6       1.0  0.13690476500000004  0.08333333499999998  0.49901745936706376  1.0000
  Cu  Cu7       1.0  0.3630952350000001  0.10714285499999997  0.4596445214700827  1.0000
  Cu  Cu8       1.0  0.17261904500000005  0.29761904499999997  0.47539369729034053  1.0000
  Cu  Cu9       1.0  0.05357143500000001  0.9166666649999999  0.44389534564982497  1.0000
  Cu  Cu10      1.0  0.01785714499999998  0.7023809549999999  0.46751910772654826  1.0000
  Cu  Cu11      1.0  0.327380955  0.8928571449999999  0.48326828354680607  1.0000
  Cu  Cu12      1.0  0.208333335  0.5119047649999998  0.4517699352136172  1.0000
  Cu  Cu13      1.0  0.7906398650000002  0.6811864149999999  0.5066066167097564  1.0000
  Cu  Cu14      1.0  0.6082793950000001  0.8681746349999999  0.5224180562635393  1.0000
  Cu  Cu15      1.0  0.9821428550000001  0.488095235  0.49114287311059834  1.0000
  Cu  Cu16      1.0  0.9530666950000001  0.277863355  0.5149135334125555  1.0000
  Cu  Cu17      1.0  0.762744595  0.468222585  0.5291113513929402  1.0000
  Cu  Cu18      1.0  0.636904765  0.08333333499999998  0.49901745936706376  1.0000
  Cu  Cu19      1.0  0.8630952350000001  0.10714285499999997  0.4596445214700827  1.0000
  Cu  Cu20      1.0  0.672619045  0.29761904499999997  0.47539369729034053  1.0000
  Cu  Cu21      1.0  0.5535714350000001  0.9166666649999999  0.44389534564982497  1.0000
  Cu  Cu22      1.0  0.517857145  0.7023809549999999  0.46751910772654826  1.0000
  Cu  Cu23      1.0  0.8273809550000001  0.8928571449999999  0.48326828354680607  1.0000
  Cu  Cu24      1.0  0.708333335  0.5119047649999998  0.4517699352136172  1.0000
