data_image0
_chemical_formula_structural       CONb16
_chemical_formula_sum              "C1 O1 Nb16"
_cell_length_a       6.68817939
_cell_length_b       5.62340178456802
_cell_length_c       103.06336055
_cell_angle_alpha    90.0
_cell_angle_beta     90.0
_cell_angle_gamma    122.62221399899964

_space_group_name_H-M_alt    "P 1"
_space_group_IT_number       1

loop_
  _space_group_symop_operation_xyz
  'x, y, z'

loop_
  _atom_site_type_symbol
  _atom_site_label
  _atom_site_symmetry_multiplicity
  _atom_site_fract_x
  _atom_site_fract_y
  _atom_site_fract_z
  _atom_site_occupancy
  C   C1        1.0  0.6233079899999999  0.75313641  0.5352269765413293  1.0000
  O   O1        1.0  0.6232836199999999  0.75313847  0.5470974651838882  1.0000
  Nb  Nb1       1.0  0.3732980699999999  0.25313721  0.47581725980545625  1.0000
  Nb  Nb2       1.0  0.12329806999999995  0.25313721  0.45290253481611165  1.0000
  Nb  Nb3       1.0  0.37485471  0.26363033  0.5209132282126413  1.0000
  Nb  Nb4       1.0  0.12329667999999998  0.25313338  0.4988701945030437  1.0000
  Nb  Nb5       1.0  0.37329807  0.75313721  0.47581725980545625  1.0000
  Nb  Nb6       1.0  0.12329807000000001  0.75313721  0.45290253481611165  1.0000
  Nb  Nb7       1.0  0.36989862999999995  0.75736075  0.521138960256437  1.0000
  Nb  Nb8       1.0  0.12330069999999999  0.75313701  0.4988372477107951  1.0000
  Nb  Nb9       1.0  0.8732980699999999  0.25313721  0.47581725980545625  1.0000
  Nb  Nb10      1.0  0.62329807  0.25313721  0.45290253481611165  1.0000
  Nb  Nb11      1.0  0.8717464699999999  0.24263925  0.520913340494796  1.0000
  Nb  Nb12      1.0  0.6233001599999999  0.25315087000000003  0.4991355621474462  1.0000
  Nb  Nb13      1.0  0.8732980699999999  0.75313721  0.47581725980545625  1.0000
  Nb  Nb14      1.0  0.62329807  0.75313721  0.45290253481611165  1.0000
  Nb  Nb15      1.0  0.8767033200000001  0.7489140000000001  0.5211392650222855  1.0000
  Nb  Nb16      1.0  0.6232975499999999  0.75313948  0.49896135478040854  1.0000
