data_image0
_chemical_formula_structural       COMo32
_chemical_formula_sum              "C1 O1 Mo32"
_cell_length_a       5.47689242
_cell_length_b       8.94372788
_cell_length_c       100.98198218
_cell_angle_alpha    90.0
_cell_angle_beta     90.0
_cell_angle_gamma    90.0

_space_group_name_H-M_alt    "P 1"
_space_group_IT_number       1

loop_
  _space_group_symop_operation_xyz
  'x, y, z'

loop_
  _atom_site_type_symbol
  _atom_site_label
  _atom_site_symmetry_multiplicity
  _atom_site_fract_x
  _atom_site_fract_y
  _atom_site_fract_z
  _atom_site_occupancy
  C   C1        1.0  0.607312455  0.875904245  0.5475900750765792  1.0000
  O   O1        1.0  0.6964967750000001  0.875907165  0.5583098544612127  1.0000
  Mo  Mo1       1.0  0.41526936500000006  0.12590037499999998  0.4928246487308113  1.0000
  Mo  Mo2       1.0  0.42662429500000004  0.37590069499999995  0.529173943130414  1.0000
  Mo  Mo3       1.0  0.255994325  0.12623298499999996  0.518583952324284  1.0000
  Mo  Mo4       1.0  0.07367150500000001  0.37590052499999993  0.5057367392349802  1.0000
  Mo  Mo5       1.0  0.24860270500000003  0.625900375  0.4416901455387873  1.0000
  Mo  Mo6       1.0  0.24860270500000003  0.37590037499999995  0.48004102446684044  1.0000
  Mo  Mo7       1.0  0.08193603500000002  0.12590037499999998  0.4672573971347993  1.0000
  Mo  Mo8       1.0  0.41526936500000006  0.37590037499999995  0.45447376980275817  1.0000
  Mo  Mo9       1.0  0.41526936500000006  0.625900375  0.4928246487308113  1.0000
  Mo  Mo10      1.0  0.421138135  0.875901665  0.5298523302937372  1.0000
  Mo  Mo11      1.0  0.25599503500000004  0.6255623949999999  0.5185844738962375  1.0000
  Mo  Mo12      1.0  0.07868929500000003  0.8759004149999999  0.5057521071991843  1.0000
  Mo  Mo13      1.0  0.24860270500000003  0.12590037499999998  0.4416901455387873  1.0000
  Mo  Mo14      1.0  0.24860270500000003  0.875900375  0.48004102446684044  1.0000
  Mo  Mo15      1.0  0.08193603500000002  0.625900375  0.4672573971347993  1.0000
  Mo  Mo16      1.0  0.41526936500000006  0.875900375  0.45447376980275817  1.0000
  Mo  Mo17      1.0  0.9152693649999999  0.12590037499999998  0.4928246487308113  1.0000
  Mo  Mo18      1.0  0.9258747549999999  0.37590104499999993  0.5289585523220728  1.0000
  Mo  Mo19      1.0  0.7558594249999999  0.12409283499999998  0.5183975639846234  1.0000
  Mo  Mo20      1.0  0.573541255  0.37590100499999995  0.5058232557497715  1.0000
  Mo  Mo21      1.0  0.7486027049999999  0.625900375  0.4416901455387873  1.0000
  Mo  Mo22      1.0  0.7486027049999999  0.37590037499999995  0.48004102446684044  1.0000
  Mo  Mo23      1.0  0.581936035  0.12590037499999998  0.4672573971347993  1.0000
  Mo  Mo24      1.0  0.9152693649999999  0.37590037499999995  0.45447376980275817  1.0000
  Mo  Mo25      1.0  0.9152693649999999  0.625900375  0.4928246487308113  1.0000
  Mo  Mo26      1.0  0.9263284949999999  0.8759009649999999  0.5295785602434566  1.0000
  Mo  Mo27      1.0  0.7558595449999999  0.627708305  0.518397735796561  1.0000
  Mo  Mo28      1.0  0.575701945  0.8758999749999999  0.5054115790069359  1.0000
  Mo  Mo29      1.0  0.7486027049999999  0.12590037499999998  0.4416901455387873  1.0000
  Mo  Mo30      1.0  0.7486027049999999  0.875900375  0.48004102446684044  1.0000
  Mo  Mo31      1.0  0.581936035  0.625900375  0.4672573971347993  1.0000
  Mo  Mo32      1.0  0.9152693649999999  0.875900375  0.45447376980275817  1.0000
