data_image0
_chemical_formula_structural       COPb16
_chemical_formula_sum              "C1 O1 Pb16"
_cell_length_a       7.20987856
_cell_length_b       8.830261788384478
_cell_length_c       103.43083158
_cell_angle_alpha    95.05115253148615
_cell_angle_beta     90.0
_cell_angle_gamma    90.0

_space_group_name_H-M_alt    "P 1"
_space_group_IT_number       1

loop_
  _space_group_symop_operation_xyz
  'x, y, z'

loop_
  _atom_site_type_symbol
  _atom_site_label
  _atom_site_symmetry_multiplicity
  _atom_site_fract_x
  _atom_site_fract_y
  _atom_site_fract_z
  _atom_site_occupancy
  C   C1        1.0  0.624486855  0.89395978  0.5401433215484424  1.0000
  O   O1        1.0  0.624486845  0.9240713600000001  0.551185721196537  1.0000
  Pb  Pb1       1.0  0.624486835  0.38990402  0.5171649310336186  1.0000
  Pb  Pb2       1.0  0.624486855  0.328125  0.4589148790878854  1.0000
  Pb  Pb3       1.0  0.624486855  0.01562499999999998  0.4791160796567303  1.0000
  Pb  Pb4       1.0  0.624486865  0.69733591  0.4977530026836709  1.0000
  Pb  Pb5       1.0  0.37448685499999995  0.671875  0.4690154793723079  1.0000
  Pb  Pb6       1.0  0.37448685499999995  0.35937500000000006  0.4892166799411528  1.0000
  Pb  Pb7       1.0  0.3734605549999999  0.07192842999999997  0.5084559413574066  1.0000
  Pb  Pb8       1.0  0.37448685499999995  0.9843750000000001  0.4488142788034629  1.0000
  Pb  Pb9       1.0  0.12448687499999998  0.38980145000000005  0.5172647346610051  1.0000
  Pb  Pb10      1.0  0.12448685499999998  0.328125  0.4589148790878854  1.0000
  Pb  Pb11      1.0  0.12448685499999998  0.01562499999999998  0.4791160796567303  1.0000
  Pb  Pb12      1.0  0.12448684499999997  0.69731112  0.4978656251848902  1.0000
  Pb  Pb13      1.0  0.874486855  0.671875  0.4690154793723079  1.0000
  Pb  Pb14      1.0  0.874486855  0.35937500000000006  0.4892166799411528  1.0000
  Pb  Pb15      1.0  0.875513155  0.07192847999999998  0.5084559510539827  1.0000
  Pb  Pb16      1.0  0.874486855  0.9843750000000001  0.4488142788034629  1.0000
