data_image0
_chemical_formula_structural       COPb20
_chemical_formula_sum              "C1 O1 Pb20"
_cell_length_a       7.20987856
_cell_length_b       10.814817840955675
_cell_length_c       104.00892913999999
_cell_angle_alpha    92.02486830009263
_cell_angle_beta     90.0
_cell_angle_gamma    90.0

_space_group_name_H-M_alt    "P 1"
_space_group_IT_number       1

loop_
  _space_group_symop_operation_xyz
  'x, y, z'

loop_
  _atom_site_type_symbol
  _atom_site_label
  _atom_site_symmetry_multiplicity
  _atom_site_fract_x
  _atom_site_fract_y
  _atom_site_fract_z
  _atom_site_occupancy
  C   C1        1.0  0.875002535  0.66840529  0.5409282417091189  1.0000
  O   O1        1.0  0.874999815  0.68656647  0.5518880581239629  1.0000
  Pb  Pb1       1.0  0.6249471449999999  0.21647086999999998  0.5118774963740923  1.0000
  Pb  Pb2       1.0  0.624894485  0.77779822  0.4973887749912219  1.0000
  Pb  Pb3       1.0  0.624997465  0.41974957999999996  0.44811194187603715  1.0000
  Pb  Pb4       1.0  0.12499746499999995  0.31974958  0.4808100279165373  1.0000
  Pb  Pb5       1.0  0.624997465  0.86974958  0.46446098489628723  1.0000
  Pb  Pb6       1.0  0.3749974649999999  0.04474957999999995  0.48898454942666236  1.0000
  Pb  Pb7       1.0  0.3749974649999999  0.59474958  0.4726355064064123  1.0000
  Pb  Pb8       1.0  0.374998905  0.49628249  0.5027168529059234  1.0000
  Pb  Pb9       1.0  0.3749974649999999  0.14474957999999993  0.4562864633861622  1.0000
  Pb  Pb10      1.0  0.37500603499999996  0.9544775  0.5195237933834674  1.0000
  Pb  Pb11      1.0  0.12506075499999994  0.21646608999999994  0.5118772740271073  1.0000
  Pb  Pb12      1.0  0.12502111499999993  0.77778833  0.49738890905337463  1.0000
  Pb  Pb13      1.0  0.12499746499999995  0.41974957999999996  0.44811194187603715  1.0000
  Pb  Pb14      1.0  0.624997465  0.31974958  0.4808100279165373  1.0000
  Pb  Pb15      1.0  0.12499746499999995  0.86974958  0.46446098489628723  1.0000
  Pb  Pb16      1.0  0.874997465  0.04474957999999995  0.48898454942666236  1.0000
  Pb  Pb17      1.0  0.874997465  0.59474958  0.4726355064064123  1.0000
  Pb  Pb18      1.0  0.875001935  0.49613907  0.5027042870314581  1.0000
  Pb  Pb19      1.0  0.874997465  0.14474957999999993  0.4562864633861622  1.0000
  Pb  Pb20      1.0  0.874993625  0.95525042  0.519505538042031  1.0000
