data_image0
_chemical_formula_structural       COPd32
_chemical_formula_sum              "C1 O1 Pd32"
_cell_length_a       5.6258447
_cell_length_b       6.89022445
_cell_length_c       108.97699545
_cell_angle_alpha    90.0
_cell_angle_beta     90.0
_cell_angle_gamma    90.0

_space_group_name_H-M_alt    "P 1"
_space_group_IT_number       1

loop_
  _space_group_symop_operation_xyz
  'x, y, z'

loop_
  _atom_site_type_symbol
  _atom_site_label
  _atom_site_symmetry_multiplicity
  _atom_site_fract_x
  _atom_site_fract_y
  _atom_site_fract_z
  _atom_site_occupancy
  C   C1        1.0  0.37502150000000006  0.8206882550000001  0.5570147588875143  1.0000
  O   O1        1.0  0.37500747999999995  0.8106535850000001  0.5678662028055665  1.0000
  Pd  Pd1       1.0  0.12499742000000004  0.164996585  0.4842929250580411  1.0000
  Pd  Pd2       1.0  0.12499742000000004  0.164996585  0.4395851001530557  1.0000
  Pd  Pd3       1.0  0.12499742000000004  0.831663255  0.4544877096469262  1.0000
  Pd  Pd4       1.0  0.12499742000000004  0.49832992499999995  0.46939031914079665  1.0000
  Pd  Pd5       1.0  0.37499742  0.49832992499999995  0.4470364066883039  1.0000
  Pd  Pd6       1.0  0.37499742  0.164996585  0.46193901260554837  1.0000
  Pd  Pd7       1.0  0.37499742  0.831663255  0.47684162209941894  1.0000
  Pd  Pd8       1.0  0.37499742  0.831663255  0.43213379719443346  1.0000
  Pd  Pd9       1.0  0.12789498000000002  0.826132345  0.5439467796964448  1.0000
  Pd  Pd10      1.0  0.12499742000000004  0.831663255  0.4991955345519117  1.0000
  Pd  Pd11      1.0  0.12499742000000004  0.49832992499999995  0.5140981440457821  1.0000
  Pd  Pd12      1.0  0.12504619000000003  0.165886685  0.5295183950429065  1.0000
  Pd  Pd13      1.0  0.37499742  0.164996585  0.5066468375105339  1.0000
  Pd  Pd14      1.0  0.37499633000000004  0.8343426350000002  0.5213554150443168  1.0000
  Pd  Pd15      1.0  0.37499727000000005  0.492186745  0.5363439136347687  1.0000
  Pd  Pd16      1.0  0.37499742  0.49832992499999995  0.4917442315932894  1.0000
  Pd  Pd17      1.0  0.62499742  0.164996585  0.4842929250580411  1.0000
  Pd  Pd18      1.0  0.62499742  0.164996585  0.4395851001530557  1.0000
  Pd  Pd19      1.0  0.62499742  0.831663255  0.4544877096469262  1.0000
  Pd  Pd20      1.0  0.62499742  0.49832992499999995  0.46939031914079665  1.0000
  Pd  Pd21      1.0  0.8749974199999999  0.49832992499999995  0.4470364066883039  1.0000
  Pd  Pd22      1.0  0.8749974199999999  0.164996585  0.46193901260554837  1.0000
  Pd  Pd23      1.0  0.8749974199999999  0.831663255  0.47684162209941894  1.0000
  Pd  Pd24      1.0  0.8749974199999999  0.831663255  0.43213379719443346  1.0000
  Pd  Pd25      1.0  0.62209795  0.8261276550000001  0.5439473626864816  1.0000
  Pd  Pd26      1.0  0.62499742  0.831663255  0.4991955345519117  1.0000
  Pd  Pd27      1.0  0.62499742  0.49832992499999995  0.5140981440457821  1.0000
  Pd  Pd28      1.0  0.62494753  0.165887225  0.5295184629988005  1.0000
  Pd  Pd29      1.0  0.8749974199999999  0.164996585  0.5066468375105339  1.0000
  Pd  Pd30      1.0  0.87500217  0.8350034150000001  0.5218877385972694  1.0000
  Pd  Pd31      1.0  0.87500258  0.496064135  0.5362042893092774  1.0000
  Pd  Pd32      1.0  0.8749974199999999  0.49832992499999995  0.4917442315932894  1.0000
