data_image0
_chemical_formula_structural       CORu36
_chemical_formula_sum              "C1 O1 Ru36"
_cell_length_a       8.56581018
_cell_length_b       7.230784345206899
_cell_length_c       100.06277554
_cell_angle_alpha    79.10660532859586
_cell_angle_beta     90.0
_cell_angle_gamma    90.0

_space_group_name_H-M_alt    "P 1"
_space_group_IT_number       1

loop_
  _space_group_symop_operation_xyz
  'x, y, z'

loop_
  _atom_site_type_symbol
  _atom_site_label
  _atom_site_symmetry_multiplicity
  _atom_site_fract_x
  _atom_site_fract_y
  _atom_site_fract_z
  _atom_site_occupancy
  C   C1        1.0  0.8623914000000001  0.143302015  0.5399627321838119  1.0000
  O   O1        1.0  0.85330491  0.164371675  0.5513385212196728  1.0000
  Ru  Ru1       1.0  0.37620069  0.44043917499999996  0.5032320718321902  1.0000
  Ru  Ru2       1.0  0.37594595  0.7808187149999999  0.5119170617162803  1.0000
  Ru  Ru3       1.0  0.37570429000000005  0.108843175  0.5200818261848213  1.0000
  Ru  Ru4       1.0  0.12514319999999998  0.226513855  0.5063795234747142  1.0000
  Ru  Ru5       1.0  0.12782348999999998  0.567678475  0.5144263866064045  1.0000
  Ru  Ru6       1.0  0.12357748  0.8911568249999999  0.5230555278563249  1.0000
  Ru  Ru7       1.0  0.37642252  0.4458338149999999  0.4759741287889526  1.0000
  Ru  Ru8       1.0  0.37642252  0.7791671549999999  0.4850783454584944  1.0000
  Ru  Ru9       1.0  0.37642252  0.11250048499999998  0.49418256513242775  1.0000
  Ru  Ru10      1.0  0.12642251999999998  0.22361159499999997  0.4790088676787999  1.0000
  Ru  Ru11      1.0  0.12642251999999998  0.556944935  0.4881130873527332  1.0000
  Ru  Ru12      1.0  0.12545341  0.8908396849999999  0.4971510301494928  1.0000
  Ru  Ru13      1.0  0.37642252  0.4458338149999999  0.4486614787803273  1.0000
  Ru  Ru14      1.0  0.37642252  0.7791671549999999  0.457765695449869  1.0000
  Ru  Ru15      1.0  0.37642252  0.11250048499999998  0.4668699121194108  1.0000
  Ru  Ru16      1.0  0.12642251999999998  0.22361159499999997  0.45169621767017454  1.0000
  Ru  Ru17      1.0  0.12642251999999998  0.556944935  0.4608004343397163  1.0000
  Ru  Ru18      1.0  0.12642251999999998  0.890278265  0.4699046510092581  1.0000
  Ru  Ru19      1.0  0.87622692  0.44335500499999997  0.5034975969513078  1.0000
  Ru  Ru20      1.0  0.87611848  0.7771949049999999  0.5119008860722774  1.0000
  Ru  Ru21      1.0  0.87495753  0.11358084499999999  0.5217661421561434  1.0000
  Ru  Ru22      1.0  0.62708144  0.226905955  0.5063738091220222  1.0000
  Ru  Ru23      1.0  0.62442668  0.5681306749999999  0.5144153424631365  1.0000
  Ru  Ru24      1.0  0.62840436  0.8909748249999999  0.5230476383241647  1.0000
  Ru  Ru25      1.0  0.87642252  0.4458338149999999  0.4759741287889526  1.0000
  Ru  Ru26      1.0  0.87642252  0.7791671549999999  0.4850783454584944  1.0000
  Ru  Ru27      1.0  0.87642252  0.11250048499999998  0.49418256513242775  1.0000
  Ru  Ru28      1.0  0.62642252  0.22361159499999997  0.4790088676787999  1.0000
  Ru  Ru29      1.0  0.62642252  0.556944935  0.4881130873527332  1.0000
  Ru  Ru30      1.0  0.62694119  0.8908598649999999  0.4971585831898018  1.0000
  Ru  Ru31      1.0  0.87642252  0.4458338149999999  0.4486614787803273  1.0000
  Ru  Ru32      1.0  0.87642252  0.7791671549999999  0.457765695449869  1.0000
  Ru  Ru33      1.0  0.87642252  0.11250048499999998  0.4668699121194108  1.0000
  Ru  Ru34      1.0  0.62642252  0.22361159499999997  0.45169621767017454  1.0000
  Ru  Ru35      1.0  0.62642252  0.556944935  0.4608004343397163  1.0000
  Ru  Ru36      1.0  0.62642252  0.890278265  0.4699046510092581  1.0000
