data_image0
_chemical_formula_structural       COAl12
_chemical_formula_sum              "C1 O1 Al12"
_cell_length_a       5.7416295
_cell_length_b       5.741629503361785
_cell_length_c       98.12812513
_cell_angle_alpha    90.0
_cell_angle_beta     90.0
_cell_angle_gamma    119.99999998063149

_space_group_name_H-M_alt    "P 1"
_space_group_IT_number       1

loop_
  _space_group_symop_operation_xyz
  'x, y, z'

loop_
  _atom_site_type_symbol
  _atom_site_label
  _atom_site_symmetry_multiplicity
  _atom_site_fract_x
  _atom_site_fract_y
  _atom_site_fract_z
  _atom_site_occupancy
  C   C1        1.0  0.25265574999999996  0.422778825  0.5246079503884453  1.0000
  O   O1        1.0  0.2527096999999999  0.42272452499999996  0.5370314315513431  1.0000
  Al  Al1       1.0  0.2525957799999999  0.42283799499999997  0.4629685684486569  1.0000
  Al  Al2       1.0  0.07976475999999989  0.07716200499999999  0.510535587263804  1.0000
  Al  Al3       1.0  0.4187671199999999  0.256666525  0.48699757518021425  1.0000
  Al  Al4       1.0  0.25259578  0.9228379950000001  0.4629685684486569  1.0000
  Al  Al5       1.0  0.07978022999999998  0.5956534850000001  0.5105375335964113  1.0000
  Al  Al6       1.0  0.4187730399999999  0.7551984549999999  0.4869981542069987  1.0000
  Al  Al7       1.0  0.7525957799999999  0.42283799499999997  0.4629685684486569  1.0000
  Al  Al8       1.0  0.5859303199999998  0.08950329499999998  0.510179766705324  1.0000
  Al  Al9       1.0  0.92023524  0.256660645  0.48699815134052954  1.0000
  Al  Al10      1.0  0.7525957799999999  0.9228379950000001  0.4629685684486569  1.0000
  Al  Al11      1.0  0.5982719599999999  0.5956690050000001  0.5105355843973348  1.0000
  Al  Al12      1.0  0.9192653099999999  0.7561683150000001  0.4863987496927459  1.0000
