data_image0
_chemical_formula_structural       COHf18
_chemical_formula_sum              "C1 O1 Hf18"
_cell_length_a       6.026728474555843
_cell_length_b       7.547964416721422
_cell_length_c       101.07387063
_cell_angle_alpha    92.56794887632044
_cell_angle_beta     94.68753258039695
_cell_angle_gamma    103.35658204572795

_space_group_name_H-M_alt    "P 1"
_space_group_IT_number       1

loop_
  _space_group_symop_operation_xyz
  'x, y, z'

loop_
  _atom_site_type_symbol
  _atom_site_label
  _atom_site_symmetry_multiplicity
  _atom_site_fract_x
  _atom_site_fract_y
  _atom_site_fract_z
  _atom_site_occupancy
  C   C1        1.0  0.13807213000000013  0.2967068300000001  0.5442295736612357  1.0000
  O   O1        1.0  0.019382840000000064  0.28520168000000007  0.5529380928515766  1.0000
  Hf  Hf1       1.0  0.9806171600000001  0.6432415700000003  0.45901779969782414  1.0000
  Hf  Hf2       1.0  0.6139504900000001  0.3099082400000001  0.4692657062797222  1.0000
  Hf  Hf3       1.0  0.3472838300000001  0.9765749000000002  0.44876989004155365  1.0000
  Hf  Hf4       1.0  0.87506161  0.03213046000000004  0.45730981373032165  1.0000
  Hf  Hf5       1.0  0.5083949400000002  0.6987971200000003  0.467557723386592  1.0000
  Hf  Hf6       1.0  0.24172827000000005  0.3654637900000001  0.4470619071484234  1.0000
  Hf  Hf7       1.0  0.88061716  0.6432415700000003  0.48976152251789073  1.0000
  Hf  Hf8       1.0  0.5139504900000001  0.3099082400000001  0.5000094290997888  1.0000
  Hf  Hf9       1.0  0.24728383000000012  0.9765749000000002  0.4795136128616204  1.0000
  Hf  Hf10      1.0  0.7750616100000001  0.03213046000000004  0.4880535365503883  1.0000
  Hf  Hf11      1.0  0.40839494000000015  0.6987971200000003  0.4983014462066588  1.0000
  Hf  Hf12      1.0  0.14172827000000007  0.3654637900000001  0.47780562996849013  1.0000
  Hf  Hf13      1.0  0.77726671  0.63430695  0.5197103233432326  1.0000
  Hf  Hf14      1.0  0.38235507999999996  0.3078387200000001  0.5286062470447679  1.0000
  Hf  Hf15      1.0  0.1590785500000001  0.9796731700000001  0.5102293896376436  1.0000
  Hf  Hf16      1.0  0.68045662  0.02032683000000004  0.5180170912883116  1.0000
  Hf  Hf17      1.0  0.3327870800000001  0.7055856000000001  0.5274750655816987  1.0000
  Hf  Hf18      1.0  0.03445959000000009  0.3609867400000001  0.5079150636711945  1.0000
