data_image0
_chemical_formula_structural       COSr12
_chemical_formula_sum              "C1 O1 Sr12"
_cell_length_a       8.70281734
_cell_length_b       8.702817347849901
_cell_length_c       101.97619273000001
_cell_angle_alpha    90.0
_cell_angle_beta     90.0
_cell_angle_gamma    60.00000002983777

_space_group_name_H-M_alt    "P 1"
_space_group_IT_number       1

loop_
  _space_group_symop_operation_xyz
  'x, y, z'

loop_
  _atom_site_type_symbol
  _atom_site_label
  _atom_site_symmetry_multiplicity
  _atom_site_fract_x
  _atom_site_fract_y
  _atom_site_fract_z
  _atom_site_occupancy
  C   C1        1.0  0.5778725450000001  0.8451997849999999  0.5386551227854839  1.0000
  O   O1        1.0  0.583634785  0.842554005  0.5502971303485217  1.0000
  Sr  Sr1       1.0  0.08360899499999998  0.09233719500000002  0.5188737226946225  1.0000
  Sr  Sr2       1.0  0.416410575  0.425957135  0.4497028696514784  1.0000
  Sr  Sr3       1.0  0.24974391499999996  0.259290475  0.48454345521061165  1.0000
  Sr  Sr4       1.0  0.08358942500000004  0.5923498449999999  0.5187505699335858  1.0000
  Sr  Sr5       1.0  0.4164105749999999  0.9259571349999999  0.4497028696514784  1.0000
  Sr  Sr6       1.0  0.24974391499999987  0.7592904750000001  0.48454345521061165  1.0000
  Sr  Sr7       1.0  0.5825863849999999  0.07404286500000001  0.5187216372658306  1.0000
  Sr  Sr8       1.0  0.9164105750000001  0.425957135  0.4497028696514784  1.0000
  Sr  Sr9       1.0  0.7497439149999999  0.259290475  0.48454345521061165  1.0000
  Sr  Sr10      1.0  0.582591715  0.6116777250000001  0.5187254690334687  1.0000
  Sr  Sr11      1.0  0.916410575  0.9259571349999999  0.4497028696514784  1.0000
  Sr  Sr12      1.0  0.7497439149999999  0.7592904750000001  0.48454345521061165  1.0000
