data_image0
_chemical_formula_structural       COIn12
_chemical_formula_sum              "C1 O1 In12"
_cell_length_a       6.974192258180981
_cell_length_b       5.898844171302902
_cell_length_c       100.40318055
_cell_angle_alpha    85.3777266612629
_cell_angle_beta     91.36457155772156
_cell_angle_gamma    103.54474865018352

_space_group_name_H-M_alt    "P 1"
_space_group_IT_number       1

loop_
  _space_group_symop_operation_xyz
  'x, y, z'

loop_
  _atom_site_type_symbol
  _atom_site_label
  _atom_site_symmetry_multiplicity
  _atom_site_fract_x
  _atom_site_fract_y
  _atom_site_fract_z
  _atom_site_occupancy
  C   C1        1.0  0.321070065  0.7125584849999999  0.5450460344441916  1.0000
  O   O1        1.0  0.22772070500000005  0.663583425  0.5546261970963178  1.0000
  In  In1       1.0  0.443753055  0.9285714249999999  0.47421293757696276  1.0000
  In  In2       1.0  0.22946734500000004  0.071428575  0.4453738029036823  1.0000
  In  In3       1.0  0.08661020500000002  0.49999999500000003  0.45979336872626786  1.0000
  In  In4       1.0  0.05624694500000004  0.259819635  0.5165514925538564  1.0000
  In  In5       1.0  0.320440045  0.37118428499999995  0.4883387949654019  1.0000
  In  In6       1.0  0.20002595500000003  0.8144347149999998  0.5041532805371329  1.0000
  In  In7       1.0  0.9437530550000001  0.9285714249999999  0.4742129375769628  1.0000
  In  In8       1.0  0.7294673450000001  0.071428575  0.4453738029036823  1.0000
  In  In9       1.0  0.5866102050000002  0.49999999500000003  0.45979336872626786  1.0000
  In  In10      1.0  0.560933085  0.270273605  0.516644301076014  1.0000
  In  In11      1.0  0.8177590849999999  0.369541135  0.48787564261875016  1.0000
  In  In12      1.0  0.701979925  0.8159011149999998  0.5045062793515153  1.0000
