data_image0
_chemical_formula_structural       COHf12
_chemical_formula_sum              "C1 O1 Hf12"
_cell_length_a       5.56556071
_cell_length_b       6.026728472133787
_cell_length_c       102.13277973000001
_cell_angle_alpha    105.46119036651339
_cell_angle_beta     90.0
_cell_angle_gamma    62.500569811857936

_space_group_name_H-M_alt    "P 1"
_space_group_IT_number       1

loop_
  _space_group_symop_operation_xyz
  'x, y, z'

loop_
  _atom_site_type_symbol
  _atom_site_label
  _atom_site_symmetry_multiplicity
  _atom_site_fract_x
  _atom_site_fract_y
  _atom_site_fract_z
  _atom_site_occupancy
  C   C1        1.0  0.11082666999999992  0.471247845  0.5446072550082599  1.0000
  O   O1        1.0  0.22603931999999993  0.366892365  0.5527927611073518  1.0000
  Hf  Hf1       1.0  0.85963926  0.753365295  0.4708035660083989  1.0000
  Hf  Hf2       1.0  0.3596392599999999  0.753365295  0.455072681264565  1.0000
  Hf  Hf3       1.0  0.7763059199999999  0.25336529500000005  0.46293812363648196  1.0000
  Hf  Hf4       1.0  0.27630591999999987  0.25336529500000005  0.4472072388926482  1.0000
  Hf  Hf5       1.0  0.85963926  0.753365295  0.5022653354960667  1.0000
  Hf  Hf6       1.0  0.3596392599999999  0.753365295  0.4865344507522328  1.0000
  Hf  Hf7       1.0  0.7763059199999999  0.25336529500000005  0.49439989312414967  1.0000
  Hf  Hf8       1.0  0.27630591999999987  0.25336529500000005  0.47866900838031584  1.0000
  Hf  Hf9       1.0  0.88917333  0.707622305  0.5312130704922216  1.0000
  Hf  Hf10      1.0  0.34476866999999994  0.7500465350000001  0.5175270780641851  1.0000
  Hf  Hf11      1.0  0.7430262199999998  0.27394346500000005  0.5251097672213624  1.0000
  Hf  Hf12      1.0  0.28746923999999985  0.24663470500000004  0.5095011712293502  1.0000
