data_image0
_chemical_formula_structural       COSr6
_chemical_formula_sum              "C1 O1 Sr6"
_cell_length_a       6.15382116
_cell_length_b       7.536860906643336
_cell_length_c       103.13934114
_cell_angle_alpha    94.34775314519605
_cell_angle_beta     90.0
_cell_angle_gamma    65.90515745289474

_space_group_name_H-M_alt    "P 1"
_space_group_IT_number       1

loop_
  _space_group_symop_operation_xyz
  'x, y, z'

loop_
  _atom_site_type_symbol
  _atom_site_label
  _atom_site_symmetry_multiplicity
  _atom_site_fract_x
  _atom_site_fract_y
  _atom_site_fract_z
  _atom_site_occupancy
  C   C1        1.0  0.5070399950000002  0.93202091  0.5416242230031423  1.0000
  O   O1        1.0  0.505397465  0.93711028  0.5528995526159297  1.0000
  Sr  Sr1       1.0  0.6439195250000003  0.6539871699999998  0.47387599153697535  1.0000
  Sr  Sr2       1.0  0.23148567500000009  0.4784676  0.5000852940245863  1.0000
  Sr  Sr3       1.0  0.060586195000000044  0.82065384  0.4471004473840702  1.0000
  Sr  Sr4       1.0  0.9394138050000002  0.06288971999999997  0.4870274587449651  1.0000
  Sr  Sr5       1.0  0.5252042650000002  0.89071271  0.5137084841635502  1.0000
  Sr  Sr6       1.0  0.35225285500000003  0.2373205  0.4604882194605227  1.0000
