data_image0
_chemical_formula_structural       COZn18
_chemical_formula_sum              "C1 O1 Zn18"
_cell_length_a       5.28241551
_cell_length_b       7.050014472586239
_cell_length_c       99.31120504
_cell_angle_alpha    79.10660537089116
_cell_angle_beta     90.0
_cell_angle_gamma    90.0

_space_group_name_H-M_alt    "P 1"
_space_group_IT_number       1

loop_
  _space_group_symop_operation_xyz
  'x, y, z'

loop_
  _atom_site_type_symbol
  _atom_site_label
  _atom_site_symmetry_multiplicity
  _atom_site_fract_x
  _atom_site_fract_y
  _atom_site_fract_z
  _atom_site_occupancy
  C   C1        1.0  0.24999992  0.76142438  0.5401217286542028  1.0000
  O   O1        1.0  0.24999992999999993  0.7233681  0.5520045848791024  1.0000
  Zn  Zn1       1.0  0.7499999299999999  0.55823542  0.46886425288913197  1.0000
  Zn  Zn2       1.0  0.7499999299999999  0.22490208000000006  0.45992046527417435  1.0000
  Zn  Zn3       1.0  0.7499999299999999  0.89156875  0.4509766776592167  1.0000
  Zn  Zn4       1.0  0.24999992999999993  0.78045764  0.46588299035081276  1.0000
  Zn  Zn5       1.0  0.24999992999999993  0.4471243000000001  0.4569392027358551  1.0000
  Zn  Zn6       1.0  0.24999992999999993  0.11379097000000003  0.4479954151208975  1.0000
  Zn  Zn7       1.0  0.74999977  0.56810943  0.49461414839754203  1.0000
  Zn  Zn8       1.0  0.7499999299999999  0.22490208000000006  0.48675183107049724  1.0000
  Zn  Zn9       1.0  0.7499999299999999  0.89156875  0.47780804050408965  1.0000
  Zn  Zn10      1.0  0.24999988999999997  0.77189608  0.49305733824204795  1.0000
  Zn  Zn11      1.0  0.24999992999999993  0.4471243000000001  0.483770565580728  1.0000
  Zn  Zn12      1.0  0.24999992999999993  0.11379097000000003  0.4748267779657704  1.0000
  Zn  Zn13      1.0  0.7499998999999999  0.56141573  0.5213557901156145  1.0000
  Zn  Zn14      1.0  0.75000016  0.23082359000000002  0.513619251779317  1.0000
  Zn  Zn15      1.0  0.74999987  0.8980395599999998  0.5059382892454358  1.0000
  Zn  Zn16      1.0  0.24999997999999993  0.7478239999999999  0.5194280210712034  1.0000
  Zn  Zn17      1.0  0.24999997999999993  0.41244670000000005  0.5128884727735662  1.0000
  Zn  Zn18      1.0  0.24999983999999997  0.10196044000000003  0.5031830339864598  1.0000
