data_image0
_chemical_formula_structural       COTi18
_chemical_formula_sum              "C1 O1 Ti18"
_cell_length_a       4.59362376
_cell_length_b       9.61590898787717
_cell_length_c       101.22951865
_cell_angle_alpha    72.82778262262363
_cell_angle_beta     90.0
_cell_angle_gamma    118.53599844075929

_space_group_name_H-M_alt    "P 1"
_space_group_IT_number       1

loop_
  _space_group_symop_operation_xyz
  'x, y, z'

loop_
  _atom_site_type_symbol
  _atom_site_label
  _atom_site_symmetry_multiplicity
  _atom_site_fract_x
  _atom_site_fract_y
  _atom_site_fract_z
  _atom_site_occupancy
  C   C1        1.0  0.13054825499999995  0.6868666849999999  0.5436077430084792  1.0000
  O   O1        1.0  0.10484519500000015  0.6611545950000001  0.5556725103111259  1.0000
  Ti  Ti1       1.0  0.8951548049999999  0.451467935  0.5169265628895021  1.0000
  Ti  Ti2       1.0  0.876090515  0.932411915  0.5047148159334022  1.0000
  Ti  Ti3       1.0  0.540803115  0.5971173949999999  0.5011418279565966  1.0000
  Ti  Ti4       1.0  0.5112661350000001  0.06758808499999999  0.5146563977729539  1.0000
  Ti  Ti5       1.0  0.192375905  0.7486999649999999  0.5210014004804421  1.0000
  Ti  Ti6       1.0  0.20867321499999997  0.2649917849999999  0.5085271614311967  1.0000
  Ti  Ti7       1.0  0.868033085  0.42435012499999997  0.49107023099383396  1.0000
  Ti  Ti8       1.0  0.868033085  0.9243501249999999  0.4770474101448565  1.0000
  Ti  Ti9       1.0  0.534699755  0.5910167949999999  0.47237313447185003  1.0000
  Ti  Ti10      1.0  0.534699755  0.09101679499999998  0.4863959584058485  1.0000
  Ti  Ti11      1.0  0.20421502499999997  0.7605307950000001  0.49435658350348477  1.0000
  Ti  Ti12      1.0  0.20136642500000002  0.25768346499999994  0.481721682732842  1.0000
  Ti  Ti13      1.0  0.868033085  0.42435012499999997  0.46302458621085807  1.0000
  Ti  Ti14      1.0  0.868033085  0.9243501249999999  0.44900176536188063  1.0000
  Ti  Ti15      1.0  0.534699755  0.5910167949999999  0.44432748968887426  1.0000
  Ti  Ti16      1.0  0.534699755  0.09101679499999998  0.4583503136228726  1.0000
  Ti  Ti17      1.0  0.20136642500000002  0.757683465  0.46769886188386456  1.0000
  Ti  Ti18      1.0  0.20136642500000002  0.25768346499999994  0.4536760379498662  1.0000
