data_image0
_chemical_formula_structural       COK2
_chemical_formula_sum              "C1 O1 K2"
_cell_length_a       4.70893975
_cell_length_b       4.708939746470413
_cell_length_c       100.75866562
_cell_angle_alpha    90.0
_cell_angle_beta     90.0
_cell_angle_gamma    109.47122060665599

_space_group_name_H-M_alt    "P 1"
_space_group_IT_number       1

loop_
  _space_group_symop_operation_xyz
  'x, y, z'

loop_
  _atom_site_type_symbol
  _atom_site_label
  _atom_site_symmetry_multiplicity
  _atom_site_fract_x
  _atom_site_fract_y
  _atom_site_fract_z
  _atom_site_occupancy
  C   C1        1.0  0.250000505  0.75000019  0.5237548632855035  1.0000
  O   O1        1.0  0.25000017500000005  0.7499998800000001  0.5352945587196691  1.0000
  K   K1        1.0  0.749999885  0.74999959  0.5002926416248356  1.0000
  K   K2        1.0  0.250000115  0.24999981  0.4647054412803308  1.0000
