data_image0
_chemical_formula_structural       COK2
_chemical_formula_sum              "C1 O1 K2"
_cell_length_a       4.70893975
_cell_length_b       4.708939746470413
_cell_length_c       100.75866562
_cell_angle_alpha    90.0
_cell_angle_beta     90.0
_cell_angle_gamma    109.47122060665599

_space_group_name_H-M_alt    "P 1"
_space_group_IT_number       1

loop_
  _space_group_symop_operation_xyz
  'x, y, z'

loop_
  _atom_site_type_symbol
  _atom_site_label
  _atom_site_symmetry_multiplicity
  _atom_site_fract_x
  _atom_site_fract_y
  _atom_site_fract_z
  _atom_site_occupancy
  C   C1        1.0  0.7500007249999999  0.750000815  0.5298886470666447  1.0000
  O   O1        1.0  0.749999545  0.7499997749999999  0.5413486760133926  1.0000
  K   K1        1.0  0.7499988850000001  0.7499981750000001  0.4964204983592444  1.0000
  K   K2        1.0  0.249999275  0.249999185  0.45865132398660735  1.0000
