data_image0
_chemical_formula_structural       COK2
_chemical_formula_sum              "C1 O1 K2"
_cell_length_a       4.70893975
_cell_length_b       4.708939746470413
_cell_length_c       100.75866562
_cell_angle_alpha    90.0
_cell_angle_beta     90.0
_cell_angle_gamma    70.528779393344

_space_group_name_H-M_alt    "P 1"
_space_group_IT_number       1

loop_
  _space_group_symop_operation_xyz
  'x, y, z'

loop_
  _atom_site_type_symbol
  _atom_site_label
  _atom_site_symmetry_multiplicity
  _atom_site_fract_x
  _atom_site_fract_y
  _atom_site_fract_z
  _atom_site_occupancy
  C   C1        1.0  0.15869679000000017  0.889302065  0.5234383937583214  1.0000
  O   O1        1.0  0.19540746000000014  0.926012745  0.5347100554365664  1.0000
  K   K1        1.0  0.3433819700000001  0.073987255  0.4652899445634336  1.0000
  K   K2        1.0  0.84130321  0.571908495  0.5021476112348757  1.0000
