data_image0
_chemical_formula_structural       COK4
_chemical_formula_sum              "C1 O1 K4"
_cell_length_a       4.708939748778185
_cell_length_b       7.6896664
_cell_length_c       105.55171545
_cell_angle_alpha    90.0
_cell_angle_beta     92.53049305427939
_cell_angle_gamma    90.0

_space_group_name_H-M_alt    "P 1"
_space_group_IT_number       1

loop_
  _space_group_symop_operation_xyz
  'x, y, z'

loop_
  _atom_site_type_symbol
  _atom_site_label
  _atom_site_symmetry_multiplicity
  _atom_site_fract_x
  _atom_site_fract_y
  _atom_site_fract_z
  _atom_site_occupancy
  C   C1        1.0  0.23691865999999998  0.74999998  0.5397267476061253  1.0000
  O   O1        1.0  0.24848470999999994  0.7499999700000001  0.5507272126871079  1.0000
  K   K1        1.0  0.15624999999999997  0.24999999  0.44927278731289216  1.0000
  K   K2        1.0  0.21538916  0.75000001  0.5089767616193424  1.0000
  K   K3        1.0  0.60025764  0.25  0.4899287146769568  1.0000
  K   K4        1.0  0.84375  0.74999999  0.47032391098390014  1.0000
