data_image0
_chemical_formula_structural       COK4
_chemical_formula_sum              "C1 O1 K4"
_cell_length_a       5.43741526
_cell_length_b       5.43741526
_cell_length_c       102.62449156
_cell_angle_alpha    90.0
_cell_angle_beta     90.0
_cell_angle_gamma    90.0

_space_group_name_H-M_alt    "P 1"
_space_group_IT_number       1

loop_
  _space_group_symop_operation_xyz
  'x, y, z'

loop_
  _atom_site_type_symbol
  _atom_site_label
  _atom_site_symmetry_multiplicity
  _atom_site_fract_x
  _atom_site_fract_y
  _atom_site_fract_z
  _atom_site_occupancy
  C   C1        1.0  0.74999984  0.25000041500000003  0.5492706540940085  1.0000
  O   O1        1.0  0.75000422  0.249996095  0.5605358252444935  1.0000
  K   K1        1.0  0.24999578000000003  0.7500039049999999  0.49190355928834456  1.0000
  K   K2        1.0  0.7499933100000001  0.250006495  0.5191050779752577  1.0000
  K   K3        1.0  0.24999879000000003  0.7500011950000001  0.4394641747555066  1.0000
  K   K4        1.0  0.74999879  0.250001195  0.4659559749089055  1.0000
