data_image0
_chemical_formula_structural       COK6
_chemical_formula_sum              "C1 O1 K6"
_cell_length_a       5.43741526
_cell_length_b       12.158430144920535
_cell_length_c       100.75866562
_cell_angle_alpha    71.56505119198
_cell_angle_beta     90.0
_cell_angle_gamma    90.0

_space_group_name_H-M_alt    "P 1"
_space_group_IT_number       1

loop_
  _space_group_symop_operation_xyz
  'x, y, z'

loop_
  _atom_site_type_symbol
  _atom_site_label
  _atom_site_symmetry_multiplicity
  _atom_site_fract_x
  _atom_site_fract_y
  _atom_site_fract_z
  _atom_site_occupancy
  C   C1        1.0  0.7499984849999999  0.9797042300000001  0.5404063665013363  1.0000
  O   O1        1.0  0.749992225  0.9521074399999999  0.5525067739487388  1.0000
  K   K1        1.0  0.24999872499999995  0.03048734999999999  0.4729324507996779  1.0000
  K   K2        1.0  0.2500003049999999  0.36685861  0.4976875487073556  1.0000
  K   K3        1.0  0.24999872499999995  0.69715402  0.44749322605126085  1.0000
  K   K4        1.0  0.7500012749999999  0.020295769999999987  0.5082201012440271  1.0000
  K   K5        1.0  0.7499987249999999  0.36382067999999995  0.4602128384254694  1.0000
  K   K6        1.0  0.749998905  0.7031545299999999  0.48595054767939466  1.0000
