data_image0
_chemical_formula_structural       COAg12Al6
_chemical_formula_sum              "C1 O1 Ag12 Al6"
_cell_length_a       5.07150703
_cell_length_b       6.923840775074842
_cell_length_c       31.343268289999997
_cell_angle_alpha    87.3637342824524
_cell_angle_beta     90.0
_cell_angle_gamma    111.4836126608827

_space_group_name_H-M_alt    "P 1"
_space_group_IT_number       1

loop_
  _space_group_symop_operation_xyz
  'x, y, z'

loop_
  _atom_site_type_symbol
  _atom_site_label
  _atom_site_symmetry_multiplicity
  _atom_site_fract_x
  _atom_site_fract_y
  _atom_site_fract_z
  _atom_site_occupancy
  C   C1        1.0  0.5821022199999998  0.636938335  0.651875168844885  1.0000
  O   O1        1.0  0.5265810299999998  0.634713405  0.6880697724886514  1.0000
  Ag  Ag1       1.0  0.7115063699999998  0.7616695149999999  0.36331915357894906  1.0000
  Ag  Ag2       1.0  0.96150637  0.26166951499999996  0.46609703038083933  1.0000
  Ag  Ag3       1.0  0.25008352999999994  0.7887104950000001  0.5710348457576522  1.0000
  Ag  Ag4       1.0  0.30048643999999985  0.939629665  0.3267384299273878  1.0000
  Ag  Ag5       1.0  0.5504864399999998  0.43962966499999995  0.4295162943959337  1.0000
  Ag  Ag6       1.0  0.8422512999999998  0.9883304850000001  0.5428814345514276  1.0000
  Ag  Ag7       1.0  0.9495135599999999  0.5116695149999999  0.3119302275113482  1.0000
  Ag  Ag8       1.0  0.19951355999999987  0.011669514999999964  0.41470809197989417  1.0000
  Ag  Ag9       1.0  0.4679390199999998  0.547944425  0.514135319821563  1.0000
  Ag  Ag10      1.0  0.3790560299999999  0.22832675499999996  0.581276602806009  1.0000
  Ag  Ag11      1.0  0.7884936299999998  0.18962966499999995  0.37812736832833294  1.0000
  Ag  Ag12      1.0  0.03849362999999993  0.6896296650000001  0.4809052327968789  1.0000
  Al  Al1       1.0  0.69825681  0.6450404449999999  0.5908976596393246  1.0000
  Al  Al2       1.0  0.13994928999999987  0.600649585  0.3964177301541136  1.0000
  Al  Al3       1.0  0.39743659999999986  0.10374559499999995  0.49897660376251946  1.0000
  Al  Al4       1.0  0.9323792199999998  0.39030915499999996  0.5534063651832951  1.0000
  Al  Al5       1.0  0.3600507099999999  0.35064958500000004  0.3450287917531685  1.0000
  Al  Al6       1.0  0.6100507099999998  0.850649585  0.44780666855505863  1.0000
