data_image0
_chemical_formula_structural       COCs2
_chemical_formula_sum              "C1 O1 Cs2"
_cell_length_a       5.70028997
_cell_length_b       5.70028997
_cell_length_c       102.24570951999999
_cell_angle_alpha    90.0
_cell_angle_beta     90.0
_cell_angle_gamma    90.0

_space_group_name_H-M_alt    "P 1"
_space_group_IT_number       1

loop_
  _space_group_symop_operation_xyz
  'x, y, z'

loop_
  _atom_site_type_symbol
  _atom_site_label
  _atom_site_symmetry_multiplicity
  _atom_site_fract_x
  _atom_site_fract_y
  _atom_site_fract_z
  _atom_site_occupancy
  C   C1        1.0  0.75  0.25000000000000006  0.5240709184538782  1.0000
  O   O1        1.0  0.75000001  0.25000001000000005  0.5354903901906105  1.0000
  Cs  Cs1       1.0  0.24999999  0.25000000000000006  0.46450960980938966  1.0000
  Cs  Cs2       1.0  0.74999999  0.75  0.5024040492680116  1.0000
