data_image0
_chemical_formula_structural       COCs4
_chemical_formula_sum              "C1 O1 Cs4"
_cell_length_a       5.70028997
_cell_length_b       8.06142738
_cell_length_c       104.2017398
_cell_angle_alpha    90.0
_cell_angle_beta     90.0
_cell_angle_gamma    90.0

_space_group_name_H-M_alt    "P 1"
_space_group_IT_number       1

loop_
  _space_group_symop_operation_xyz
  'x, y, z'

loop_
  _atom_site_type_symbol
  _atom_site_label
  _atom_site_symmetry_multiplicity
  _atom_site_fract_x
  _atom_site_fract_y
  _atom_site_fract_z
  _atom_site_occupancy
  C   C1        1.0  0.750000015  0.749999995  0.545436639994038  1.0000
  O   O1        1.0  0.750000015  0.7499999750000002  0.5566395315046122  1.0000
  Cs  Cs1       1.0  0.249999995  0.7500000149999999  0.47071264970462645  1.0000
  Cs  Cs2       1.0  0.24999998499999998  0.7500000050000001  0.5237393463279579  1.0000
  Cs  Cs3       1.0  0.7499999949999999  0.250000015  0.44336046849538785  1.0000
  Cs  Cs4       1.0  0.7500000050000001  0.249999985  0.49790896942640245  1.0000
