data_image0
_chemical_formula_structural       COTe12
_chemical_formula_sum              "C1 O1 Te12"
_cell_length_a       7.89211919
_cell_length_b       7.5485501034620945
_cell_length_c       100.19420042
_cell_angle_alpha    105.73962558611608
_cell_angle_beta     90.0
_cell_angle_gamma    90.0

_space_group_name_H-M_alt    "P 1"
_space_group_IT_number       1

loop_
  _space_group_symop_operation_xyz
  'x, y, z'

loop_
  _atom_site_type_symbol
  _atom_site_label
  _atom_site_symmetry_multiplicity
  _atom_site_fract_x
  _atom_site_fract_y
  _atom_site_fract_z
  _atom_site_occupancy
  C   C1        1.0  0.8494629699999999  0.9469186500000001  0.5406954108312956  1.0000
  O   O1        1.0  0.8266027899999999  0.9551091100000001  0.5521635305867153  1.0000
  Te  Te1       1.0  0.5766818100000001  0.7938641000000001  0.4765874480357873  1.0000
  Te  Te2       1.0  0.5490891600000001  0.28552826  0.5096505647614407  1.0000
  Te  Te3       1.0  0.07668181  0.5438641000000001  0.45775265003012044  1.0000
  Te  Te4       1.0  0.05432699  0.044890889999999996  0.4917323735015984  1.0000
  Te  Te5       1.0  0.44220657  0.16224362  0.4792277974136844  1.0000
  Te  Te6       1.0  0.43900204000000004  0.65051751  0.5149982641674844  1.0000
  Te  Te7       1.0  0.94220657  0.91224362  0.46039299940801753  1.0000
  Te  Te8       1.0  0.94567301  0.40086823000000005  0.49696229062840164  1.0000
  Te  Te9       1.0  0.21115704999999999  0.5789102899999999  0.48550606542461844  1.0000
  Te  Te10      1.0  0.21115704999999999  0.07891029000000001  0.44783646941328475  1.0000
  Te  Te11      1.0  0.71115705  0.32891029000000005  0.46667126741895165  1.0000
  Te  Te12      1.0  0.69461394  0.83742039  0.5034265680908719  1.0000
