data_image0
_chemical_formula_structural       COSi24
_chemical_formula_sum              "C1 O1 Si24"
_cell_length_a       7.77573034
_cell_length_b       7.775730342236588
_cell_length_c       108.09314341000001
_cell_angle_alpha    90.0
_cell_angle_beta     90.0
_cell_angle_gamma    119.99999999048504

_space_group_name_H-M_alt    "P 1"
_space_group_IT_number       1

loop_
  _space_group_symop_operation_xyz
  'x, y, z'

loop_
  _atom_site_type_symbol
  _atom_site_label
  _atom_site_symmetry_multiplicity
  _atom_site_fract_x
  _atom_site_fract_y
  _atom_site_fract_z
  _atom_site_occupancy
  C   C1        1.0  0.583186985  0.5834923949999999  0.5361832824637457  1.0000
  O   O1        1.0  0.583171485  0.583499245  0.5469515968089651  1.0000
  Si  Si1       1.0  0.08332412499999999  0.08333333500000002  0.46039028448305813  1.0000
  Si  Si2       1.0  0.41779627500000005  0.25216752500000006  0.5195763073066842  1.0000
  Si  Si3       1.0  0.24999079499999993  0.416666665  0.489757816699358  1.0000
  Si  Si4       1.0  0.2591477849999999  0.421227705  0.5120361282300915  1.0000
  Si  Si5       1.0  0.08332412499999996  0.583333335  0.4824159318832312  1.0000
  Si  Si6       1.0  0.416657455  0.250000005  0.453048403191035  1.0000
  Si  Si7       1.0  0.08332412499999996  0.583333335  0.46039028448305813  1.0000
  Si  Si8       1.0  0.41786197500000005  0.748795215  0.5195777662855681  1.0000
  Si  Si9       1.0  0.24999079499999996  0.916666665  0.489757816699358  1.0000
  Si  Si10      1.0  0.250021645  0.9166352850000001  0.5127850671996654  1.0000
  Si  Si11      1.0  0.08332412499999999  0.08333333500000002  0.4824159318832312  1.0000
  Si  Si12      1.0  0.416657455  0.7500000050000001  0.453048403191035  1.0000
  Si  Si13      1.0  0.583324125  0.08333333500000002  0.46039028448305813  1.0000
  Si  Si14      1.0  0.9166758749999999  0.24997961500000002  0.5154575922972344  1.0000
  Si  Si15      1.0  0.7499907949999999  0.416666665  0.489757816699358  1.0000
  Si  Si16      1.0  0.7454149549999999  0.421239425  0.5120370127800911  1.0000
  Si  Si17      1.0  0.583324125  0.583333335  0.4824159318832312  1.0000
  Si  Si18      1.0  0.916657455  0.250000005  0.453048403191035  1.0000
  Si  Si19      1.0  0.583324125  0.583333335  0.46039028448305813  1.0000
  Si  Si20      1.0  0.9144862050000001  0.7488594950000002  0.5195761205291943  1.0000
  Si  Si21      1.0  0.749990795  0.916666665  0.489757816699358  1.0000
  Si  Si22      1.0  0.745428895  0.9075102450000001  0.5120360683203306  1.0000
  Si  Si23      1.0  0.583324125  0.08333333500000002  0.4824159318832312  1.0000
  Si  Si24      1.0  0.916657455  0.7500000050000001  0.453048403191035  1.0000
