data_image0
_chemical_formula_structural       COCs2
_chemical_formula_sum              "C1 O1 Cs2"
_cell_length_a       5.70028997
_cell_length_b       5.70028997
_cell_length_c       102.24570951999999
_cell_angle_alpha    90.0
_cell_angle_beta     90.0
_cell_angle_gamma    90.0

_space_group_name_H-M_alt    "P 1"
_space_group_IT_number       1

loop_
  _space_group_symop_operation_xyz
  'x, y, z'

loop_
  _atom_site_type_symbol
  _atom_site_label
  _atom_site_symmetry_multiplicity
  _atom_site_fract_x
  _atom_site_fract_y
  _atom_site_fract_z
  _atom_site_occupancy
  C   C1        1.0  0.250000015  0.250000005  0.5240817988808777  1.0000
  O   O1        1.0  0.250000005  0.25000002499999996  0.5354990850709691  1.0000
  Cs  Cs1       1.0  0.250000025  0.750000015  0.5023306804988188  1.0000
  Cs  Cs2       1.0  0.7499999949999999  0.24999998499999998  0.46450091492903095  1.0000
