data_image0
_chemical_formula_structural       COV48
_chemical_formula_sum              "C1 O1 V48"
_cell_length_a       8.47655332
_cell_length_b       8.476553318568179
_cell_length_c       101.14484561
_cell_angle_alpha    90.0
_cell_angle_beta     90.0
_cell_angle_gamma    120.0000000055877

_space_group_name_H-M_alt    "P 1"
_space_group_IT_number       1

loop_
  _space_group_symop_operation_xyz
  'x, y, z'

loop_
  _atom_site_type_symbol
  _atom_site_label
  _atom_site_symmetry_multiplicity
  _atom_site_fract_x
  _atom_site_fract_y
  _atom_site_fract_z
  _atom_site_occupancy
  C   C1        1.0  0.4162933  0.24719380499999996  0.5506358334794411  1.0000
  O   O1        1.0  0.41623029  0.24725498499999998  0.56218378835408  1.0000
  V   V1        1.0  0.08734236000000005  0.08263027499999999  0.5225391276184667  1.0000
  V   V2        1.0  0.24968391  0.41380334499999993  0.48913674779561006  1.0000
  V   V3        1.0  0.41635239000000007  0.24713530499999997  0.505332418632351  1.0000
  V   V4        1.0  0.08301724000000005  0.08047001499999999  0.49769017100043034  1.0000
  V   V5        1.0  0.25255023000000004  0.4109363449999999  0.5152397740363294  1.0000
  V   V6        1.0  0.41637257  0.24712185499999997  0.5301752291031008  1.0000
  V   V7        1.0  0.08301724000000005  0.08047001499999999  0.47202990138596934  1.0000
  V   V8        1.0  0.24968391  0.41380334499999993  0.43781621164592  1.0000
  V   V9        1.0  0.41635057  0.24713668499999994  0.4549230580555607  1.0000
  V   V10       1.0  0.08301724000000005  0.08047001499999999  0.4463696348507404  1.0000
  V   V11       1.0  0.24968391  0.41380334499999993  0.46347648126038105  1.0000
  V   V12       1.0  0.41635057  0.24713668499999994  0.4805833245907896  1.0000
  V   V13       1.0  0.08301989000000001  0.5804678849999999  0.5215799837677978  1.0000
  V   V14       1.0  0.24968390999999995  0.9138033449999998  0.48913674779561006  1.0000
  V   V15       1.0  0.4170573000000001  0.7474858249999999  0.5063082981095234  1.0000
  V   V16       1.0  0.08301724000000005  0.580470015  0.49769017100043034  1.0000
  V   V17       1.0  0.25254901999999996  0.9195299849999999  0.5152398848886852  1.0000
  V   V18       1.0  0.41508753000000004  0.746501655  0.5289672401889048  1.0000
  V   V19       1.0  0.08301724000000005  0.580470015  0.47202990138596934  1.0000
  V   V20       1.0  0.24968390999999995  0.9138033449999998  0.43781621164592  1.0000
  V   V21       1.0  0.41635057  0.7471366849999999  0.4549230580555607  1.0000
  V   V22       1.0  0.08301724000000005  0.580470015  0.4463696348507404  1.0000
  V   V23       1.0  0.24968390999999995  0.9138033449999998  0.46347648126038105  1.0000
  V   V24       1.0  0.41635057  0.7471366849999999  0.4805833245907896  1.0000
  V   V25       1.0  0.5808635400000001  0.08262382499999998  0.5225381545811206  1.0000
  V   V26       1.0  0.7496839100000001  0.41380334499999993  0.48913674779561006  1.0000
  V   V27       1.0  0.91600108  0.24642970499999994  0.5063082703964344  1.0000
  V   V28       1.0  0.58301724  0.08047001499999999  0.49769017100043034  1.0000
  V   V29       1.0  0.7439581100000002  0.410938815  0.5152398602548284  1.0000
  V   V30       1.0  0.9169812200000002  0.24839850499999996  0.5289672956150828  1.0000
  V   V31       1.0  0.58301724  0.08047001499999999  0.47202990138596934  1.0000
  V   V32       1.0  0.7496839100000001  0.41380334499999993  0.43781621164592  1.0000
  V   V33       1.0  0.9163505700000001  0.24713668499999994  0.4549230580555607  1.0000
  V   V34       1.0  0.58301724  0.08047001499999999  0.4463696348507404  1.0000
  V   V35       1.0  0.7496839100000001  0.41380334499999993  0.46347648126038105  1.0000
  V   V36       1.0  0.9163505700000001  0.24713668499999994  0.4805833245907896  1.0000
  V   V37       1.0  0.58085834  0.5761462350000001  0.522538995211486  1.0000
  V   V38       1.0  0.7496839099999999  0.9138033449999998  0.48913674779561006  1.0000
  V   V39       1.0  0.9159988800000001  0.747489945  0.5063085752404131  1.0000
  V   V40       1.0  0.58301724  0.580470015  0.49769017100043034  1.0000
  V   V41       1.0  0.7496877599999999  0.9138005549999998  0.5157369437731576  1.0000
  V   V42       1.0  0.9169827599999999  0.7465080249999998  0.5289675665875082  1.0000
  V   V43       1.0  0.58301724  0.580470015  0.47202990138596934  1.0000
  V   V44       1.0  0.7496839099999999  0.9138033449999998  0.43781621164592  1.0000
  V   V45       1.0  0.9163505700000002  0.7471366849999999  0.4549230580555607  1.0000
  V   V46       1.0  0.58301724  0.580470015  0.4463696348507404  1.0000
  V   V47       1.0  0.7496839099999999  0.9138033449999998  0.46347648126038105  1.0000
  V   V48       1.0  0.9163505700000002  0.7471366849999999  0.4805833245907896  1.0000
