data_image0
_chemical_formula_structural       COV24
_chemical_formula_sum              "C1 O1 V24"
_cell_length_a       5.99382833
_cell_length_b       5.99382833
_cell_length_c       99.96914165999999
_cell_angle_alpha    90.0
_cell_angle_beta     90.0
_cell_angle_gamma    90.0

_space_group_name_H-M_alt    "P 1"
_space_group_IT_number       1

loop_
  _space_group_symop_operation_xyz
  'x, y, z'

loop_
  _atom_site_type_symbol
  _atom_site_label
  _atom_site_symmetry_multiplicity
  _atom_site_fract_x
  _atom_site_fract_y
  _atom_site_fract_z
  _atom_site_occupancy
  C   C1        1.0  0.65526196  0.12448435499999996  0.5419676405120835  1.0000
  O   O1        1.0  0.47338866999999996  0.12448528499999999  0.548084710515667  1.0000
  V   V1        1.0  0.12558613  0.37588082500000003  0.5122388511115475  1.0000
  V   V2        1.0  0.4046528099999999  0.12449493499999997  0.5275572220996331  1.0000
  V   V3        1.0  0.11349598999999998  0.374490425  0.4818936819786154  1.0000
  V   V4        1.0  0.36618674000000007  0.12449151499999997  0.4975309151406269  1.0000
  V   V5        1.0  0.11349598999999998  0.374490425  0.4519152894843329  1.0000
  V   V6        1.0  0.36349599  0.12449042499999997  0.4669044857314742  1.0000
  V   V7        1.0  0.12558589999999997  0.873104745  0.5122388421180298  1.0000
  V   V8        1.0  0.36738045999999996  0.6244925649999999  0.5247569434545813  1.0000
  V   V9        1.0  0.11349598999999998  0.8744904250000001  0.4818936819786154  1.0000
  V   V10       1.0  0.36919962  0.6244914149999999  0.4972959864700063  1.0000
  V   V11       1.0  0.11349598999999998  0.8744904250000001  0.4519152894843329  1.0000
  V   V12       1.0  0.36349599  0.624490425  0.4669044857314742  1.0000
  V   V13       1.0  0.62398839  0.373469695  0.5123382894394511  1.0000
  V   V14       1.0  0.86303067  0.12449229499999996  0.5270809313953624  1.0000
  V   V15       1.0  0.61349599  0.374490425  0.4818936819786154  1.0000
  V   V16       1.0  0.86946183  0.12449184499999996  0.49740062904684684  1.0000
  V   V17       1.0  0.61349599  0.374490425  0.4519152894843329  1.0000
  V   V18       1.0  0.86349599  0.12449042499999997  0.4669044857314742  1.0000
  V   V19       1.0  0.62398805  0.8755156450000001  0.5123382804459334  1.0000
  V   V20       1.0  0.8865040100000001  0.6244950549999999  0.5250346363020951  1.0000
  V   V21       1.0  0.61349599  0.8744904250000001  0.4818936819786154  1.0000
  V   V22       1.0  0.8660637499999999  0.6244912349999999  0.4972616162430116  1.0000
  V   V23       1.0  0.61349599  0.8744904250000001  0.4519152894843329  1.0000
  V   V24       1.0  0.86349599  0.624490425  0.4669044857314742  1.0000
