data_image0
_chemical_formula_structural       COV32
_chemical_formula_sum              "C1 O1 V32"
_cell_length_a       5.190807600794477
_cell_length_b       8.47655332
_cell_length_c       104.26850461000001
_cell_angle_alpha    90.0
_cell_angle_beta     91.44662949342815
_cell_angle_gamma    90.0

_space_group_name_H-M_alt    "P 1"
_space_group_IT_number       1

loop_
  _space_group_symop_operation_xyz
  'x, y, z'

loop_
  _atom_site_type_symbol
  _atom_site_label
  _atom_site_symmetry_multiplicity
  _atom_site_fract_x
  _atom_site_fract_y
  _atom_site_fract_z
  _atom_site_occupancy
  C   C1        1.0  0.5552814050000001  0.875387335  0.5438879404422898  1.0000
  O   O1        1.0  0.479347325  0.875386865  0.5545470245914775  1.0000
  V   V1        1.0  0.24921546500000002  0.125387815  0.49240387950916414  1.0000
  V   V2        1.0  0.24970620500000001  0.37536650499999996  0.5260436794674891  1.0000
  V   V3        1.0  0.427722145  0.125142215  0.5159573611466065  1.0000
  V   V4        1.0  0.08790485500000002  0.375385305  0.5045910184235914  1.0000
  V   V5        1.0  0.39207260499999996  0.125387815  0.4454529754085225  1.0000
  V   V6        1.0  0.40992974499999996  0.37538781499999996  0.48066615512728533  1.0000
  V   V7        1.0  0.07064403500000001  0.125387815  0.46892842745884333  1.0000
  V   V8        1.0  0.23135831500000004  0.37538781499999996  0.4571907030769645  1.0000
  V   V9        1.0  0.24921546500000002  0.625387815  0.49240387950916414  1.0000
  V   V10       1.0  0.25978548500000004  0.875393165  0.5269717753792429  1.0000
  V   V11       1.0  0.427717085  0.6256311149999999  0.5159581663546279  1.0000
  V   V12       1.0  0.08927487500000002  0.8753874650000001  0.5046511099479337  1.0000
  V   V13       1.0  0.39207260499999996  0.625387815  0.4454529754085225  1.0000
  V   V14       1.0  0.40992974499999996  0.875387815  0.48066615512728533  1.0000
  V   V15       1.0  0.07064403500000001  0.625387815  0.46892842745884333  1.0000
  V   V16       1.0  0.23135831500000004  0.875387815  0.4571907030769645  1.0000
  V   V17       1.0  0.749215465  0.125387815  0.49240387950916403  1.0000
  V   V18       1.0  0.749122995  0.37540607499999995  0.5254789952984684  1.0000
  V   V19       1.0  0.929355965  0.12460683500000001  0.515491030672481  1.0000
  V   V20       1.0  0.587052775  0.375386225  0.5043710421652635  1.0000
  V   V21       1.0  0.8920726049999999  0.125387815  0.4454529754085225  1.0000
  V   V22       1.0  0.9099297449999999  0.37538781499999996  0.4806661551272854  1.0000
  V   V23       1.0  0.570644035  0.125387815  0.4689284274588433  1.0000
  V   V24       1.0  0.7313583149999999  0.37538781499999996  0.4571907030769646  1.0000
  V   V25       1.0  0.749215465  0.625387815  0.49240387950916403  1.0000
  V   V26       1.0  0.7228211649999999  0.875387685  0.5270349102612497  1.0000
  V   V27       1.0  0.929344665  0.626173645  0.5154900677094187  1.0000
  V   V28       1.0  0.585137645  0.875393095  0.5044066487926274  1.0000
  V   V29       1.0  0.8920726049999999  0.625387815  0.4454529754085225  1.0000
  V   V30       1.0  0.9099297449999999  0.875387815  0.4806661551272854  1.0000
  V   V31       1.0  0.570644035  0.625387815  0.4689284274588433  1.0000
  V   V32       1.0  0.7313583149999999  0.875387815  0.4571907030769646  1.0000
