data_image0
_chemical_formula_structural       COV48
_chemical_formula_sum              "C1 O1 V48"
_cell_length_a       8.47655332
_cell_length_b       8.476553318568179
_cell_length_c       101.14484561
_cell_angle_alpha    90.0
_cell_angle_beta     90.0
_cell_angle_gamma    59.99999999441232

_space_group_name_H-M_alt    "P 1"
_space_group_IT_number       1

loop_
  _space_group_symop_operation_xyz
  'x, y, z'

loop_
  _atom_site_type_symbol
  _atom_site_label
  _atom_site_symmetry_multiplicity
  _atom_site_fract_x
  _atom_site_fract_y
  _atom_site_fract_z
  _atom_site_occupancy
  C   C1        1.0  0.08249090500000003  0.08249070499999996  0.5505722611929679  1.0000
  O   O1        1.0  0.08249263500000002  0.08249249499999996  0.5621219250414264  1.0000
  V   V1        1.0  0.4158284950000001  0.41582899499999987  0.44643149816339406  1.0000
  V   V2        1.0  0.08249516500000002  0.08249566499999995  0.4806451879034433  1.0000
  V   V3        1.0  0.24916183500000003  0.2491623349999999  0.4635383445730347  1.0000
  V   V4        1.0  0.4158284950000001  0.41582899499999987  0.472091764698623  1.0000
  V   V5        1.0  0.08249516500000002  0.08249566499999995  0.4549849213682144  1.0000
  V   V6        1.0  0.24916183500000003  0.2491623349999999  0.43787807495857367  1.0000
  V   V7        1.0  0.4158284950000001  0.41582899499999987  0.497752034313084  1.0000
  V   V8        1.0  0.08249736500000002  0.08249583499999996  0.5301309666811731  1.0000
  V   V9        1.0  0.246304995  0.24630487499999995  0.5153258462718114  1.0000
  V   V10       1.0  0.415827705  0.41582922499999986  0.5216871949316971  1.0000
  V   V11       1.0  0.082494835  0.08249561499999995  0.5053429203534533  1.0000
  V   V12       1.0  0.24916183500000003  0.2491623349999999  0.48919861110826374  1.0000
  V   V13       1.0  0.4158284950000001  0.9158289949999998  0.44643149816339406  1.0000
  V   V14       1.0  0.08249516500000001  0.5824956649999999  0.4806451879034433  1.0000
  V   V15       1.0  0.24916183500000008  0.7491623349999998  0.4635383445730347  1.0000
  V   V16       1.0  0.4158284950000001  0.9158289949999998  0.472091764698623  1.0000
  V   V17       1.0  0.08249516500000001  0.5824956649999999  0.4549849213682144  1.0000
  V   V18       1.0  0.24916183500000008  0.7491623349999998  0.43787807495857367  1.0000
  V   V19       1.0  0.4158284950000001  0.9158289949999998  0.497752034313084  1.0000
  V   V20       1.0  0.08415420500000004  0.5816640049999998  0.5290179967113472  1.0000
  V   V21       1.0  0.24630234500000014  0.7548791049999999  0.5153259448072389  1.0000
  V   V22       1.0  0.411403425  0.918042595  0.52257546409695  1.0000
  V   V23       1.0  0.08195721499999999  0.5827651749999999  0.5063749342319436  1.0000
  V   V24       1.0  0.24916183500000008  0.7491623349999998  0.48919861110826374  1.0000
  V   V25       1.0  0.9158284950000003  0.41582899499999987  0.44643149816339406  1.0000
  V   V26       1.0  0.582495165  0.08249566499999995  0.4806451879034433  1.0000
  V   V27       1.0  0.749161835  0.2491623349999999  0.4635383445730347  1.0000
  V   V28       1.0  0.9158284950000003  0.41582899499999987  0.472091764698623  1.0000
  V   V29       1.0  0.582495165  0.08249566499999995  0.4549849213682144  1.0000
  V   V30       1.0  0.749161835  0.2491623349999999  0.43787807495857367  1.0000
  V   V31       1.0  0.9158284950000003  0.41582899499999987  0.497752034313084  1.0000
  V   V32       1.0  0.5816619850000001  0.08415533499999996  0.5290179443644013  1.0000
  V   V33       1.0  0.7548783450000001  0.24630343499999996  0.5153258955395251  1.0000
  V   V34       1.0  0.9180427849999999  0.4114033849999999  0.5225753594030583  1.0000
  V   V35       1.0  0.582764565  0.08195740499999996  0.5063747802703382  1.0000
  V   V36       1.0  0.749161835  0.2491623349999999  0.48919861110826374  1.0000
  V   V37       1.0  0.9158284950000001  0.9158289949999998  0.44643149816339406  1.0000
  V   V38       1.0  0.582495165  0.5824956649999999  0.4806451879034433  1.0000
  V   V39       1.0  0.749161835  0.7491623349999998  0.4635383445730347  1.0000
  V   V40       1.0  0.9158284950000001  0.9158289949999998  0.472091764698623  1.0000
  V   V41       1.0  0.582495165  0.5824956649999999  0.4549849213682144  1.0000
  V   V42       1.0  0.749161835  0.7491623349999998  0.43787807495857367  1.0000
  V   V43       1.0  0.9158284950000001  0.9158289949999998  0.497752034313084  1.0000
  V   V44       1.0  0.581667565  0.581667875  0.5290186279539292  1.0000
  V   V45       1.0  0.7491644250000001  0.749163925  0.5157839805832142  1.0000
  V   V46       1.0  0.9180415150000001  0.9180414349999998  0.5225757781786249  1.0000
  V   V47       1.0  0.5827646550000002  0.582765365  0.506375032767371  1.0000
  V   V48       1.0  0.749161835  0.7491623349999998  0.48919861110826374  1.0000
