data_image0
_chemical_formula_structural       COY12
_chemical_formula_sum              "C1 O1 Y12"
_cell_length_a       5.76563722
_cell_length_b       9.756987944484559
_cell_length_c       99.50235846
_cell_angle_alpha    79.10660537058675
_cell_angle_beta     90.0
_cell_angle_gamma    90.0

_space_group_name_H-M_alt    "P 1"
_space_group_IT_number       1

loop_
  _space_group_symop_operation_xyz
  'x, y, z'

loop_
  _atom_site_type_symbol
  _atom_site_label
  _atom_site_symmetry_multiplicity
  _atom_site_fract_x
  _atom_site_fract_y
  _atom_site_fract_z
  _atom_site_occupancy
  C   C1        1.0  0.19695787  0.84336776  0.5321823459712338  1.0000
  O   O1        1.0  0.13574199  0.81511136  0.5436173106335481  1.0000
  Y   Y1        1.0  0.8616720899999999  0.77777778  0.45638268936645165  1.0000
  Y   Y2        1.0  0.8616720899999999  0.44444443999999994  0.4810909456467669  1.0000
  Y   Y3        1.0  0.8616720899999999  0.11111110999999997  0.4687368189891048  1.0000
  Y   Y4        1.0  0.36167209  0.55555556  0.46050073257400276  1.0000
  Y   Y5        1.0  0.36167209  0.22222221999999994  0.4852089888543179  1.0000
  Y   Y6        1.0  0.36167209  0.88888889  0.4728548592316649  1.0000
  Y   Y7        1.0  0.86285483  0.78400869  0.4908124569089695  1.0000
  Y   Y8        1.0  0.86425801  0.4669766  0.5159474079906993  1.0000
  Y   Y9        1.0  0.86102916  0.12318121999999998  0.5046207900248384  1.0000
  Y   Y10       1.0  0.36089003000000003  0.55479323  0.495692096566936  1.0000
  Y   Y11       1.0  0.35829146  0.23122091999999997  0.5201509081651698  1.0000
  Y   Y12       1.0  0.35196883  0.8856807899999999  0.5088831749180317  1.0000
