data_image0
_chemical_formula_structural       COV48
_chemical_formula_sum              "C1 O1 V48"
_cell_length_a       8.47655332
_cell_length_b       8.476553318568179
_cell_length_c       101.14484561
_cell_angle_alpha    90.0
_cell_angle_beta     90.0
_cell_angle_gamma    59.99999999441232

_space_group_name_H-M_alt    "P 1"
_space_group_IT_number       1

loop_
  _space_group_symop_operation_xyz
  'x, y, z'

loop_
  _atom_site_type_symbol
  _atom_site_label
  _atom_site_symmetry_multiplicity
  _atom_site_fract_x
  _atom_site_fract_y
  _atom_site_fract_z
  _atom_site_occupancy
  C   C1        1.0  0.3534759749999999  0.847429655  0.5450365916869041  1.0000
  O   O1        1.0  0.3153890949999999  0.809332615  0.5558263380020424  1.0000
  V   V1        1.0  0.42313044499999986  0.41708179499999987  0.4527270852027781  1.0000
  V   V2        1.0  0.08979711499999989  0.08374846499999995  0.48694077494282734  1.0000
  V   V3        1.0  0.2564637849999999  0.2504151349999999  0.46983393161241876  1.0000
  V   V4        1.0  0.42313044499999986  0.41708179499999987  0.47838735173800706  1.0000
  V   V5        1.0  0.08979711499999989  0.08374846499999995  0.46128050840759843  1.0000
  V   V6        1.0  0.2564637849999999  0.2504151349999999  0.4441736619979577  1.0000
  V   V7        1.0  0.42313044499999986  0.41708179499999987  0.5040476213524681  1.0000
  V   V8        1.0  0.08818064499999986  0.08159083499999996  0.536121143163217  1.0000
  V   V9        1.0  0.2560853249999998  0.2530013749999999  0.5216858416091859  1.0000
  V   V10       1.0  0.4212333349999999  0.41682626499999986  0.5282602977647602  1.0000
  V   V11       1.0  0.09189733499999989  0.08272735499999996  0.512882788136651  1.0000
  V   V12       1.0  0.2564637849999999  0.2504151349999999  0.4954941981476478  1.0000
  V   V13       1.0  0.42313044499999986  0.9170817949999999  0.4527270852027781  1.0000
  V   V14       1.0  0.08979711499999989  0.5837484649999999  0.48694077494282734  1.0000
  V   V15       1.0  0.25646378499999983  0.7504151349999999  0.46983393161241876  1.0000
  V   V16       1.0  0.42313044499999986  0.9170817949999999  0.47838735173800706  1.0000
  V   V17       1.0  0.08979711499999989  0.5837484649999999  0.46128050840759843  1.0000
  V   V18       1.0  0.25646378499999983  0.7504151349999999  0.4441736619979577  1.0000
  V   V19       1.0  0.42313044499999986  0.9170817949999999  0.5040476213524681  1.0000
  V   V20       1.0  0.07686955499999992  0.5708238449999998  0.5354921884506565  1.0000
  V   V21       1.0  0.25577864499999997  0.7497306449999999  0.5216061911122638  1.0000
  V   V22       1.0  0.42446069499999994  0.918409165  0.5290596294690552  1.0000
  V   V23       1.0  0.08834669499999992  0.5822967849999998  0.5124437235096894  1.0000
  V   V24       1.0  0.25646378499999983  0.7504151349999999  0.4954941981476478  1.0000
  V   V25       1.0  0.9231304450000001  0.41708179499999987  0.4527270852027781  1.0000
  V   V26       1.0  0.5897971149999999  0.08374846499999995  0.48694077494282734  1.0000
  V   V27       1.0  0.7564637849999999  0.2504151349999999  0.46983393161241876  1.0000
  V   V28       1.0  0.9231304450000001  0.41708179499999987  0.47838735173800706  1.0000
  V   V29       1.0  0.5897971149999999  0.08374846499999995  0.46128050840759843  1.0000
  V   V30       1.0  0.7564637849999999  0.2504151349999999  0.4441736619979577  1.0000
  V   V31       1.0  0.9231304450000001  0.41708179499999987  0.5040476213524681  1.0000
  V   V32       1.0  0.5991051749999997  0.09306214499999996  0.5353078779336362  1.0000
  V   V33       1.0  0.7568255349999999  0.25077784499999994  0.5214585511704105  1.0000
  V   V34       1.0  0.922575925  0.4165283949999999  0.5283041090791843  1.0000
  V   V35       1.0  0.5902448749999999  0.08419772499999996  0.5125613994439057  1.0000
  V   V36       1.0  0.7564637849999999  0.2504151349999999  0.4954941981476478  1.0000
  V   V37       1.0  0.9231304450000001  0.9170817949999999  0.4527270852027781  1.0000
  V   V38       1.0  0.5897971149999999  0.5837484649999999  0.48694077494282734  1.0000
  V   V39       1.0  0.7564637849999999  0.7504151349999999  0.46983393161241876  1.0000
  V   V40       1.0  0.9231304450000001  0.9170817949999999  0.47838735173800706  1.0000
  V   V41       1.0  0.5897971149999999  0.5837484649999999  0.46128050840759843  1.0000
  V   V42       1.0  0.7564637849999999  0.7504151349999999  0.4441736619979577  1.0000
  V   V43       1.0  0.9231304450000001  0.9170817949999999  0.5040476213524681  1.0000
  V   V44       1.0  0.587641745  0.5821319549999999  0.5361210600239501  1.0000
  V   V45       1.0  0.7590473749999997  0.7500383349999998  0.5216858508468822  1.0000
  V   V46       1.0  0.9228740349999999  0.915184565  0.5282604147755804  1.0000
  V   V47       1.0  0.588776075  0.585848345  0.5128827419481694  1.0000
  V   V48       1.0  0.7564637849999999  0.7504151349999999  0.4954941981476478  1.0000
