data_image0
_chemical_formula_structural       COV48
_chemical_formula_sum              "C1 O1 V48"
_cell_length_a       8.47655332
_cell_length_b       8.476553318568179
_cell_length_c       101.14484561
_cell_angle_alpha    90.0
_cell_angle_beta     90.0
_cell_angle_gamma    59.99999999441232

_space_group_name_H-M_alt    "P 1"
_space_group_IT_number       1

loop_
  _space_group_symop_operation_xyz
  'x, y, z'

loop_
  _atom_site_type_symbol
  _atom_site_label
  _atom_site_symmetry_multiplicity
  _atom_site_fract_x
  _atom_site_fract_y
  _atom_site_fract_z
  _atom_site_occupancy
  C   C1        1.0  0.7163517699999999  0.21298535  0.5580709134544082  1.0000
  O   O1        1.0  0.7698837199999999  0.27272635  0.5659449595209093  1.0000
  V   V1        1.0  0.41918421  0.41949534999999993  0.44260846368391105  1.0000
  V   V2        1.0  0.08585087999999999  0.08616201999999998  0.47682215342396034  1.0000
  V   V3        1.0  0.25251755  0.25282868999999997  0.4597153100935517  1.0000
  V   V4        1.0  0.41918421  0.41949534999999993  0.46826873021913995  1.0000
  V   V5        1.0  0.08585087999999999  0.08616201999999998  0.4511618868887313  1.0000
  V   V6        1.0  0.25251755  0.25282868999999997  0.43405504047909066  1.0000
  V   V7        1.0  0.41918421  0.41949534999999993  0.493928999833601  1.0000
  V   V8        1.0  0.09418991  0.07885827999999998  0.5249198266846041  1.0000
  V   V9        1.0  0.25369623  0.25308812999999997  0.5113585620850254  1.0000
  V   V10       1.0  0.41920478  0.41978701999999996  0.5182728946429179  1.0000
  V   V11       1.0  0.08727725000000001  0.08505442999999999  0.5023117319650121  1.0000
  V   V12       1.0  0.25251755  0.25282868999999997  0.48537557662878067  1.0000
  V   V13       1.0  0.41918421000000006  0.9194953499999998  0.44260846368391105  1.0000
  V   V14       1.0  0.08585088000000005  0.5861620199999998  0.47682215342396034  1.0000
  V   V15       1.0  0.25251755000000004  0.7528286899999999  0.4597153100935517  1.0000
  V   V16       1.0  0.41918421000000006  0.9194953499999998  0.46826873021913995  1.0000
  V   V17       1.0  0.08585088000000005  0.5861620199999998  0.4511618868887313  1.0000
  V   V18       1.0  0.25251755000000004  0.7528286899999999  0.43405504047909066  1.0000
  V   V19       1.0  0.41918421000000006  0.9194953499999998  0.493928999833601  1.0000
  V   V20       1.0  0.08044576999999999  0.5798214999999999  0.5249074327753718  1.0000
  V   V21       1.0  0.25164281000000005  0.75196904  0.5114463325170145  1.0000
  V   V22       1.0  0.4208459  0.9211417199999999  0.5180857235192697  1.0000
  V   V23       1.0  0.08504246000000004  0.5851737599999999  0.5022374085396358  1.0000
  V   V24       1.0  0.25251755000000004  0.7528286899999999  0.48537557662878067  1.0000
  V   V25       1.0  0.9191842100000002  0.41949534999999993  0.44260846368391105  1.0000
  V   V26       1.0  0.58585088  0.08616201999999998  0.47682215342396034  1.0000
  V   V27       1.0  0.7525175500000001  0.25282868999999997  0.4597153100935517  1.0000
  V   V28       1.0  0.9191842100000002  0.41949534999999993  0.46826873021913995  1.0000
  V   V29       1.0  0.58585088  0.08616201999999998  0.4511618868887313  1.0000
  V   V30       1.0  0.7525175500000001  0.25282868999999997  0.43405504047909066  1.0000
  V   V31       1.0  0.9191842100000002  0.41949534999999993  0.493928999833601  1.0000
  V   V32       1.0  0.5947649399999999  0.09470648999999999  0.5252626191197279  1.0000
  V   V33       1.0  0.7535705100000001  0.25394281999999996  0.5114095541687238  1.0000
  V   V34       1.0  0.9194141999999997  0.41978026999999996  0.5182143676782526  1.0000
  V   V35       1.0  0.5875063899999999  0.08775687999999998  0.5023022756432103  1.0000
  V   V36       1.0  0.7525175500000001  0.25282868999999997  0.48537557662878067  1.0000
  V   V37       1.0  0.9191842100000001  0.9194953499999998  0.44260846368391105  1.0000
  V   V38       1.0  0.58585088  0.5861620199999998  0.47682215342396034  1.0000
  V   V39       1.0  0.7525175500000001  0.7528286899999999  0.4597153100935517  1.0000
  V   V40       1.0  0.9191842100000001  0.9194953499999998  0.46826873021913995  1.0000
  V   V41       1.0  0.58585088  0.5861620199999998  0.4511618868887313  1.0000
  V   V42       1.0  0.7525175500000001  0.7528286899999999  0.43405504047909066  1.0000
  V   V43       1.0  0.9191842100000001  0.9194953499999998  0.493928999833601  1.0000
  V   V44       1.0  0.57821777  0.5952321399999999  0.5249315092912195  1.0000
  V   V45       1.0  0.75290416  0.7539366  0.5113632733101497  1.0000
  V   V46       1.0  0.9195542299999999  0.9193869699999999  0.5182724604711907  1.0000
  V   V47       1.0  0.5846971799999999  0.5877131999999999  0.5023167911433646  1.0000
  V   V48       1.0  0.7525175500000001  0.7528286899999999  0.48537557662878067  1.0000
