data_image0
_chemical_formula_structural       COV48
_chemical_formula_sum              "C1 O1 V48"
_cell_length_a       8.47655332
_cell_length_b       8.476553318568179
_cell_length_c       101.14484561
_cell_angle_alpha    90.0
_cell_angle_beta     90.0
_cell_angle_gamma    59.99999999441232

_space_group_name_H-M_alt    "P 1"
_space_group_IT_number       1

loop_
  _space_group_symop_operation_xyz
  'x, y, z'

loop_
  _atom_site_type_symbol
  _atom_site_label
  _atom_site_symmetry_multiplicity
  _atom_site_fract_x
  _atom_site_fract_y
  _atom_site_fract_z
  _atom_site_occupancy
  C   C1        1.0  0.24988228500000004  0.7501930899999999  0.5421355100926968  1.0000
  O   O1        1.0  0.25001739500000003  0.75038097  0.5544603798618888  1.0000
  V   V1        1.0  0.416397235  0.41666734999999994  0.45409304334293166  1.0000
  V   V2        1.0  0.083063905  0.08333402000000001  0.4883067330829809  1.0000
  V   V3        1.0  0.249730575  0.25000068999999997  0.4711998897525723  1.0000
  V   V4        1.0  0.416397235  0.41666734999999994  0.4797533098781606  1.0000
  V   V5        1.0  0.083063905  0.08333402000000001  0.462646466547752  1.0000
  V   V6        1.0  0.249730575  0.25000068999999997  0.44553962013811127  1.0000
  V   V7        1.0  0.416397235  0.41666734999999994  0.5054135794926217  1.0000
  V   V8        1.0  0.080567375  0.08830310000000001  0.5370374687518165  1.0000
  V   V9        1.0  0.25192692499999997  0.24888225  0.5231225266316143  1.0000
  V   V10       1.0  0.414822655  0.41980523  0.529856517802673  1.0000
  V   V11       1.0  0.08253817499999998  0.08437183000000001  0.5139867929221963  1.0000
  V   V12       1.0  0.249730575  0.25000068999999997  0.49686015628780134  1.0000
  V   V13       1.0  0.416397235  0.9166673499999999  0.45409304334293166  1.0000
  V   V14       1.0  0.083063905  0.58333402  0.4883067330829809  1.0000
  V   V15       1.0  0.24973057499999995  0.7500006899999999  0.4711998897525723  1.0000
  V   V16       1.0  0.416397235  0.9166673499999999  0.4797533098781606  1.0000
  V   V17       1.0  0.083063905  0.58333402  0.462646466547752  1.0000
  V   V18       1.0  0.24973057499999995  0.7500006899999999  0.44553962013811127  1.0000
  V   V19       1.0  0.416397235  0.9166673499999999  0.5054135794926217  1.0000
  V   V20       1.0  0.08046675500000003  0.5807413199999999  0.5370275628621269  1.0000
  V   V21       1.0  0.24971895500000008  0.74997598  0.5228677632839767  1.0000
  V   V22       1.0  0.41482631500000006  0.9150875399999999  0.5298587071367012  1.0000
  V   V23       1.0  0.08251389500000005  0.5827961999999999  0.5139861031742042  1.0000
  V   V24       1.0  0.24973057499999995  0.7500006899999999  0.49686015628780134  1.0000
  V   V25       1.0  0.9163972350000001  0.41666734999999994  0.45409304334293166  1.0000
  V   V26       1.0  0.583063905  0.08333402000000001  0.4883067330829809  1.0000
  V   V27       1.0  0.7497305749999998  0.25000068999999997  0.4711998897525723  1.0000
  V   V28       1.0  0.9163972350000001  0.41666734999999994  0.4797533098781606  1.0000
  V   V29       1.0  0.583063905  0.08333402000000001  0.462646466547752  1.0000
  V   V30       1.0  0.7497305749999998  0.25000068999999997  0.44553962013811127  1.0000
  V   V31       1.0  0.9163972350000001  0.41666734999999994  0.5054135794926217  1.0000
  V   V32       1.0  0.583060035  0.08339524000000001  0.5367196242552268  1.0000
  V   V33       1.0  0.748646165  0.24890033  0.5231235951251556  1.0000
  V   V34       1.0  0.9163884750000001  0.41664302  0.5291884414461878  1.0000
  V   V35       1.0  0.5830651450000001  0.08333265000000001  0.514048198968882  1.0000
  V   V36       1.0  0.7497305749999998  0.25000068999999997  0.49686015628780134  1.0000
  V   V37       1.0  0.9163972350000001  0.9166673499999999  0.45409304334293166  1.0000
  V   V38       1.0  0.583063905  0.58333402  0.4883067330829809  1.0000
  V   V39       1.0  0.7497305749999998  0.7500006899999999  0.4711998897525723  1.0000
  V   V40       1.0  0.9163972350000001  0.9166673499999999  0.4797533098781606  1.0000
  V   V41       1.0  0.583063905  0.58333402  0.462646466547752  1.0000
  V   V42       1.0  0.7497305749999998  0.7500006899999999  0.44553962013811127  1.0000
  V   V43       1.0  0.9163972350000001  0.9166673499999999  0.5054135794926217  1.0000
  V   V44       1.0  0.5880924449999999  0.58079563  0.537035621212552  1.0000
  V   V45       1.0  0.7486152250000001  0.7522033499999999  0.5231231547949642  1.0000
  V   V46       1.0  0.919533245  0.91509087  0.5298568719143653  1.0000
  V   V47       1.0  0.584117355  0.58280321  0.513986814476821  1.0000
  V   V48       1.0  0.7497305749999998  0.7500006899999999  0.49686015628780134  1.0000
