data_image0
_chemical_formula_structural       COV16
_chemical_formula_sum              "C1 O1 V16"
_cell_length_a       5.1908076
_cell_length_b       5.190807601515198
_cell_length_c       99.66793661
_cell_angle_alpha    90.0
_cell_angle_beta     90.0
_cell_angle_gamma    70.52877937142237

_space_group_name_H-M_alt    "P 1"
_space_group_IT_number       1

loop_
  _space_group_symop_operation_xyz
  'x, y, z'

loop_
  _atom_site_type_symbol
  _atom_site_label
  _atom_site_symmetry_multiplicity
  _atom_site_fract_x
  _atom_site_fract_y
  _atom_site_fract_z
  _atom_site_occupancy
  C   C1        1.0  0.623922815  0.6237271950000001  0.5327240186271978  1.0000
  O   O1        1.0  0.623722935  0.6239379850000001  0.5448661565767399  1.0000
  V   V1        1.0  0.12383699500000002  0.12384133500000001  0.4551338434232601  1.0000
  V   V2        1.0  0.37383699500000006  0.373841335  0.47639582956425064  1.0000
  V   V3        1.0  0.12384572500000005  0.12383601500000001  0.4977393320355375  1.0000
  V   V4        1.0  0.378970755  0.378939535  0.5176252058353448  1.0000
  V   V5        1.0  0.12383699500000002  0.623841335  0.4551338434232601  1.0000
  V   V6        1.0  0.37383699499999995  0.873841335  0.47639582956425064  1.0000
  V   V7        1.0  0.12382944499999997  0.6238452750000001  0.49779087917052894  1.0000
  V   V8        1.0  0.3715189050000001  0.8761639849999999  0.5180732911459951  1.0000
  V   V9        1.0  0.623836995  0.12384133500000001  0.4551338434232601  1.0000
  V   V10       1.0  0.8738369949999999  0.373841335  0.47639582956425064  1.0000
  V   V11       1.0  0.6238315149999999  0.12385645500000002  0.49779079880021976  1.0000
  V   V12       1.0  0.8761705549999999  0.371512815  0.518075386727391  1.0000
  V   V13       1.0  0.6238369949999999  0.623841335  0.4551338434232601  1.0000
  V   V14       1.0  0.873836995  0.873841335  0.47639582956425064  1.0000
  V   V15       1.0  0.6238257050000001  0.623856075  0.49766527228393  1.0000
  V   V16       1.0  0.8687435949999999  0.868719075  0.5176249528177046  1.0000
