data_image0
_chemical_formula_structural       COV48
_chemical_formula_sum              "C1 O1 V48"
_cell_length_a       8.47655332
_cell_length_b       8.476553318568179
_cell_length_c       101.14484561
_cell_angle_alpha    90.0
_cell_angle_beta     90.0
_cell_angle_gamma    120.0000000055877

_space_group_name_H-M_alt    "P 1"
_space_group_IT_number       1

loop_
  _space_group_symop_operation_xyz
  'x, y, z'

loop_
  _atom_site_type_symbol
  _atom_site_label
  _atom_site_symmetry_multiplicity
  _atom_site_fract_x
  _atom_site_fract_y
  _atom_site_fract_z
  _atom_site_occupancy
  C   C1        1.0  0.43244062999999994  0.512677795  0.5450889894400596  1.0000
  O   O1        1.0  0.35491446  0.477157645  0.5558317497524711  1.0000
  V   V1        1.0  0.07263101999999995  0.08262329500000001  0.5282615063633624  1.0000
  V   V2        1.0  0.24258871999999992  0.41672349499999994  0.4954887863972189  1.0000
  V   V3        1.0  0.40986114999999995  0.252175115  0.5128900258717194  1.0000
  V   V4        1.0  0.07592204999999995  0.08339016500000002  0.5040422096020393  1.0000
  V   V5        1.0  0.24075438999999996  0.41573809500000003  0.5216156612906101  1.0000
  V   V6        1.0  0.4037094899999999  0.24771949499999998  0.5361258867202784  1.0000
  V   V7        1.0  0.07592204999999995  0.08339016500000002  0.47838193998757816  1.0000
  V   V8        1.0  0.24258871999999992  0.41672349499999994  0.44416825024752893  1.0000
  V   V9        1.0  0.40925537999999995  0.250056835  0.4612750966571696  1.0000
  V   V10       1.0  0.07592204999999995  0.08339016500000002  0.45272167345234926  1.0000
  V   V11       1.0  0.24258871999999992  0.41672349499999994  0.4698285198619899  1.0000
  V   V12       1.0  0.40925537999999995  0.250056835  0.4869353631923986  1.0000
  V   V13       1.0  0.07229808999999998  0.5804525349999999  0.5282761696666578  1.0000
  V   V14       1.0  0.24258871999999987  0.9167234949999998  0.4954887863972189  1.0000
  V   V15       1.0  0.4093877299999999  0.7483042049999998  0.5128945985313988  1.0000
  V   V16       1.0  0.07592204999999991  0.583390165  0.5040422096020393  1.0000
  V   V17       1.0  0.24248244999999988  0.9165369249999998  0.5214849078576338  1.0000
  V   V18       1.0  0.40125481999999985  0.7459831249999999  0.5362010230629312  1.0000
  V   V19       1.0  0.07592204999999991  0.583390165  0.47838193998757816  1.0000
  V   V20       1.0  0.24258871999999987  0.9167234949999998  0.44416825024752893  1.0000
  V   V21       1.0  0.4092553799999999  0.7500568349999999  0.4612750966571696  1.0000
  V   V22       1.0  0.07592204999999991  0.583390165  0.45272167345234926  1.0000
  V   V23       1.0  0.24258871999999987  0.9167234949999998  0.4698285198619899  1.0000
  V   V24       1.0  0.4092553799999999  0.7500568349999999  0.4869353631923986  1.0000
  V   V25       1.0  0.5734630099999998  0.08203104500000001  0.5283054993524808  1.0000
  V   V26       1.0  0.7425887199999998  0.41672349499999994  0.4954887863972189  1.0000
  V   V27       1.0  0.90534743  0.24792947500000004  0.5124605161019871  1.0000
  V   V28       1.0  0.57592205  0.08339016500000002  0.5040422096020393  1.0000
  V   V29       1.0  0.7438703299999998  0.416345165  0.5217115793707555  1.0000
  V   V30       1.0  0.8795995099999998  0.23455008500000002  0.5355665472872019  1.0000
  V   V31       1.0  0.57592205  0.08339016500000002  0.47838193998757816  1.0000
  V   V32       1.0  0.7425887199999998  0.41672349499999994  0.44416825024752893  1.0000
  V   V33       1.0  0.9092553799999998  0.250056835  0.4612750966571696  1.0000
  V   V34       1.0  0.57592205  0.08339016500000002  0.45272167345234926  1.0000
  V   V35       1.0  0.7425887199999998  0.41672349499999994  0.4698285198619899  1.0000
  V   V36       1.0  0.9092553799999998  0.250056835  0.4869353631923986  1.0000
  V   V37       1.0  0.5765461799999999  0.583696335  0.5291757396137449  1.0000
  V   V38       1.0  0.7425887199999998  0.9167234949999998  0.4954887863972189  1.0000
  V   V39       1.0  0.90958822  0.750214885  0.5125833004822695  1.0000
  V   V40       1.0  0.57592205  0.583390165  0.5040422096020393  1.0000
  V   V41       1.0  0.7434322799999998  0.9179689549999999  0.5217079335599404  1.0000
  V   V42       1.0  0.9277019099999999  0.7592106149999999  0.5353455384819257  1.0000
  V   V43       1.0  0.57592205  0.583390165  0.47838193998757816  1.0000
  V   V44       1.0  0.7425887199999998  0.9167234949999998  0.44416825024752893  1.0000
  V   V45       1.0  0.9092553799999998  0.7500568349999999  0.4612750966571696  1.0000
  V   V46       1.0  0.57592205  0.583390165  0.45272167345234926  1.0000
  V   V47       1.0  0.7425887199999998  0.9167234949999998  0.4698285198619899  1.0000
  V   V48       1.0  0.9092553799999998  0.7500568349999999  0.4869353631923986  1.0000
