data_image0
_chemical_formula_structural       COGe40
_chemical_formula_sum              "C1 O1 Ge40"
_cell_length_a       8.25412627
_cell_length_b       12.381189406415494
_cell_length_c       108.93463573
_cell_angle_alpha    92.0248683091998
_cell_angle_beta     90.0
_cell_angle_gamma    90.0

_space_group_name_H-M_alt    "P 1"
_space_group_IT_number       1

loop_
  _space_group_symop_operation_xyz
  'x, y, z'

loop_
  _atom_site_type_symbol
  _atom_site_label
  _atom_site_symmetry_multiplicity
  _atom_site_fract_x
  _atom_site_fract_y
  _atom_site_fract_z
  _atom_site_occupancy
  C   C1        1.0  0.61747601  0.64345117  0.5464187474075235  1.0000
  O   O1        1.0  0.61747599  0.63439358  0.5568715284706409  1.0000
  Ge  Ge1       1.0  0.36747601  0.03653018999999998  0.4922727347565657  1.0000
  Ge  Ge2       1.0  0.36747601  0.58653019  0.47440209358303603  1.0000
  Ge  Ge3       1.0  0.35242809  0.46765742  0.5112736189276283  1.0000
  Ge  Ge4       1.0  0.36747601  0.13653019  0.45653145240950627  1.0000
  Ge  Ge5       1.0  0.36721206  0.02596981999999998  0.5263682954614419  1.0000
  Ge  Ge6       1.0  0.36747601  0.97403019  0.46993443328965356  1.0000
  Ge  Ge7       1.0  0.36747601  0.52403019  0.45206379211612385  1.0000
  Ge  Ge8       1.0  0.36747601  0.42403019  0.48780507446318333  1.0000
  Ge  Ge9       1.0  0.36880057  0.29549615999999995  0.5254214838731707  1.0000
  Ge  Ge10      1.0  0.36218954000000003  0.88275715  0.5073499480998246  1.0000
  Ge  Ge11      1.0  0.61747601  0.16455365999999996  0.5200197752034431  1.0000
  Ge  Ge12      1.0  0.61747607  0.76780328  0.5022465468949503  1.0000
  Ge  Ge13      1.0  0.11747601  0.41153018999999996  0.44759613182274144  1.0000
  Ge  Ge14      1.0  0.61747601  0.31153019  0.4833374141698009  1.0000
  Ge  Ge15      1.0  0.61747601  0.86153019  0.46546677299627115  1.0000
  Ge  Ge16      1.0  0.11747601  0.24903018999999998  0.46099911270288874  1.0000
  Ge  Ge17      1.0  0.11747601  0.7990301900000001  0.44312847152935897  1.0000
  Ge  Ge18      1.0  0.11747601  0.6990301900000001  0.4788697538764185  1.0000
  Ge  Ge19      1.0  0.11747597  0.59745907  0.5175741636623326  1.0000
  Ge  Ge20      1.0  0.61747601  0.14903018999999998  0.49674039504994816  1.0000
  Ge  Ge21      1.0  0.86747601  0.03653018999999998  0.4922727347565657  1.0000
  Ge  Ge22      1.0  0.86747601  0.58653019  0.47440209358303603  1.0000
  Ge  Ge23      1.0  0.88252403  0.46765739  0.5112736153535  1.0000
  Ge  Ge24      1.0  0.86747601  0.13653019  0.45653145240950627  1.0000
  Ge  Ge25      1.0  0.8677399699999999  0.02596980999999998  0.5263682954614419  1.0000
  Ge  Ge26      1.0  0.86747601  0.97403019  0.46993443328965356  1.0000
  Ge  Ge27      1.0  0.86747601  0.52403019  0.45206379211612385  1.0000
  Ge  Ge28      1.0  0.86747601  0.42403019  0.48780507446318333  1.0000
  Ge  Ge29      1.0  0.8661514400000001  0.29549616999999995  0.5254214874472989  1.0000
  Ge  Ge30      1.0  0.8727623900000001  0.8827571399999999  0.5073499445256964  1.0000
  Ge  Ge31      1.0  0.11747601  0.16640477  0.5200788162277522  1.0000
  Ge  Ge32      1.0  0.11747605000000001  0.75771042  0.5026299543530719  1.0000
  Ge  Ge33      1.0  0.61747601  0.41153018999999996  0.44759613182274144  1.0000
  Ge  Ge34      1.0  0.11747601  0.31153019  0.4833374141698009  1.0000
  Ge  Ge35      1.0  0.11747601  0.86153019  0.46546677299627115  1.0000
  Ge  Ge36      1.0  0.61747601  0.24903018999999998  0.46099911270288874  1.0000
  Ge  Ge37      1.0  0.61747601  0.7990301900000001  0.44312847152935897  1.0000
  Ge  Ge38      1.0  0.61747601  0.6990301900000001  0.4788697538764185  1.0000
  Ge  Ge39      1.0  0.61747594  0.57512677  0.5107829840483373  1.0000
  Ge  Ge40      1.0  0.11747601  0.14903018999999998  0.49674039504994816  1.0000
