data_image0
_chemical_formula_structural       COSn32Au8
_chemical_formula_sum              "C1 O1 Sn32 Au8"
_cell_length_a       12.10777611
_cell_length_b       9.440832323626907
_cell_length_c       107.76332928
_cell_angle_alpha    90.30432814053458
_cell_angle_beta     90.0
_cell_angle_gamma    90.0

_space_group_name_H-M_alt    "P 1"
_space_group_IT_number       1

loop_
  _space_group_symop_operation_xyz
  'x, y, z'

loop_
  _atom_site_type_symbol
  _atom_site_label
  _atom_site_symmetry_multiplicity
  _atom_site_fract_x
  _atom_site_fract_y
  _atom_site_fract_z
  _atom_site_occupancy
  C   C1        1.0  0.28090537  0.18105723499999998  0.5424775707376943  1.0000
  O   O1        1.0  0.27821001  0.145057245  0.5526764103767621  1.0000
  Sn  Sn1       1.0  0.92456547  0.7526520150000001  0.47645594866850816  1.0000
  Sn  Sn2       1.0  0.94299088  0.252910755  0.5200991510903752  1.0000
  Sn  Sn3       1.0  0.6894527699999999  0.667151125  0.4839464324600316  1.0000
  Sn  Sn4       1.0  0.7043754699999999  0.15211730499999998  0.5249111250197768  1.0000
  Sn  Sn5       1.0  0.92456547  0.084616885  0.4617348798003667  1.0000
  Sn  Sn6       1.0  0.914934  0.582755645  0.5043457587515695  1.0000
  Sn  Sn7       1.0  0.92456547  0.249115995  0.49112713756054244  1.0000
  Sn  Sn8       1.0  0.92456547  0.7491159949999999  0.44732358962323804  1.0000
  Sn  Sn9       1.0  0.6894527699999999  0.0026520149999999946  0.4983577226371604  1.0000
  Sn  Sn10      1.0  0.6894527699999999  0.5026520150000001  0.45455417469985593  1.0000
  Sn  Sn11      1.0  0.6894527699999999  0.334616885  0.483636653769019  1.0000
  Sn  Sn12      1.0  0.6378374600000001  0.8295396250000001  0.5295880718844489  1.0000
  Sn  Sn13      1.0  0.92338126  0.9085660750000002  0.504520629523503  1.0000
  Sn  Sn14      1.0  0.92456547  0.417151125  0.4620446584913794  1.0000
  Sn  Sn15      1.0  0.6894527699999999  0.999115995  0.4692253635918902  1.0000
  Sn  Sn16      1.0  0.6867809  0.536484875  0.5160443092220764  1.0000
  Sn  Sn17      1.0  0.42456547  0.0026520149999999946  0.45455417469985593  1.0000
  Sn  Sn18      1.0  0.42456547  0.5026520150000001  0.49835772263716044  1.0000
  Sn  Sn19      1.0  0.18945277  0.9171511250000001  0.4620446584913794  1.0000
  Sn  Sn20      1.0  0.19235792  0.401247405  0.504063162790265  1.0000
  Sn  Sn21      1.0  0.42456547  0.8346168850000001  0.483636653769019  1.0000
  Sn  Sn22      1.0  0.51660708  0.362474295  0.5298633824396606  1.0000
  Sn  Sn23      1.0  0.44844651  0.006708344999999994  0.5149278654179534  1.0000
  Sn  Sn24      1.0  0.42456547  0.49911599500000003  0.46922536359189015  1.0000
  Sn  Sn25      1.0  0.18945277  0.252652015  0.4764559486685081  1.0000
  Sn  Sn26      1.0  0.18236394  0.755282395  0.5204289883020593  1.0000
  Sn  Sn27      1.0  0.21227017  0.07321686499999999  0.5033425278453035  1.0000
  Sn  Sn28      1.0  0.18945277  0.5846168850000001  0.4617348798003667  1.0000
  Sn  Sn29      1.0  0.42456547  0.16715112499999998  0.4839464324600315  1.0000
  Sn  Sn30      1.0  0.41985163  0.670289295  0.5258307226880372  1.0000
  Sn  Sn31      1.0  0.18945277  0.7491159949999999  0.49112713756054244  1.0000
  Sn  Sn32      1.0  0.18945277  0.249115995  0.4473235896232379  1.0000
  Au  Au1       1.0  0.06650764  0.008740994999999994  0.5231655010702178  1.0000
  Au  Au2       1.0  0.05700912  0.500884005  0.48379154311452527  1.0000
  Au  Au3       1.0  0.05700912  0.0008840049999999946  0.48379154311452527  1.0000
  Au  Au4       1.0  0.06026513000000001  0.508766055  0.5236051835629932  1.0000
  Au  Au5       1.0  0.55700912  0.7508840050000001  0.4618897691458731  1.0000
  Au  Au6       1.0  0.55787949  0.26300086500000003  0.5048065195116125  1.0000
  Au  Au7       1.0  0.55700912  0.250884005  0.46188976914587304  1.0000
  Au  Au8       1.0  0.55556357  0.7565822050000001  0.5041871899080366  1.0000
