data_image0
_chemical_formula_structural       COCo16
_chemical_formula_sum              "C1 O1 Co16"
_cell_length_a       4.943025830410266
_cell_length_b       4.690155114205413
_cell_length_c       107.52124091
_cell_angle_alpha    63.60024439664489
_cell_angle_beta     74.72341738603512
_cell_angle_gamma    105.27658272736679

_space_group_name_H-M_alt    "P 1"
_space_group_IT_number       1

loop_
  _space_group_symop_operation_xyz
  'x, y, z'

loop_
  _atom_site_type_symbol
  _atom_site_label
  _atom_site_symmetry_multiplicity
  _atom_site_fract_x
  _atom_site_fract_y
  _atom_site_fract_z
  _atom_site_occupancy
  C   C1        1.0  0.9684209750000001  0.80610406  0.5367397054055344  1.0000
  O   O1        1.0  0.8250128650000002  0.6468183000000001  0.5502440485685187  1.0000
  Co  Co1       1.0  0.18165842499999998  0.02888401000000001  0.5169535687056134  1.0000
  Co  Co2       1.0  0.198980225  0.55142142  0.4932647201103342  1.0000
  Co  Co3       1.0  0.03157902500000003  0.96760437  0.4970929696732488  1.0000
  Co  Co4       1.0  0.037149404999999976  0.47603630999999996  0.517840507281792  1.0000
  Co  Co5       1.0  0.19934798500000003  0.050079080000000005  0.47156631687209133  1.0000
  Co  Co6       1.0  0.1993479850000001  0.5500790800000002  0.449755951431481  1.0000
  Co  Co7       1.0  0.03268131500000002  0.96674574  0.45339101350146893  1.0000
  Co  Co8       1.0  0.032681315  0.46674573999999996  0.4752013789420792  1.0000
  Co  Co9       1.0  0.699804905  0.05674304000000001  0.5148246606797846  1.0000
  Co  Co10      1.0  0.6987586750000001  0.55019109  0.4932239888166666  1.0000
  Co  Co11      1.0  0.531031535  0.97111599  0.49703155866348503  1.0000
  Co  Co12      1.0  0.5400931750000001  0.47828052000000004  0.5177257777802574  1.0000
  Co  Co13      1.0  0.6993479850000001  0.050079080000000005  0.47156631687209133  1.0000
  Co  Co14      1.0  0.6993479850000001  0.5500790800000002  0.44975595143148095  1.0000
  Co  Co15      1.0  0.532681315  0.96674574  0.4533910135014689  1.0000
  Co  Co16      1.0  0.5326813149999999  0.46674573999999996  0.47520137894207914  1.0000
