data_image0
_chemical_formula_structural       COW16
_chemical_formula_sum              "C1 O1 W16"
_cell_length_a       5.51021176
_cell_length_b       5.510211751007181
_cell_length_c       101.49348341
_cell_angle_alpha    90.0
_cell_angle_beta     90.0
_cell_angle_gamma    70.52877936921199

_space_group_name_H-M_alt    "P 1"
_space_group_IT_number       1

loop_
  _space_group_symop_operation_xyz
  'x, y, z'

loop_
  _atom_site_type_symbol
  _atom_site_label
  _atom_site_symmetry_multiplicity
  _atom_site_fract_x
  _atom_site_fract_y
  _atom_site_fract_z
  _atom_site_occupancy
  C   C1        1.0  0.11241680000000007  0.21616583999999997  0.5364810609565794  1.0000
  O   O1        1.0  0.2754872200000001  0.053848839999999995  0.5438393822847639  1.0000
  W   W1        1.0  0.13052475000000005  0.19615116  0.45616061771523614  1.0000
  W   W2        1.0  0.38052475000000013  0.44615115999999994  0.47832494205128884  1.0000
  W   W3        1.0  0.13105049000000005  0.19581791999999998  0.5004435529107706  1.0000
  W   W4        1.0  0.3832743700000001  0.44877370999999994  0.5220673926512087  1.0000
  W   W5        1.0  0.13052475000000005  0.69615116  0.45616061771523614  1.0000
  W   W6        1.0  0.3805247500000001  0.94615116  0.47832494205128884  1.0000
  W   W7        1.0  0.13025468000000004  0.69755987  0.5008752709586821  1.0000
  W   W8        1.0  0.38832821  0.93880184  0.5226576122184822  1.0000
  W   W9        1.0  0.6305247500000001  0.19615116  0.45616061771523614  1.0000
  W   W10       1.0  0.8805247500000001  0.44615115999999994  0.47832494205128884  1.0000
  W   W11       1.0  0.6293609300000002  0.19667731  0.5008768659034932  1.0000
  W   W12       1.0  0.8875832000000001  0.43971183999999996  0.5225168257573434  1.0000
  W   W13       1.0  0.6305247500000001  0.69615116  0.45616061771523614  1.0000
  W   W14       1.0  0.8805247500000001  0.94615116  0.47832494205128884  1.0000
  W   W15       1.0  0.6304512600000001  0.69643844  0.5000746179725156  1.0000
  W   W16       1.0  0.8784275500000001  0.9440941699999998  0.5220636193965583  1.0000
