data_image0
_chemical_formula_structural       COW16
_chemical_formula_sum              "C1 O1 W16"
_cell_length_a       5.51021176
_cell_length_b       5.510211751007181
_cell_length_c       101.49348341
_cell_angle_alpha    90.0
_cell_angle_beta     90.0
_cell_angle_gamma    109.47122063078801

_space_group_name_H-M_alt    "P 1"
_space_group_IT_number       1

loop_
  _space_group_symop_operation_xyz
  'x, y, z'

loop_
  _atom_site_type_symbol
  _atom_site_label
  _atom_site_symmetry_multiplicity
  _atom_site_fract_x
  _atom_site_fract_y
  _atom_site_fract_z
  _atom_site_occupancy
  C   C1        1.0  0.4950492350000001  0.754296635  0.536742832049456  1.0000
  O   O1        1.0  0.5527482650000001  0.6965974650000001  0.5472878438012444  1.0000
  W   W1        1.0  0.373037995  0.36993529500000005  0.5186225957841873  1.0000
  W   W2        1.0  0.6245353250000001  0.128757435  0.4970142493500564  1.0000
  W   W3        1.0  0.372320315  0.37702613500000004  0.47487648053480835  1.0000
  W   W4        1.0  0.6223203150000001  0.627026135  0.45271215619875566  1.0000
  W   W5        1.0  0.378556155  0.870790365  0.5196326706094638  1.0000
  W   W6        1.0  0.620766575  0.628579905  0.4972314442178666  1.0000
  W   W7        1.0  0.372320315  0.877026135  0.47487648053480835  1.0000
  W   W8        1.0  0.622320315  0.127026135  0.45271215619875566  1.0000
  W   W9        1.0  0.8690155250000002  0.380330925  0.5181045924631963  1.0000
  W   W10       1.0  0.12637241500000002  0.122973865  0.49739784288614747  1.0000
  W   W11       1.0  0.872320315  0.37702613500000004  0.47487648053480835  1.0000
  W   W12       1.0  0.12232031500000004  0.627026135  0.45271215619875566  1.0000
  W   W13       1.0  0.8794111849999999  0.8763084149999999  0.5186225957841873  1.0000
  W   W14       1.0  0.12058881500000006  0.624811125  0.497014246247051  1.0000
  W   W15       1.0  0.872320315  0.877026135  0.47487648053480835  1.0000
  W   W16       1.0  0.12232031500000003  0.127026135  0.45271215619875566  1.0000
