data_image0
_chemical_formula_structural       COW32
_chemical_formula_sum              "C1 O1 W32"
_cell_length_a       5.51021176
_cell_length_b       8.99813812
_cell_length_c       101.17046479
_cell_angle_alpha    90.0
_cell_angle_beta     90.0
_cell_angle_gamma    90.0

_space_group_name_H-M_alt    "P 1"
_space_group_IT_number       1

loop_
  _space_group_symop_operation_xyz
  'x, y, z'

loop_
  _atom_site_type_symbol
  _atom_site_label
  _atom_site_symmetry_multiplicity
  _atom_site_fract_x
  _atom_site_fract_y
  _atom_site_fract_z
  _atom_site_occupancy
  C   C1        1.0  0.5385670750000001  0.875393645  0.5478212781564563  1.0000
  O   O1        1.0  0.429172485  0.875406985  0.5580245195264495  1.0000
  W   W1        1.0  0.416666665  0.375380975  0.4804877884562962  1.0000
  W   W2        1.0  0.416666665  0.12538097499999998  0.4419754804735506  1.0000
  W   W3        1.0  0.250000005  0.375380975  0.4548129144138094  1.0000
  W   W4        1.0  0.08333333499999998  0.12538097499999998  0.4676503514350528  1.0000
  W   W5        1.0  0.22954397499999998  0.375380375  0.5298360149235909  1.0000
  W   W6        1.0  0.250000005  0.12538097499999998  0.493325222396555  1.0000
  W   W7        1.0  0.085887655  0.375381245  0.5061358178796267  1.0000
  W   W8        1.0  0.41147301500000005  0.12459301499999997  0.519014835869553  1.0000
  W   W9        1.0  0.416666665  0.875380975  0.4804877884562962  1.0000
  W   W10       1.0  0.416666665  0.625380975  0.4419754804735506  1.0000
  W   W11       1.0  0.250000005  0.875380975  0.4548129144138094  1.0000
  W   W12       1.0  0.08333333499999998  0.625380975  0.4676503514350528  1.0000
  W   W13       1.0  0.23408081499999997  0.875380635  0.5302613540959062  1.0000
  W   W14       1.0  0.250000005  0.625380975  0.493325222396555  1.0000
  W   W15       1.0  0.08390380499999997  0.875380815  0.5062087848388233  1.0000
  W   W16       1.0  0.41147357500000004  0.626168465  0.5190148605174302  1.0000
  W   W17       1.0  0.916666665  0.375380975  0.4804877884562962  1.0000
  W   W18       1.0  0.916666665  0.12538097499999998  0.4419754804735506  1.0000
  W   W19       1.0  0.7500000050000001  0.375380975  0.4548129144138094  1.0000
  W   W20       1.0  0.5833333350000001  0.12538097499999998  0.4676503514350528  1.0000
  W   W21       1.0  0.7304229849999999  0.37538067499999994  0.5300398343813743  1.0000
  W   W22       1.0  0.7500000050000001  0.12538097499999998  0.493325222396555  1.0000
  W   W23       1.0  0.5868296850000001  0.37538067499999994  0.5062314608857634  1.0000
  W   W24       1.0  0.910762115  0.12482058499999997  0.5192340941413605  1.0000
  W   W25       1.0  0.916666665  0.875380975  0.4804877884562962  1.0000
  W   W26       1.0  0.916666665  0.625380975  0.4419754804735506  1.0000
  W   W27       1.0  0.7500000050000001  0.875380975  0.4548129144138094  1.0000
  W   W28       1.0  0.5833333350000001  0.625380975  0.4676503514350528  1.0000
  W   W29       1.0  0.7372794650000001  0.875380725  0.5306992544425934  1.0000
  W   W30       1.0  0.7500000050000001  0.625380975  0.493325222396555  1.0000
  W   W31       1.0  0.586284745  0.875380795  0.5059672264002014  1.0000
  W   W32       1.0  0.9107620949999999  0.625940685  0.5192340571695446  1.0000
