data_image0
_chemical_formula_structural       COW40
_chemical_formula_sum              "C1 O1 W40"
_cell_length_a       8.99813812
_cell_length_b       7.113652787330917
_cell_length_c       103.06127054000001
_cell_angle_alpha    75.03678258116297
_cell_angle_beta     90.0
_cell_angle_gamma    108.43494883007818

_space_group_name_H-M_alt    "P 1"
_space_group_IT_number       1

loop_
  _space_group_symop_operation_xyz
  'x, y, z'

loop_
  _atom_site_type_symbol
  _atom_site_label
  _atom_site_symmetry_multiplicity
  _atom_site_fract_x
  _atom_site_fract_y
  _atom_site_fract_z
  _atom_site_occupancy
  C   C1        1.0  0.861741555  0.09717706999999996  0.5577583589394096  1.0000
  O   O1        1.0  0.9426168649999999  0.12510760999999995  0.5662245543152029  1.0000
  W   W1        1.0  0.150220155  0.5008973299999999  0.5283400870686066  1.0000
  W   W2        1.0  0.049717074999999986  0.09934822999999994  0.5189378066884169  1.0000
  W   W3        1.0  0.25028292500000004  0.9028229300000001  0.48724084066185186  1.0000
  W   W4        1.0  0.45010246499999995  0.70146026  0.5086514642045323  1.0000
  W   W5        1.0  0.3502829250000001  0.30282293  0.49793392222360194  1.0000
  W   W6        1.0  0.15028292500000004  0.5028229300000001  0.5032804597965531  1.0000
  W   W7        1.0  0.050282925  0.10282292999999995  0.4925873814427269  1.0000
  W   W8        1.0  0.250437465  0.90171836  0.5148232626374307  1.0000
  W   W9        1.0  0.44833183499999996  0.69244233  0.5329505184006089  1.0000
  W   W10       1.0  0.349209525  0.29722489999999996  0.5235991509794766  1.0000
  W   W11       1.0  0.15028292500000004  0.5028229300000001  0.47654776230802576  1.0000
  W   W12       1.0  0.050282925  0.10282292999999995  0.4658546839541995  1.0000
  W   W13       1.0  0.25028292500000004  0.9028229300000001  0.43377544568479715  1.0000
  W   W14       1.0  0.4502829250000001  0.70282293  0.45516160239244957  1.0000
  W   W15       1.0  0.3502829250000001  0.30282293  0.44446852403862336  1.0000
  W   W16       1.0  0.15028292500000004  0.5028229300000001  0.4498150648194984  1.0000
  W   W17       1.0  0.050282925  0.10282292999999995  0.43912198325774837  1.0000
  W   W18       1.0  0.25028292500000004  0.9028229300000001  0.4605081431733245  1.0000
  W   W19       1.0  0.4502829250000001  0.70282293  0.48189430308890074  1.0000
  W   W20       1.0  0.3502829250000001  0.30282293  0.47120122152715077  1.0000
  W   W21       1.0  0.649815605  0.5004588799999999  0.5283762788652221  1.0000
  W   W22       1.0  0.5494976349999999  0.09945393999999995  0.5189625878999801  1.0000
  W   W23       1.0  0.750282925  0.9028229300000001  0.48724084066185186  1.0000
  W   W24       1.0  0.9496548149999999  0.70096786  0.508647836042684  1.0000
  W   W25       1.0  0.8502829250000001  0.30282293  0.49793392222360194  1.0000
  W   W26       1.0  0.6502829250000001  0.5028229300000001  0.5032804597965531  1.0000
  W   W27       1.0  0.550282925  0.10282292999999995  0.4925873814427269  1.0000
  W   W28       1.0  0.7500865150000001  0.90152207  0.5148187972074636  1.0000
  W   W29       1.0  0.948366765  0.69358451  0.532900041719192  1.0000
  W   W30       1.0  0.848715085  0.29563063999999994  0.5238450094694972  1.0000
  W   W31       1.0  0.6502829250000001  0.5028229300000001  0.47654776230802576  1.0000
  W   W32       1.0  0.550282925  0.10282292999999995  0.4658546839541995  1.0000
  W   W33       1.0  0.750282925  0.9028229300000001  0.43377544568479715  1.0000
  W   W34       1.0  0.9502829250000001  0.70282293  0.45516160239244957  1.0000
  W   W35       1.0  0.8502829250000001  0.30282293  0.44446852403862336  1.0000
  W   W36       1.0  0.6502829250000001  0.5028229300000001  0.4498150648194984  1.0000
  W   W37       1.0  0.550282925  0.10282292999999995  0.43912198325774837  1.0000
  W   W38       1.0  0.750282925  0.9028229300000001  0.4605081431733245  1.0000
  W   W39       1.0  0.9502829250000001  0.70282293  0.48189430308890074  1.0000
  W   W40       1.0  0.8502829250000001  0.30282293  0.47120122152715077  1.0000
