data_image0
_chemical_formula_structural       COW40
_chemical_formula_sum              "C1 O1 W40"
_cell_length_a       8.99813812
_cell_length_b       7.113652787330917
_cell_length_c       103.06127054000001
_cell_angle_alpha    75.03678258116297
_cell_angle_beta     90.0
_cell_angle_gamma    108.43494883007818

_space_group_name_H-M_alt    "P 1"
_space_group_IT_number       1

loop_
  _space_group_symop_operation_xyz
  'x, y, z'

loop_
  _atom_site_type_symbol
  _atom_site_label
  _atom_site_symmetry_multiplicity
  _atom_site_fract_x
  _atom_site_fract_y
  _atom_site_fract_z
  _atom_site_occupancy
  C   C1        1.0  0.99145704  0.48581132  0.5531226796429274  1.0000
  O   O1        1.0  0.008542960000000013  0.3736788499999999  0.5633413156865207  1.0000
  W   W1        1.0  0.15161537000000003  0.50174542  0.5315260606767609  1.0000
  W   W2        1.0  0.04907293000000001  0.09882260999999994  0.5218467568265721  1.0000
  W   W3        1.0  0.24895952000000007  0.9013775700000001  0.4901240792905341  1.0000
  W   W4        1.0  0.44881525000000005  0.69910403  0.5116004460241239  1.0000
  W   W5        1.0  0.34895952  0.30137757  0.5008171608522841  1.0000
  W   W6        1.0  0.14895952000000004  0.50137757  0.5061636984252353  1.0000
  W   W7        1.0  0.04895952000000001  0.10137756999999994  0.49547062007140913  1.0000
  W   W8        1.0  0.24709205000000006  0.89867023  0.5176854091669507  1.0000
  W   W9        1.0  0.45216927  0.69420145  0.5358794763596727  1.0000
  W   W10       1.0  0.3479870400000001  0.29599891999999994  0.5265280415721401  1.0000
  W   W11       1.0  0.14895952000000004  0.50137757  0.479431000936708  1.0000
  W   W12       1.0  0.04895952000000001  0.10137756999999994  0.46873792258288177  1.0000
  W   W13       1.0  0.24895952000000007  0.9013775700000001  0.4366586843134794  1.0000
  W   W14       1.0  0.4489595200000001  0.7013775699999999  0.45804484102113174  1.0000
  W   W15       1.0  0.34895952  0.30137757  0.44735176266730553  1.0000
  W   W16       1.0  0.14895952000000004  0.50137757  0.45269830344818063  1.0000
  W   W17       1.0  0.04895952000000001  0.10137756999999994  0.4420052218864306  1.0000
  W   W18       1.0  0.24895952000000007  0.9013775700000001  0.46339138180200673  1.0000
  W   W19       1.0  0.4489595200000001  0.7013775699999999  0.4847775417175829  1.0000
  W   W20       1.0  0.34895952  0.30137757  0.4740844601558329  1.0000
  W   W21       1.0  0.6482159399999999  0.49793103999999994  0.5314860033319341  1.0000
  W   W22       1.0  0.54779999  0.09862242999999993  0.5217620612216932  1.0000
  W   W23       1.0  0.74895952  0.9013775700000001  0.4901240792905341  1.0000
  W   W24       1.0  0.94760427  0.6992600400000001  0.5112881995505049  1.0000
  W   W25       1.0  0.8489595200000002  0.30137757  0.5008171608522841  1.0000
  W   W26       1.0  0.64895952  0.50137757  0.5061636984252353  1.0000
  W   W27       1.0  0.54895952  0.10137756999999994  0.49547062007140913  1.0000
  W   W28       1.0  0.75012115  0.8995708899999999  0.5177270480182244  1.0000
  W   W29       1.0  0.9435174700000001  0.6844943  0.536702879831724  1.0000
  W   W30       1.0  0.84697127  0.29940556999999995  0.5261394785906781  1.0000
  W   W31       1.0  0.64895952  0.50137757  0.479431000936708  1.0000
  W   W32       1.0  0.54895952  0.10137756999999994  0.46873792258288177  1.0000
  W   W33       1.0  0.74895952  0.9013775700000001  0.4366586843134794  1.0000
  W   W34       1.0  0.9489595200000001  0.7013775699999999  0.45804484102113174  1.0000
  W   W35       1.0  0.8489595200000002  0.30137757  0.44735176266730553  1.0000
  W   W36       1.0  0.64895952  0.50137757  0.45269830344818063  1.0000
  W   W37       1.0  0.54895952  0.10137756999999994  0.4420052218864306  1.0000
  W   W38       1.0  0.74895952  0.9013775700000001  0.46339138180200673  1.0000
  W   W39       1.0  0.9489595200000001  0.7013775699999999  0.4847775417175829  1.0000
  W   W40       1.0  0.8489595200000002  0.30137757  0.4740844601558329  1.0000
