data_image0
_chemical_formula_structural       COW16
_chemical_formula_sum              "C1 O1 W16"
_cell_length_a       5.51021176
_cell_length_b       5.510211751007181
_cell_length_c       101.49348341
_cell_angle_alpha    90.0
_cell_angle_beta     90.0
_cell_angle_gamma    70.52877936921199

_space_group_name_H-M_alt    "P 1"
_space_group_IT_number       1

loop_
  _space_group_symop_operation_xyz
  'x, y, z'

loop_
  _atom_site_type_symbol
  _atom_site_label
  _atom_site_symmetry_multiplicity
  _atom_site_fract_x
  _atom_site_fract_y
  _atom_site_fract_z
  _atom_site_occupancy
  C   C1        1.0  0.3760709650000001  0.37625327500000005  0.5376587477252752  1.0000
  O   O1        1.0  0.3761326250000001  0.376305385  0.5492244589930663  1.0000
  W   W1        1.0  0.1260866850000001  0.12608725500000004  0.4507755410069336  1.0000
  W   W2        1.0  0.37608668500000014  0.376087255  0.4729398653429864  1.0000
  W   W3        1.0  0.12789467500000007  0.12801973500000005  0.4953538450870616  1.0000
  W   W4        1.0  0.37603817500000014  0.37610366500000003  0.5175172726545336  1.0000
  W   W5        1.0  0.12608668500000006  0.6260872550000001  0.4507755410069336  1.0000
  W   W6        1.0  0.3760866850000001  0.8760872550000001  0.4729398653429864  1.0000
  W   W7        1.0  0.1238999850000001  0.628271195  0.4950434204199321  1.0000
  W   W8        1.0  0.37610445500000006  0.8760356850000001  0.5165575223719552  1.0000
  W   W9        1.0  0.6260866850000001  0.12608725500000004  0.4507755410069336  1.0000
  W   W10       1.0  0.8760866850000002  0.376087255  0.4729398653429864  1.0000
  W   W11       1.0  0.628277335  0.12390853500000004  0.49504430167348523  1.0000
  W   W12       1.0  0.8761000150000002  0.376034595  0.5165566783544676  1.0000
  W   W13       1.0  0.6260866850000001  0.6260872550000001  0.4507755410069336  1.0000
  W   W14       1.0  0.8760866850000002  0.8760872550000001  0.4729398653429864  1.0000
  W   W15       1.0  0.6242015950000002  0.624260715  0.4953547946067351  1.0000
  W   W16       1.0  0.8760597650000002  0.8760914649999999  0.5162834804439509  1.0000
