data_image0
_chemical_formula_structural       COW48
_chemical_formula_sum              "C1 O1 W48"
_cell_length_a       8.99813812
_cell_length_b       8.998138121142158
_cell_length_c       103.06127054000001
_cell_angle_alpha    90.0
_cell_angle_beta     90.0
_cell_angle_gamma    60.0000000041989

_space_group_name_H-M_alt    "P 1"
_space_group_IT_number       1

loop_
  _space_group_symop_operation_xyz
  'x, y, z'

loop_
  _atom_site_type_symbol
  _atom_site_label
  _atom_site_symmetry_multiplicity
  _atom_site_fract_x
  _atom_site_fract_y
  _atom_site_fract_z
  _atom_site_occupancy
  C   C1        1.0  0.034475769999999996  0.38977782  0.5483743332497573  1.0000
  O   O1        1.0  0.07205398999999996  0.37407911  0.5596300269081238  1.0000
  W   W1        1.0  0.4655242300000001  0.42073097  0.44928087332402666  1.0000
  W   W2        1.0  0.13219089999999997  0.08739763999999998  0.48492447104470454  1.0000
  W   W3        1.0  0.29885756999999996  0.25406430999999996  0.46710267378832754  1.0000
  W   W4        1.0  0.4655242300000001  0.42073097  0.4760135708125541  1.0000
  W   W5        1.0  0.13219089999999997  0.08739763999999998  0.45819177355617713  1.0000
  W   W6        1.0  0.29885756999999996  0.25406430999999996  0.4403699730918763  1.0000
  W   W7        1.0  0.4655242300000001  0.42073097  0.5027462715090053  1.0000
  W   W8        1.0  0.13628405  0.07802949999999999  0.5359814338026644  1.0000
  W   W9        1.0  0.30070255  0.25310202  0.5214367392505557  1.0000
  W   W10       1.0  0.4659558599999999  0.41904871  0.5285180707023348  1.0000
  W   W11       1.0  0.13083919000000002  0.08961253999999999  0.5116849876486591  1.0000
  W   W12       1.0  0.29885756999999996  0.25406430999999996  0.4938353712768549  1.0000
  W   W13       1.0  0.4655242300000001  0.9207309699999999  0.44928087332402666  1.0000
  W   W14       1.0  0.13219090000000003  0.5873976399999999  0.48492447104470454  1.0000
  W   W15       1.0  0.2988575699999999  0.7540643100000001  0.46710267378832754  1.0000
  W   W16       1.0  0.4655242300000001  0.9207309699999999  0.4760135708125541  1.0000
  W   W17       1.0  0.13219090000000003  0.5873976399999999  0.45819177355617713  1.0000
  W   W18       1.0  0.2988575699999999  0.7540643100000001  0.4403699730918763  1.0000
  W   W19       1.0  0.4655242300000001  0.9207309699999999  0.5027462715090053  1.0000
  W   W20       1.0  0.13654470999999999  0.5926863800000001  0.5360089000464706  1.0000
  W   W21       1.0  0.29879725999999995  0.75408554  0.5219396198055144  1.0000
  W   W22       1.0  0.46598954999999986  0.9219705  0.5285130085985359  1.0000
  W   W23       1.0  0.13082404000000003  0.5864661999999999  0.5116931710623416  1.0000
  W   W24       1.0  0.2988575699999999  0.7540643100000001  0.4938353712768549  1.0000
  W   W25       1.0  0.9655242300000001  0.42073097  0.44928087332402666  1.0000
  W   W26       1.0  0.6321909  0.08739763999999998  0.48492447104470454  1.0000
  W   W27       1.0  0.7988575700000001  0.25406430999999996  0.46710267378832754  1.0000
  W   W28       1.0  0.9655242300000001  0.42073097  0.4760135708125541  1.0000
  W   W29       1.0  0.6321909  0.08739763999999998  0.45819177355617713  1.0000
  W   W30       1.0  0.7988575700000001  0.25406430999999996  0.4403699730918763  1.0000
  W   W31       1.0  0.9655242300000001  0.42073097  0.5027462715090053  1.0000
  W   W32       1.0  0.6320742400000001  0.08741057999999999  0.5356847393437583  1.0000
  W   W33       1.0  0.79778483  0.25338257  0.5215592274060397  1.0000
  W   W34       1.0  0.9635503699999999  0.42163982  0.5294409711398026  1.0000
  W   W35       1.0  0.6324916199999999  0.08723081999999999  0.5115151312899465  1.0000
  W   W36       1.0  0.7988575700000001  0.25406430999999996  0.4938353712768549  1.0000
  W   W37       1.0  0.9655242300000001  0.9207309699999999  0.44928087332402666  1.0000
  W   W38       1.0  0.6321909  0.5873976399999999  0.48492447104470454  1.0000
  W   W39       1.0  0.7988575700000001  0.7540643100000001  0.46710267378832754  1.0000
  W   W40       1.0  0.9655242300000001  0.9207309699999999  0.4760135708125541  1.0000
  W   W41       1.0  0.6321909  0.5873976399999999  0.45819177355617713  1.0000
  W   W42       1.0  0.7988575700000001  0.7540643100000001  0.4403699730918763  1.0000
  W   W43       1.0  0.9655242300000001  0.9207309699999999  0.5027462715090053  1.0000
  W   W44       1.0  0.62165717  0.5925974300000001  0.5358605945200273  1.0000
  W   W45       1.0  0.79784489  0.75562923  0.521569396524571  1.0000
  W   W46       1.0  0.9641826399999999  0.92136384  0.5285837689823105  1.0000
  W   W47       1.0  0.6342789799999999  0.5863243100000001  0.511650178467213  1.0000
  W   W48       1.0  0.7988575700000001  0.7540643100000001  0.4938353712768549  1.0000
