data_image0
_chemical_formula_structural       COAg20
_chemical_formula_sum              "C1 O1 Ag20"
_cell_length_a       5.95441928
_cell_length_b       8.931628920120271
_cell_length_c       98.08693956
_cell_angle_alpha    92.02486829292722
_cell_angle_beta     90.0
_cell_angle_gamma    90.0

_space_group_name_H-M_alt    "P 1"
_space_group_IT_number       1

loop_
  _space_group_symop_operation_xyz
  'x, y, z'

loop_
  _atom_site_type_symbol
  _atom_site_label
  _atom_site_symmetry_multiplicity
  _atom_site_fract_x
  _atom_site_fract_y
  _atom_site_fract_z
  _atom_site_occupancy
  C   C1        1.0  0.124888315  0.683680725  0.5405743362235552  1.0000
  O   O1        1.0  0.124895105  0.711949385  0.5520848772379696  1.0000
  Ag  Ag1       1.0  0.12493722500000001  0.222935055  0.5047403221901927  1.0000
  Ag  Ag2       1.0  0.12492514500000002  0.765871215  0.4912047123588173  1.0000
  Ag  Ag3       1.0  0.12490912500000001  0.425332015  0.44791512276203066  1.0000
  Ag  Ag4       1.0  0.12490912500000001  0.325332015  0.4765498621942046  1.0000
  Ag  Ag5       1.0  0.12490912500000001  0.875332015  0.46223249247811765  1.0000
  Ag  Ag6       1.0  0.37491246500000003  0.047565464999999994  0.48314422792488854  1.0000
  Ag  Ag7       1.0  0.37490912499999995  0.600332015  0.4693911773361611  1.0000
  Ag  Ag8       1.0  0.375274465  0.494209895  0.49796213288624996  1.0000
  Ag  Ag9       1.0  0.37490912499999995  0.150332015  0.45507380762007404  1.0000
  Ag  Ag10      1.0  0.37480580500000005  0.9524345350000001  0.5108728439355229  1.0000
  Ag  Ag11      1.0  0.6249450249999999  0.223314515  0.5047647676672459  1.0000
  Ag  Ag12      1.0  0.624878765  0.766231395  0.49120535377698066  1.0000
  Ag  Ag13      1.0  0.624909125  0.425332015  0.44791512276203066  1.0000
  Ag  Ag14      1.0  0.624909125  0.325332015  0.4765498621942046  1.0000
  Ag  Ag15      1.0  0.624909125  0.875332015  0.46223249247811765  1.0000
  Ag  Ag16      1.0  0.8751116849999999  0.04763052499999999  0.48314594028230656  1.0000
  Ag  Ag17      1.0  0.874909125  0.600332015  0.4693911773361611  1.0000
  Ag  Ag18      1.0  0.8744803649999999  0.49419151499999997  0.49796187803706904  1.0000
  Ag  Ag19      1.0  0.874909125  0.150332015  0.45507380762007404  1.0000
  Ag  Ag20      1.0  0.874976685  0.9524014750000002  0.51087661799418  1.0000
