data_image0
_chemical_formula_structural       V6Co2V6Co2CO
_chemical_formula_sum              "V12 Co4 C1 O1"
_cell_length_a       4.65570473
_cell_length_b       4.65570473
_cell_length_c       102.58993311
_cell_angle_alpha    90.0
_cell_angle_beta     90.0
_cell_angle_gamma    90.0

_space_group_name_H-M_alt    "P 1"
_space_group_IT_number       1

loop_
  _space_group_symop_operation_xyz
  'x, y, z'

loop_
  _atom_site_type_symbol
  _atom_site_label
  _atom_site_symmetry_multiplicity
  _atom_site_fract_x
  _atom_site_fract_y
  _atom_site_fract_z
  _atom_site_occupancy
  V   V1        1.0  0.37471846  0.11717748500000004  0.4608769764750951  1.0000
  V   V2        1.0  0.8747184600000001  0.11717748500000004  0.4608769764750951  1.0000
  V   V3        1.0  0.12471845999999998  0.617177485  0.4495315553310555  1.0000
  V   V4        1.0  0.12471845999999998  0.617177485  0.47222240079585326  1.0000
  V   V5        1.0  0.62471846  0.367177485  0.4835678251166114  1.0000
  V   V6        1.0  0.62471846  0.867177485  0.4835678251166114  1.0000
  Co  Co1       1.0  0.62471846  0.617177485  0.4608769764750951  1.0000
  Co  Co2       1.0  0.12471845999999998  0.11717748500000004  0.4835678251166114  1.0000
  V   V7        1.0  0.37415692  0.11717722500000005  0.5058687601614821  1.0000
  V   V8        1.0  0.8752815400000001  0.11717716500000004  0.5058687665149189  1.0000
  V   V9        1.0  0.12471845999999998  0.617177485  0.4949132462606511  1.0000
  V   V10       1.0  0.12472002999999998  0.617176955  0.5194332430199218  1.0000
  V   V11       1.0  0.62472034  0.351530025  0.5278690315139589  1.0000
  V   V12       1.0  0.62472034  0.8828234650000001  0.5278690283372405  1.0000
  Co  Co3       1.0  0.62471944  0.617177405  0.506437218040689  1.0000
  Co  Co4       1.0  0.12472057999999998  0.11717653500000003  0.5275209267085522  1.0000
  C   C1        1.0  0.12471896999999997  0.617178185  0.5386637049840312  1.0000
  O   O1        1.0  0.12471887999999996  0.6171785050000002  0.5504684446689445  1.0000
