data_image0
_chemical_formula_structural       COCr32
_chemical_formula_sum              "C1 O1 Cr32"
_cell_length_a       4.940990427676512
_cell_length_b       8.06860358
_cell_length_c       102.61926971
_cell_angle_alpha    90.0
_cell_angle_beta     88.55337055644071
_cell_angle_gamma    90.0

_space_group_name_H-M_alt    "P 1"
_space_group_IT_number       1

loop_
  _space_group_symop_operation_xyz
  'x, y, z'

loop_
  _atom_site_type_symbol
  _atom_site_label
  _atom_site_symmetry_multiplicity
  _atom_site_fract_x
  _atom_site_fract_y
  _atom_site_fract_z
  _atom_site_occupancy
  C   C1        1.0  0.5690235149999999  0.37499963499999994  0.5421286842226288  1.0000
  O   O1        1.0  0.6526526149999999  0.374999095  0.5528530654227211  1.0000
  Cr  Cr1       1.0  0.25310006500000004  0.374999315  0.4812041039346262  1.0000
  Cr  Cr2       1.0  0.270957205  0.12499931499999997  0.447146934577279  1.0000
  Cr  Cr3       1.0  0.43167149499999996  0.374999315  0.45849932542261773  1.0000
  Cr  Cr4       1.0  0.092385775  0.12499931499999997  0.4698517130892875  1.0000
  Cr  Cr5       1.0  0.406847075  0.374999235  0.5252600024907798  1.0000
  Cr  Cr6       1.0  0.413814345  0.12499931499999997  0.49255649477996505  1.0000
  Cr  Cr7       1.0  0.07147889500000001  0.37499943499999994  0.5041286015877412  1.0000
  Cr  Cr8       1.0  0.24427876499999998  0.12600189499999997  0.5153437279672669  1.0000
  Cr  Cr9       1.0  0.25310006500000004  0.8749993149999998  0.4812041039346262  1.0000
  Cr  Cr10      1.0  0.270957205  0.624999315  0.447146934577279  1.0000
  Cr  Cr11      1.0  0.43167149499999996  0.8749993149999998  0.45849932542261773  1.0000
  Cr  Cr12      1.0  0.092385775  0.624999315  0.4698517130892875  1.0000
  Cr  Cr13      1.0  0.414949035  0.8749997450000001  0.524828383734443  1.0000
  Cr  Cr14      1.0  0.413814345  0.624999315  0.49255649477996505  1.0000
  Cr  Cr15      1.0  0.06832850500000001  0.8749999049999999  0.5041414497680626  1.0000
  Cr  Cr16      1.0  0.24427886499999996  0.6239976150000001  0.5153437057165835  1.0000
  Cr  Cr17      1.0  0.7531000649999999  0.374999315  0.4812041039346263  1.0000
  Cr  Cr18      1.0  0.7709572049999999  0.12499931499999997  0.447146934577279  1.0000
  Cr  Cr19      1.0  0.9316714949999999  0.374999315  0.45849932542261784  1.0000
  Cr  Cr20      1.0  0.592385775  0.12499931499999997  0.4698517130892875  1.0000
  Cr  Cr21      1.0  0.9086407849999999  0.374999805  0.5254076993484322  1.0000
  Cr  Cr22      1.0  0.9138143449999999  0.12499931499999997  0.49255649477996516  1.0000
  Cr  Cr23      1.0  0.571583805  0.37499921499999994  0.5036918524595492  1.0000
  Cr  Cr24      1.0  0.7440990249999999  0.12708578499999998  0.5152387460643789  1.0000
  Cr  Cr25      1.0  0.7531000649999999  0.8749993149999998  0.4812041039346263  1.0000
  Cr  Cr26      1.0  0.7709572049999999  0.624999315  0.447146934577279  1.0000
  Cr  Cr27      1.0  0.9316714949999999  0.8749993149999998  0.45849932542261784  1.0000
  Cr  Cr28      1.0  0.592385775  0.624999315  0.4698517130892875  1.0000
  Cr  Cr29      1.0  0.9163863049999998  0.8750002549999999  0.5246202222340216  1.0000
  Cr  Cr30      1.0  0.9138143449999999  0.624999315  0.49255649477996516  1.0000
  Cr  Cr31      1.0  0.567913685  0.8750006850000001  0.5041953886032612  1.0000
  Cr  Cr32      1.0  0.744098755  0.6229128749999999  0.5152387587790552  1.0000
