data_image0
_chemical_formula_structural       COCr16
_chemical_formula_sum              "C1 O1 Cr16"
_cell_length_a       4.94099043
_cell_length_b       4.940990428327035
_cell_length_c       98.24011252
_cell_angle_alpha    90.0
_cell_angle_beta     90.0
_cell_angle_gamma    109.47122064134953

_space_group_name_H-M_alt    "P 1"
_space_group_IT_number       1

loop_
  _space_group_symop_operation_xyz
  'x, y, z'

loop_
  _atom_site_type_symbol
  _atom_site_label
  _atom_site_symmetry_multiplicity
  _atom_site_fract_x
  _atom_site_fract_y
  _atom_site_fract_z
  _atom_site_occupancy
  C   C1        1.0  0.5223586450000001  0.84326423  0.533984894086593  1.0000
  O   O1        1.0  0.601055385  0.83058742  0.5452944022860535  1.0000
  Cr  Cr1       1.0  0.378400685  0.3768323599999999  0.5157978570129524  1.0000
  Cr  Cr2       1.0  0.12505942500000006  0.12089406999999999  0.4962483855501204  1.0000
  Cr  Cr3       1.0  0.37154964500000004  0.37174814999999994  0.47523846155336896  1.0000
  Cr  Cr4       1.0  0.621549645  0.12174815  0.4547055977139465  1.0000
  Cr  Cr5       1.0  0.38174224500000004  0.8791059299999999  0.5163693938065836  1.0000
  Cr  Cr6       1.0  0.11891556500000006  0.6203330899999999  0.4957682668173326  1.0000
  Cr  Cr7       1.0  0.37154964500000004  0.87174815  0.47523846155336896  1.0000
  Cr  Cr8       1.0  0.621549645  0.6217481499999999  0.4547055977139465  1.0000
  Cr  Cr9       1.0  0.8727029350000001  0.38402226999999994  0.5153109657202204  1.0000
  Cr  Cr10      1.0  0.626032995  0.12617016  0.4957148078626284  1.0000
  Cr  Cr11      1.0  0.8715496450000001  0.37174814999999994  0.47523846155336896  1.0000
  Cr  Cr12      1.0  0.12154964500000005  0.12174815  0.4547055977139465  1.0000
  Cr  Cr13      1.0  0.881084435  0.8773131  0.5158745168722874  1.0000
  Cr  Cr14      1.0  0.620657445  0.6251543399999999  0.4959387852737556  1.0000
  Cr  Cr15      1.0  0.8715496450000001  0.87174815  0.47523846155336896  1.0000
  Cr  Cr16      1.0  0.12154964500000004  0.6217481499999999  0.4547055977139465  1.0000
