data_image0
_chemical_formula_structural       COCr24
_chemical_formula_sum              "C1 O1 Cr24"
_cell_length_a       5.7053643
_cell_length_b       5.7053643
_cell_length_c       101.37950366999999
_cell_angle_alpha    90.0
_cell_angle_beta     90.0
_cell_angle_gamma    90.0

_space_group_name_H-M_alt    "P 1"
_space_group_IT_number       1

loop_
  _space_group_symop_operation_xyz
  'x, y, z'

loop_
  _atom_site_type_symbol
  _atom_site_label
  _atom_site_symmetry_multiplicity
  _atom_site_fract_x
  _atom_site_fract_y
  _atom_site_fract_z
  _atom_site_occupancy
  C   C1        1.0  0.1250231  0.12500584999999997  0.5384677826871392  1.0000
  O   O1        1.0  0.12502038  0.12500877  0.5500971245385781  1.0000
  Cr  Cr1       1.0  0.12502095  0.12500597  0.4639721976923833  1.0000
  Cr  Cr2       1.0  0.37502094999999996  0.37500596999999997  0.4499028754614219  1.0000
  Cr  Cr3       1.0  0.12502659  0.12500309999999998  0.49181070802041155  1.0000
  Cr  Cr4       1.0  0.37502094999999996  0.37500596999999997  0.47804152301859587  1.0000
  Cr  Cr5       1.0  0.12502708999999998  0.12499402999999999  0.5195996912329927  1.0000
  Cr  Cr6       1.0  0.3759867099999999  0.37597363  0.506449776246465  1.0000
  Cr  Cr7       1.0  0.12502095  0.62500597  0.4639721976923833  1.0000
  Cr  Cr8       1.0  0.37502094999999996  0.8750059699999999  0.4499028754614219  1.0000
  Cr  Cr9       1.0  0.12502380999999999  0.62500356  0.491832384065001  1.0000
  Cr  Cr10      1.0  0.37502094999999996  0.8750059699999999  0.47804152301859587  1.0000
  Cr  Cr11      1.0  0.12497905  0.62496356  0.5190250980744239  1.0000
  Cr  Cr12      1.0  0.3759910499999999  0.8740354499999998  0.5064495967218918  1.0000
  Cr  Cr13      1.0  0.6250209499999999  0.12500597  0.4639721976923833  1.0000
  Cr  Cr14      1.0  0.87502095  0.37500596999999997  0.4499028754614219  1.0000
  Cr  Cr15      1.0  0.6250184999999999  0.12500584  0.491832384065001  1.0000
  Cr  Cr16      1.0  0.87502095  0.37500596999999997  0.47804152301859587  1.0000
  Cr  Cr17      1.0  0.6250413499999999  0.12503783999999998  0.5190253054562585  1.0000
  Cr  Cr18      1.0  0.8740575500000001  0.37597286999999996  0.5064505098210141  1.0000
  Cr  Cr19      1.0  0.6250209499999999  0.62500597  0.4639721976923833  1.0000
  Cr  Cr20      1.0  0.87502095  0.8750059699999999  0.4499028754614219  1.0000
  Cr  Cr21      1.0  0.6250148  0.62500937  0.4917701788003837  1.0000
  Cr  Cr22      1.0  0.87502095  0.8750059699999999  0.47804152301859587  1.0000
  Cr  Cr23      1.0  0.6250235799999999  0.62503297  0.5185283071515827  1.0000
  Cr  Cr24      1.0  0.87405648  0.8740369599999999  0.5064506429168184  1.0000
