data_image0
_chemical_formula_structural       COW16
_chemical_formula_sum              "C1 O1 W16"
_cell_length_a       5.51021176
_cell_length_b       5.510211751007181
_cell_length_c       101.49348341
_cell_angle_alpha    90.0
_cell_angle_beta     90.0
_cell_angle_gamma    109.47122063078801

_space_group_name_H-M_alt    "P 1"
_space_group_IT_number       1

loop_
  _space_group_symop_operation_xyz
  'x, y, z'

loop_
  _atom_site_type_symbol
  _atom_site_label
  _atom_site_symmetry_multiplicity
  _atom_site_fract_x
  _atom_site_fract_y
  _atom_site_fract_z
  _atom_site_occupancy
  C   C1        1.0  0.3761815499999999  0.376181645  0.5376449036663749  1.0000
  O   O1        1.0  0.3761814200000001  0.376181505  0.5492098671098478  1.0000
  W   W1        1.0  0.3761815699999999  0.376181645  0.5175102893407254  1.0000
  W   W2        1.0  0.6242260100000001  0.128136995  0.49536823837793004  1.0000
  W   W3        1.0  0.3761815499999999  0.376181635  0.4729544572262048  1.0000
  W   W4        1.0  0.62618155  0.626181635  0.45079013289015213  1.0000
  W   W5        1.0  0.37618163  0.876181695  0.5165709909671938  1.0000
  W   W6        1.0  0.6285448799999999  0.6285450449999999  0.49504568716542724  1.0000
  W   W7        1.0  0.3761815499999999  0.8761816349999999  0.4729544572262048  1.0000
  W   W8        1.0  0.6261815500000001  0.12618163500000001  0.45079013289015213  1.0000
  W   W9        1.0  0.8761816300000002  0.376181665  0.516571012688232  1.0000
  W   W10       1.0  0.12381835999999997  0.12381830500000002  0.49504568716542724  1.0000
  W   W11       1.0  0.8761815500000001  0.376181635  0.4729544572262048  1.0000
  W   W12       1.0  0.12618155  0.626181635  0.45079013289015213  1.0000
  W   W13       1.0  0.8761816399999999  0.876181685  0.516281949110752  1.0000
  W   W14       1.0  0.12813715  0.624226335  0.4953682352749245  1.0000
  W   W15       1.0  0.8761815499999999  0.8761816349999999  0.4729544572262048  1.0000
  W   W16       1.0  0.12618154999999998  0.12618163500000001  0.45079013289015213  1.0000
