data_image0
_chemical_formula_structural       COAu12Pd4
_chemical_formula_sum              "C1 O1 Au12 Pd4"
_cell_length_a       5.043558924716566
_cell_length_b       5.8820649
_cell_length_c       108.29237087
_cell_angle_alpha    90.0
_cell_angle_beta     93.32674089523921
_cell_angle_gamma    90.0

_space_group_name_H-M_alt    "P 1"
_space_group_IT_number       1

loop_
  _space_group_symop_operation_xyz
  'x, y, z'

loop_
  _atom_site_type_symbol
  _atom_site_label
  _atom_site_symmetry_multiplicity
  _atom_site_fract_x
  _atom_site_fract_y
  _atom_site_fract_z
  _atom_site_occupancy
  C   C1        1.0  0.7774214450000001  0.99931463  0.5371027057931178  1.0000
  O   O1        1.0  0.7915249850000001  0.9977484600000002  0.5478409471102546  1.0000
  Au  Au1       1.0  0.9157058550000001  0.7537477200000001  0.47425916169840776  1.0000
  Au  Au2       1.0  0.585892545  0.2494897600000001  0.4963901222589668  1.0000
  Au  Au3       1.0  0.228205855  0.25374772000000007  0.4521590528897455  1.0000
  Au  Au4       1.0  0.258691325  0.7477319800000001  0.5184699979760125  1.0000
  Au  Au5       1.0  0.9157058550000001  0.25374772000000007  0.47425916169840776  1.0000
  Au  Au6       1.0  0.5859409349999999  0.75441182  0.49639663913905235  1.0000
  Au  Au7       1.0  0.228205855  0.7537477200000001  0.4521590528897455  1.0000
  Au  Au8       1.0  0.258774585  0.2535588800000001  0.5184789794602324  1.0000
  Au  Au9       1.0  0.41570585500000007  0.5037477200000001  0.4742591616984077  1.0000
  Au  Au10      1.0  0.084294145  0.0019296500000000405  0.4963132987447305  1.0000
  Au  Au11      1.0  0.7282058550000001  0.0037477200000000407  0.45215905288974556  1.0000
  Au  Au12      1.0  0.765194695  0.50076142  0.5184026792765726  1.0000
  Pd  Pd1       1.0  0.7282058550000001  0.5037477200000001  0.45215905288974556  1.0000
  Pd  Pd2       1.0  0.41570585500000007  0.0037477200000000407  0.4742591616984077  1.0000
  Pd  Pd3       1.0  0.7562774350000001  0.0006853700000000403  0.5195072179627076  1.0000
  Pd  Pd4       1.0  0.087993365  0.50187778  0.4962595371360381  1.0000
