data_image0
_chemical_formula_structural       COPd6Sn24
_chemical_formula_sum              "C1 O1 Pd6 Sn24"
_cell_length_a       9.408266199786489
_cell_length_b       9.40826619936382
_cell_length_c       105.54671478
_cell_angle_alpha    86.11529087702147
_cell_angle_beta     86.11529087719626
_cell_angle_gamma    77.1303296546401

_space_group_name_H-M_alt    "P 1"
_space_group_IT_number       1

loop_
  _space_group_symop_operation_xyz
  'x, y, z'

loop_
  _atom_site_type_symbol
  _atom_site_label
  _atom_site_symmetry_multiplicity
  _atom_site_fract_x
  _atom_site_fract_y
  _atom_site_fract_z
  _atom_site_occupancy
  C   C1        1.0  0.6737537849999999  0.563475605  0.5347666447766324  1.0000
  O   O1        1.0  0.7037531950000001  0.5266401350000001  0.5452237596311386  1.0000
  Pd  Pd1       1.0  0.7360088250000001  0.7633973850000001  0.47357884530207695  1.0000
  Pd  Pd2       1.0  0.31934215499999996  0.346730715  0.5016443906802732  1.0000
  Pd  Pd3       1.0  0.8931441250000001  0.9449359549999999  0.5256278404890686  1.0000
  Pd  Pd4       1.0  0.44434215499999996  0.47173071500000013  0.4595460709290461  1.0000
  Pd  Pd5       1.0  0.027675484999999975  0.05506404500000002  0.48761161967510785  1.0000
  Pd  Pd6       1.0  0.6089626850000001  0.634813935  0.5176979382872122  1.0000
  Sn  Sn1       1.0  0.4438849849999999  0.7245763250000001  0.4732393846587966  1.0000
  Sn  Sn2       1.0  0.02721831499999997  0.307909655  0.5013049300369927  1.0000
  Sn  Sn3       1.0  0.6115560449999998  0.9191726450000001  0.5262158563478914  1.0000
  Sn  Sn4       1.0  0.35816321500000003  0.6388545550000001  0.5019838513235536  1.0000
  Sn  Sn5       1.0  0.990340835  0.19469900500000004  0.52930522638744  1.0000
  Sn  Sn6       1.0  0.7748298849999999  0.05552122500000002  0.4739183059453574  1.0000
  Sn  Sn7       1.0  0.14075466499999997  0.9338657650000001  0.5105333970098954  1.0000
  Sn  Sn8       1.0  0.9712952750000001  0.7453810550000001  0.45477624036886144  1.0000
  Sn  Sn9       1.0  0.5546286149999999  0.32871439500000005  0.48284178574705755  1.0000
  Sn  Sn10      1.0  0.170691815  0.9447775949999999  0.4643159048570964  1.0000
  Sn  Sn11      1.0  0.754025145  0.5281109250000001  0.4923814502352925  1.0000
  Sn  Sn12      1.0  0.32250767499999994  0.13453651500000005  0.5213497587179652  1.0000
  Sn  Sn13      1.0  0.9888544250000001  0.762940205  0.48727215903182747  1.0000
  Sn  Sn14      1.0  0.5613965749999998  0.35013673500000003  0.5150434405228281  1.0000
  Sn  Sn15      1.0  0.40552109500000005  0.17960687500000003  0.4592066102857657  1.0000
  Sn  Sn16      1.0  0.319799325  0.09388510500000004  0.4879510803183883  1.0000
  Sn  Sn17      1.0  0.9077705950000001  0.6836453050000001  0.5147669286551053  1.0000
  Sn  Sn18      1.0  0.736465995  0.510551775  0.4598855315723266  1.0000
  Sn  Sn19      1.0  0.5929924950000002  0.8736838350000001  0.49687456012008846  1.0000
  Sn  Sn20      1.0  0.17607992499999997  0.467807735  0.5245532556184266  1.0000
  Sn  Sn21      1.0  0.009659164999999975  0.29035050500000004  0.4688090113740267  1.0000
  Sn  Sn22      1.0  0.20905569499999996  0.48974703500000005  0.47834867923012714  1.0000
  Sn  Sn23      1.0  0.781807965  0.09446910500000004  0.5041976840839753  1.0000
  Sn  Sn24      1.0  0.321457695  0.728259065  0.5299981647305453  1.0000
