data_image0
_chemical_formula_structural       COPt24
_chemical_formula_sum              "C1 O1 Pt24"
_cell_length_a       7.97971778
_cell_length_b       4.886559218370411
_cell_length_c       102.16727076000001
_cell_angle_alpha    92.9025258191875
_cell_angle_beta     90.0
_cell_angle_gamma    65.90515741128502

_space_group_name_H-M_alt    "P 1"
_space_group_IT_number       1

loop_
  _space_group_symop_operation_xyz
  'x, y, z'

loop_
  _atom_site_type_symbol
  _atom_site_label
  _atom_site_symmetry_multiplicity
  _atom_site_fract_x
  _atom_site_fract_y
  _atom_site_fract_z
  _atom_site_occupancy
  C   C1        1.0  0.74081112  0.058759479999999954  0.5511318834461587  1.0000
  O   O1        1.0  0.7322445999999999  0.07063290999999997  0.5625680614115763  1.0000
  Pt  Pt1       1.0  0.2150403600000001  0.18937604999999996  0.5067107183862322  1.0000
  Pt  Pt2       1.0  0.40160471000000003  0.41656593000000003  0.5251001051989629  1.0000
  Pt  Pt3       1.0  0.020833330000000042  0.9684881600000002  0.4899067855788217  1.0000
  Pt  Pt4       1.0  0.06099393000000007  0.79161549  0.5167790691759068  1.0000
  Pt  Pt5       1.0  0.25159216  0.03151183999999995  0.531538334304187  1.0000
  Pt  Pt6       1.0  0.36805556000000017  0.57959927  0.4986525939353032  1.0000
  Pt  Pt7       1.0  0.13194445000000007  0.52404372  0.4549235553013866  1.0000
  Pt  Pt8       1.0  0.3263888900000001  0.7462659399999999  0.47241516886585877  1.0000
  Pt  Pt9       1.0  0.43750000000000006  0.30182149999999996  0.4374319385884237  1.0000
  Pt  Pt10      1.0  0.47916666999999996  0.13515482999999995  0.4636693636578681  1.0000
  Pt  Pt11      1.0  0.17361111000000007  0.35737705000000003  0.4811609772223403  1.0000
  Pt  Pt12      1.0  0.28472222  0.91293261  0.4461777469449052  1.0000
  Pt  Pt13      1.0  0.7152737600000001  0.18325799999999992  0.50767308607085  1.0000
  Pt  Pt14      1.0  0.9111203600000001  0.41237461  0.5249422115360173  1.0000
  Pt  Pt15      1.0  0.52083333  0.9684881600000002  0.4899067855788217  1.0000
  Pt  Pt16      1.0  0.5665783900000001  0.78903099  0.5170231653672732  1.0000
  Pt  Pt17      1.0  0.7463045000000001  0.05385526999999995  0.532977509428962  1.0000
  Pt  Pt18      1.0  0.8680555600000001  0.57959927  0.4986525939353032  1.0000
  Pt  Pt19      1.0  0.63194445  0.52404372  0.4549235553013866  1.0000
  Pt  Pt20      1.0  0.8263888899999998  0.7462659399999999  0.47241516886585877  1.0000
  Pt  Pt21      1.0  0.9375  0.30182149999999996  0.4374319385884237  1.0000
  Pt  Pt22      1.0  0.97916667  0.13515482999999995  0.4636693636578681  1.0000
  Pt  Pt23      1.0  0.67361111  0.35737705000000003  0.4811609772223403  1.0000
  Pt  Pt24      1.0  0.7847222199999999  0.91293261  0.4461777469449052  1.0000
