data_image0
_chemical_formula_structural       COTa16
_chemical_formula_sum              "C1 O1 Ta16"
_cell_length_a       5.75346346
_cell_length_b       4.69768325
_cell_length_c       102.54650425
_cell_angle_alpha    90.0
_cell_angle_beta     90.0
_cell_angle_gamma    90.0

_space_group_name_H-M_alt    "P 1"
_space_group_IT_number       1

loop_
  _space_group_symop_operation_xyz
  'x, y, z'

loop_
  _atom_site_type_symbol
  _atom_site_label
  _atom_site_symmetry_multiplicity
  _atom_site_fract_x
  _atom_site_fract_y
  _atom_site_fract_z
  _atom_site_occupancy
  C   C1        1.0  0.23467389000000005  0.749999435  0.5503425288172615  1.0000
  O   O1        1.0  0.24735652  0.7499999650000001  0.5617645957321874  1.0000
  Ta  Ta1       1.0  0.41994415  0.749999675  0.4779082635330274  1.0000
  Ta  Ta2       1.0  0.41994415  0.24999967500000003  0.4382354042678126  1.0000
  Ta  Ta3       1.0  0.25327749000000005  0.749999675  0.45145968857366503  1.0000
  Ta  Ta4       1.0  0.08661082000000002  0.24999967500000003  0.4646839760533462  1.0000
  Ta  Ta5       1.0  0.22172734000000005  0.749996345  0.5293659646859467  1.0000
  Ta  Ta6       1.0  0.25327749000000005  0.24999967500000003  0.4911325478388798  1.0000
  Ta  Ta7       1.0  0.07528799  0.7499993250000001  0.5037379894952835  1.0000
  Ta  Ta8       1.0  0.4318213600000001  0.24999876500000004  0.5182113245807557  1.0000
  Ta  Ta9       1.0  0.9199441500000001  0.749999675  0.4779082635330274  1.0000
  Ta  Ta10      1.0  0.9199441500000001  0.24999967500000003  0.4382354042678126  1.0000
  Ta  Ta11      1.0  0.75327749  0.749999675  0.45145968857366503  1.0000
  Ta  Ta12      1.0  0.58661082  0.24999967500000003  0.4646839760533462  1.0000
  Ta  Ta13      1.0  0.71880981  0.7500012349999999  0.5303236706824377  1.0000
  Ta  Ta14      1.0  0.75327749  0.24999967500000003  0.4911325478388798  1.0000
  Ta  Ta15      1.0  0.5782698600000001  0.749999275  0.5048044467335923  1.0000
  Ta  Ta16      1.0  0.92471201  0.250009805  0.5179821043214076  1.0000
