data_image0
_chemical_formula_structural       COPt16
_chemical_formula_sum              "C1 O1 Pt16"
_cell_length_a       5.64251256
_cell_length_b       5.64251256
_cell_length_c       101.91887113
_cell_angle_alpha    90.0
_cell_angle_beta     90.0
_cell_angle_gamma    90.0

_space_group_name_H-M_alt    "P 1"
_space_group_IT_number       1

loop_
  _space_group_symop_operation_xyz
  'x, y, z'

loop_
  _atom_site_type_symbol
  _atom_site_label
  _atom_site_symmetry_multiplicity
  _atom_site_fract_x
  _atom_site_fract_y
  _atom_site_fract_z
  _atom_site_occupancy
  C   C1        1.0  0.37499998000000007  0.37500001  0.5337565813021812  1.0000
  O   O1        1.0  0.37499995  0.37500012000000005  0.5451858184064804  1.0000
  Pt  Pt1       1.0  0.62155134  0.12844845  0.49377886732271997  1.0000
  Pt  Pt2       1.0  0.37500004  0.37499995  0.5156525870997695  1.0000
  Pt  Pt3       1.0  0.625  0.125  0.4548141815935195  1.0000
  Pt  Pt4       1.0  0.375  0.375  0.4743878819642822  1.0000
  Pt  Pt5       1.0  0.62155134  0.62155152  0.4937788516637597  1.0000
  Pt  Pt6       1.0  0.37500003000000004  0.87499994  0.5124570286223276  1.0000
  Pt  Pt7       1.0  0.625  0.625  0.4548141815935195  1.0000
  Pt  Pt8       1.0  0.375  0.875  0.4743878819642822  1.0000
  Pt  Pt9       1.0  0.1284487  0.12844845  0.49377886419092787  1.0000
  Pt  Pt10      1.0  0.8749999800000001  0.37500003000000004  0.5124570254905355  1.0000
  Pt  Pt11      1.0  0.125  0.125  0.4548141815935195  1.0000
  Pt  Pt12      1.0  0.875  0.375  0.4743878819642822  1.0000
  Pt  Pt13      1.0  0.12844865  0.62155157  0.49377886419092787  1.0000
  Pt  Pt14      1.0  0.8749999800000001  0.87499994  0.5127677462397011  1.0000
  Pt  Pt15      1.0  0.125  0.625  0.4548141815935195  1.0000
  Pt  Pt16      1.0  0.875  0.875  0.4743878819642822  1.0000
