data_image0
_chemical_formula_structural       COTa12
_chemical_formula_sum              "C1 O1 Ta12"
_cell_length_a       4.69768325
_cell_length_b       4.6976832445272425
_cell_length_c       104.52078079
_cell_angle_alpha    90.0
_cell_angle_beta     90.0
_cell_angle_gamma    119.99999996812048

_space_group_name_H-M_alt    "P 1"
_space_group_IT_number       1

loop_
  _space_group_symop_operation_xyz
  'x, y, z'

loop_
  _atom_site_type_symbol
  _atom_site_label
  _atom_site_symmetry_multiplicity
  _atom_site_fract_x
  _atom_site_fract_y
  _atom_site_fract_z
  _atom_site_occupancy
  C   C1        1.0  0.833333655  0.500001425  0.5542574882185093  1.0000
  O   O1        1.0  0.8333328449999999  0.500001885  0.5653991091911439  1.0000
  Ta  Ta1       1.0  0.16666637499999995  0.16666658499999998  0.5263339818951943  1.0000
  Ta  Ta2       1.0  0.499999675  0.833333415  0.48964701213116957  1.0000
  Ta  Ta3       1.0  0.8333329349999999  0.499999995  0.5069605241035686  1.0000
  Ta  Ta4       1.0  0.16666634499999994  0.16666674499999998  0.4988213662353496  1.0000
  Ta  Ta5       1.0  0.49999963499999994  0.833333345  0.5183561113610687  1.0000
  Ta  Ta6       1.0  0.8333329849999999  0.499999985  0.5331715192046583  1.0000
  Ta  Ta7       1.0  0.16666634499999994  0.16666674499999998  0.47129830392280925  1.0000
  Ta  Ta8       1.0  0.499999675  0.833333415  0.43460089080885606  1.0000
  Ta  Ta9       1.0  0.8333330149999999  0.500000075  0.45294959901721626  1.0000
  Ta  Ta10      1.0  0.16666634499999994  0.16666674499999998  0.44377524491303616  1.0000
  Ta  Ta11      1.0  0.499999675  0.833333415  0.46212395312139637  1.0000
  Ta  Ta12      1.0  0.8333330149999999  0.500000075  0.4804726580269894  1.0000
