data_image0
_chemical_formula_structural       COTa24
_chemical_formula_sum              "C1 O1 Ta24"
_cell_length_a       6.64352736
_cell_length_b       6.64352736
_cell_length_c       103.21763680000001
_cell_angle_alpha    90.0
_cell_angle_beta     90.0
_cell_angle_gamma    90.0

_space_group_name_H-M_alt    "P 1"
_space_group_IT_number       1

loop_
  _space_group_symop_operation_xyz
  'x, y, z'

loop_
  _atom_site_type_symbol
  _atom_site_label
  _atom_site_symmetry_multiplicity
  _atom_site_fract_x
  _atom_site_fract_y
  _atom_site_fract_z
  _atom_site_occupancy
  C   C1        1.0  0.62290219  0.6250008500000002  0.5417785758940111  1.0000
  O   O1        1.0  0.62291949  0.6250004600000001  0.5534573398883531  1.0000
  Ta  Ta1       1.0  0.12291279999999999  0.37615563999999996  0.5109901580745685  1.0000
  Ta  Ta2       1.0  0.3687376  0.12500013000000001  0.5245625284090656  1.0000
  Ta  Ta3       1.0  0.12291243999999998  0.37500056000000004  0.47872479276826274  1.0000
  Ta  Ta4       1.0  0.37291244  0.12500056  0.4948158590965707  1.0000
  Ta  Ta5       1.0  0.12291243999999998  0.37500056000000004  0.4465426601116469  1.0000
  Ta  Ta6       1.0  0.37291244  0.12500056  0.4626337264399549  1.0000
  Ta  Ta7       1.0  0.12291207999999998  0.87384525  0.5109901258924359  1.0000
  Ta  Ta8       1.0  0.38067922  0.6250006300000002  0.5260855832373859  1.0000
  Ta  Ta9       1.0  0.12291243999999998  0.87500056  0.47872479276826274  1.0000
  Ta  Ta10      1.0  0.37291244  0.62500056  0.4948158590965707  1.0000
  Ta  Ta11      1.0  0.12291243999999998  0.87500056  0.4465426601116469  1.0000
  Ta  Ta12      1.0  0.37291244  0.62500056  0.4626337264399549  1.0000
  Ta  Ta13      1.0  0.62291189  0.37654725000000006  0.5108136487315869  1.0000
  Ta  Ta14      1.0  0.87708792  0.12499944000000002  0.52456248335408  1.0000
  Ta  Ta15      1.0  0.62291244  0.37500056000000004  0.47872479276826274  1.0000
  Ta  Ta16      1.0  0.87291244  0.12500056  0.4948158590965707  1.0000
  Ta  Ta17      1.0  0.62291244  0.37500056000000004  0.4465426601116469  1.0000
  Ta  Ta18      1.0  0.87291244  0.12500056  0.4626337264399549  1.0000
  Ta  Ta19      1.0  0.6229127  0.8734537500000001  0.5108136616044399  1.0000
  Ta  Ta20      1.0  0.86514703  0.6250011  0.5260854577270685  1.0000
  Ta  Ta21      1.0  0.62291244  0.87500056  0.47872479276826274  1.0000
  Ta  Ta22      1.0  0.87291244  0.62500056  0.4948158590965707  1.0000
  Ta  Ta23      1.0  0.62291244  0.87500056  0.4465426601116469  1.0000
  Ta  Ta24      1.0  0.87291244  0.62500056  0.4626337264399549  1.0000
