data_image0
_chemical_formula_structural       COMn58
_chemical_formula_sum              "C1 O1 Mn58"
_cell_length_a       7.44569368
_cell_length_b       7.445693676669115
_cell_length_c       106.47630059
_cell_angle_alpha    90.0
_cell_angle_beta     90.0
_cell_angle_gamma    70.52877938365363

_space_group_name_H-M_alt    "P 1"
_space_group_IT_number       1

loop_
  _space_group_symop_operation_xyz
  'x, y, z'

loop_
  _atom_site_type_symbol
  _atom_site_label
  _atom_site_symmetry_multiplicity
  _atom_site_fract_x
  _atom_site_fract_y
  _atom_site_fract_z
  _atom_site_occupancy
  C   C1        1.0  0.67024038  0.9658498200000001  0.5511057081380977  1.0000
  O   O1        1.0  0.63610742  0.9994974400000001  0.562168112990758  1.0000
  Mn  Mn1       1.0  0.18734902000000003  0.4484627600000001  0.46019483891348045  1.0000
  Mn  Mn2       1.0  0.69095257  0.9449247600000001  0.5180755547236653  1.0000
  Mn  Mn3       1.0  0.5107517200000001  0.12527202000000004  0.53603298043382  1.0000
  Mn  Mn4       1.0  0.006135650000000002  0.6296761300000001  0.4808879965735857  1.0000
  Mn  Mn5       1.0  0.006135650000000002  0.6296761300000001  0.43950167782760813  1.0000
  Mn  Mn6       1.0  0.5061356499999999  0.12967613000000006  0.4965977970538362  1.0000
  Mn  Mn7       1.0  0.04877232000000004  0.9555319600000002  0.5174147139756562  1.0000
  Mn  Mn8       1.0  0.54977576  0.4484627600000001  0.46019483891348045  1.0000
  Mn  Mn9       1.0  0.68042358  0.5871184200000001  0.5174169441500286  1.0000
  Mn  Mn10      1.0  0.18734902000000003  0.08603602000000005  0.46019483891348045  1.0000
  Mn  Mn11      1.0  0.38318503000000004  0.9318912200000001  0.4378318870092419  1.0000
  Mn  Mn12      1.0  0.88318503  0.4318912200000001  0.4949280028097029  1.0000
  Mn  Mn13      1.0  0.2013203  0.7395238000000001  0.537750930685868  1.0000
  Mn  Mn14      1.0  0.70392056  0.25262675000000007  0.482557790817719  1.0000
  Mn  Mn15      1.0  0.13530922000000004  0.10883053000000005  0.4989782015901902  1.0000
  Mn  Mn16      1.0  0.6353092200000001  0.6088305300000001  0.4418820823639622  1.0000
  Mn  Mn17      1.0  0.007283560000000038  0.3451809000000001  0.516952704749264  1.0000
  Mn  Mn18      1.0  0.50808455  0.8401347900000001  0.46019483891348045  1.0000
  Mn  Mn19      1.0  0.7228172700000001  0.9129945100000001  0.4437744247152421  1.0000
  Mn  Mn20      1.0  0.22281727000000004  0.4129945100000001  0.5008705439414702  1.0000
  Mn  Mn21      1.0  0.13256677000000008  0.11248061000000005  0.5348825187767132  1.0000
  Mn  Mn22      1.0  0.6353092200000001  0.6088305300000001  0.4785075920372316  1.0000
  Mn  Mn23      1.0  0.52698125  0.5005025600000002  0.4989782015901902  1.0000
  Mn  Mn24      1.0  0.02698125000000006  0.0005025600000000464  0.4418820823639622  1.0000
  Mn  Mn25      1.0  0.896281  0.4345527300000001  0.5377474089973046  1.0000
  Mn  Mn26      1.0  0.38318503000000004  0.9318912200000001  0.482557790817719  1.0000
  Mn  Mn27      1.0  0.29067698000000003  0.6286235800000001  0.516953150098985  1.0000
  Mn  Mn28      1.0  0.7956769900000001  0.12772723000000005  0.46019483891348045  1.0000
  Mn  Mn29      1.0  0.23856016000000008  0.3972702400000001  0.5329183929019329  1.0000
  Mn  Mn30      1.0  0.7228172700000001  0.9129945100000001  0.47661524968595165  1.0000
  Mn  Mn31      1.0  0.70392056  0.25262675000000007  0.4378318870092419  1.0000
  Mn  Mn32      1.0  0.2039205600000001  0.75262675  0.4949280028097029  1.0000
  Mn  Mn33      1.0  0.5233200399999999  0.5033311300000001  0.5348840158369295  1.0000
  Mn  Mn34      1.0  0.02698125000000006  0.0005025600000000464  0.4785075920372316  1.0000
  Mn  Mn35      1.0  0.3731508100000001  0.45614564  0.43897771702924976  1.0000
  Mn  Mn36      1.0  0.8731508099999998  0.9561456400000002  0.4960738328297106  1.0000
  Mn  Mn37      1.0  0.17966614000000003  0.26266097000000005  0.4814119607977112  1.0000
  Mn  Mn38      1.0  0.6687782300000001  0.7622021700000001  0.5389416074227863  1.0000
  Mn  Mn39      1.0  0.40730376000000007  0.8525472300000001  0.5286543782945987  1.0000
  Mn  Mn40      1.0  0.91248777  0.35172043000000003  0.47124206076641983  1.0000
  Mn  Mn41      1.0  0.49335616000000004  0.32057506  0.5168863681954289  1.0000
  Mn  Mn42      1.0  0.99386435  0.8200663400000001  0.46019483891348045  1.0000
  Mn  Mn43      1.0  0.9607732399999999  0.6751209900000001  0.5280135131944628  1.0000
  Mn  Mn44      1.0  0.4698931400000001  0.16591864000000003  0.47036473551900476  1.0000
  Mn  Mn45      1.0  0.41248777  0.8517204300000001  0.506243732861002  1.0000
  Mn  Mn46      1.0  0.91248777  0.35172043000000003  0.44914761363477396  1.0000
  Mn  Mn47      1.0  0.78337256  0.22858283000000004  0.5286533916736782  1.0000
  Mn  Mn48      1.0  0.28409135  0.7233240100000001  0.47124206076641983  1.0000
  Mn  Mn49      1.0  0.3731508100000001  0.45614564  0.4814119607977112  1.0000
  Mn  Mn50      1.0  0.87374682  0.9671523900000002  0.538950096473623  1.0000
  Mn  Mn51      1.0  0.3153887200000001  0.14253037000000005  0.5168846518861193  1.0000
  Mn  Mn52      1.0  0.8157454399999999  0.6419474300000001  0.46019483891348045  1.0000
  Mn  Mn53      1.0  0.4698931400000001  0.16591864000000003  0.4500249388821891  1.0000
  Mn  Mn54      1.0  0.9698931400000002  0.6659186400000001  0.5071210581084171  1.0000
  Mn  Mn55      1.0  0.17966614000000003  0.26266097000000005  0.43897771702924976  1.0000
  Mn  Mn56      1.0  0.67966614  0.7626609700000001  0.4960738328297106  1.0000
  Mn  Mn57      1.0  0.78409135  0.22332401000000007  0.506243732861002  1.0000
  Mn  Mn58      1.0  0.28409135  0.7233240100000001  0.44914761363477396  1.0000
