data_image0
_chemical_formula_structural       COCd24
_chemical_formula_sum              "C1 O1 Cd24"
_cell_length_a       5.31295531
_cell_length_b       12.50152681638916
_cell_length_c       100.67436179
_cell_angle_alpha    97.04694050615186
_cell_angle_beta     90.0
_cell_angle_gamma    102.2684450368545

_space_group_name_H-M_alt    "P 1"
_space_group_IT_number       1

loop_
  _space_group_symop_operation_xyz
  'x, y, z'

loop_
  _atom_site_type_symbol
  _atom_site_label
  _atom_site_symmetry_multiplicity
  _atom_site_fract_x
  _atom_site_fract_y
  _atom_site_fract_z
  _atom_site_occupancy
  C   C1        1.0  0.6167028649999998  0.6717531700000001  0.5518540279324352  1.0000
  O   O1        1.0  0.6866865249999998  0.6314626999999999  0.5604221665538073  1.0000
  Cd  Cd1       1.0  0.31624303499999995  0.37181420000000004  0.5068686569939177  1.0000
  Cd  Cd2       1.0  0.603422705  0.8881578800000001  0.514432946196612  1.0000
  Cd  Cd3       1.0  0.08244881499999997  0.8690603200000001  0.5278092281984883  1.0000
  Cd  Cd4       1.0  0.7885682149999999  0.34355413  0.5200224368707002  1.0000
  Cd  Cd5       1.0  0.9175511850000001  0.12501794000000002  0.5038854021502799  1.0000
  Cd  Cd6       1.0  0.19444907499999994  0.6459495700000001  0.5111943803258039  1.0000
  Cd  Cd7       1.0  0.6749933449999999  0.58707756  0.5226125881734704  1.0000
  Cd  Cd8       1.0  0.4175541849999999  0.11184212000000004  0.5187079662466026  1.0000
  Cd  Cd9       1.0  0.356394565  0.37628425000000004  0.47385533607961655  1.0000
  Cd  Cd10      1.0  0.6063945649999999  0.8762842500000001  0.4814725588870441  1.0000
  Cd  Cd11      1.0  0.10639456499999994  0.8762842500000001  0.4967070045018992  1.0000
  Cd  Cd12      1.0  0.8563945649999998  0.37628425000000004  0.4890897816944717  1.0000
  Cd  Cd13      1.0  0.8980612249999997  0.12628425000000004  0.47004672467590275  1.0000
  Cd  Cd14      1.0  0.14806122499999996  0.6262842500000001  0.4776639474833304  1.0000
  Cd  Cd15      1.0  0.6480612249999999  0.6262842500000001  0.49289839309818545  1.0000
  Cd  Cd16      1.0  0.39806122499999996  0.12628425000000004  0.48528117029075785  1.0000
  Cd  Cd17      1.0  0.356394565  0.37628425000000004  0.4433864448499064  1.0000
  Cd  Cd18      1.0  0.6063945649999999  0.8762842500000001  0.4510036676573339  1.0000
  Cd  Cd19      1.0  0.10639456499999994  0.8762842500000001  0.46623811327218895  1.0000
  Cd  Cd20      1.0  0.8563945649999998  0.37628425000000004  0.4586208904647615  1.0000
  Cd  Cd21      1.0  0.8980612249999997  0.12628425000000004  0.4395778334461926  1.0000
  Cd  Cd22      1.0  0.14806122499999996  0.6262842500000001  0.44719505625362016  1.0000
  Cd  Cd23      1.0  0.6480612249999999  0.6262842500000001  0.4624295018684753  1.0000
  Cd  Cd24      1.0  0.39806122499999996  0.12628425000000004  0.4548122790610477  1.0000
