data_image0
_chemical_formula_structural       COTc36
_chemical_formula_sum              "C1 O1 Tc36"
_cell_length_a       8.82162576
_cell_length_b       7.286778358251133
_cell_length_c       100.29557675
_cell_angle_alpha    79.10660535932249
_cell_angle_beta     90.0
_cell_angle_gamma    90.0

_space_group_name_H-M_alt    "P 1"
_space_group_IT_number       1

loop_
  _space_group_symop_operation_xyz
  'x, y, z'

loop_
  _atom_site_type_symbol
  _atom_site_label
  _atom_site_symmetry_multiplicity
  _atom_site_fract_x
  _atom_site_fract_y
  _atom_site_fract_z
  _atom_site_occupancy
  C   C1        1.0  0.210080435  0.44597337  0.538909122962624  1.0000
  O   O1        1.0  0.24829331500000007  0.44605399000000007  0.550276458210059  1.0000
  Tc  Tc1       1.0  0.38879387500000007  0.5555555600000001  0.44972354178994106  1.0000
  Tc  Tc2       1.0  0.38879387500000007  0.22222222  0.46803038643595984  1.0000
  Tc  Tc3       1.0  0.38879387500000007  0.88888889  0.45887696411295054  1.0000
  Tc  Tc4       1.0  0.13879387500000004  0.7777777800000001  0.4741326679846328  1.0000
  Tc  Tc5       1.0  0.13879387500000004  0.44444444  0.46497924566162335  1.0000
  Tc  Tc6       1.0  0.13879387500000004  0.11111111  0.45582582333861393  1.0000
  Tc  Tc7       1.0  0.38879387500000007  0.5555555600000001  0.47718380875896926  1.0000
  Tc  Tc8       1.0  0.38879387500000007  0.22222222  0.49549065340498805  1.0000
  Tc  Tc9       1.0  0.38879387500000007  0.88888889  0.4863372310819786  1.0000
  Tc  Tc10      1.0  0.14867638500000002  0.7761241600000001  0.5016189667378026  1.0000
  Tc  Tc11      1.0  0.13879387500000004  0.44444444  0.49243951263065155  1.0000
  Tc  Tc12      1.0  0.13879387500000004  0.11111111  0.4832860903076422  1.0000
  Tc  Tc13      1.0  0.3878081750000001  0.5519085  0.504481224535328  1.0000
  Tc  Tc14      1.0  0.39024739500000005  0.23815715000000004  0.5214079103830256  1.0000
  Tc  Tc15      1.0  0.40583218500000007  0.8861195100000001  0.5149796515717383  1.0000
  Tc  Tc16      1.0  0.11120612500000003  0.7923892000000001  0.5255244694344248  1.0000
  Tc  Tc17      1.0  0.14145628500000001  0.44688366000000007  0.5204682982997102  1.0000
  Tc  Tc18      1.0  0.14822200500000002  0.11831257000000002  0.5114940717950366  1.0000
  Tc  Tc19      1.0  0.888793875  0.5555555600000001  0.44972354178994106  1.0000
  Tc  Tc20      1.0  0.888793875  0.22222222  0.46803038643595984  1.0000
  Tc  Tc21      1.0  0.888793875  0.88888889  0.45887696411295054  1.0000
  Tc  Tc22      1.0  0.6387938750000001  0.7777777800000001  0.4741326679846328  1.0000
  Tc  Tc23      1.0  0.6387938750000001  0.44444444  0.46497924566162335  1.0000
  Tc  Tc24      1.0  0.6387938750000001  0.11111111  0.45582582333861393  1.0000
  Tc  Tc25      1.0  0.888793875  0.5555555600000001  0.47718380875896926  1.0000
  Tc  Tc26      1.0  0.888793875  0.22222222  0.49549065340498805  1.0000
  Tc  Tc27      1.0  0.888793875  0.88888889  0.4863372310819786  1.0000
  Tc  Tc28      1.0  0.6368249250000001  0.77762962  0.500829791060336  1.0000
  Tc  Tc29      1.0  0.6387938750000001  0.44444444  0.49243951263065155  1.0000
  Tc  Tc30      1.0  0.6387938750000001  0.11111111  0.4832860903076422  1.0000
  Tc  Tc31      1.0  0.8857192650000001  0.55239698  0.5047023738753558  1.0000
  Tc  Tc32      1.0  0.884621395  0.23677424  0.5210170620834855  1.0000
  Tc  Tc33      1.0  0.8746773950000001  0.8835476700000001  0.514787754006789  1.0000
  Tc  Tc34      1.0  0.634908735  0.7598108000000001  0.5266789841961754  1.0000
  Tc  Tc35      1.0  0.643721405  0.44635050000000004  0.5190230630616646  1.0000
  Tc  Tc36      1.0  0.6383659349999999  0.11659095  0.5104332932047273  1.0000
