data_image0
_chemical_formula_structural       COOs12
_chemical_formula_sum              "C1 O1 Os12"
_cell_length_a       4.7932242
_cell_length_b       5.1512237856314895
_cell_length_c       100.44106209
_cell_angle_alpha    105.58173698445817
_cell_angle_beta     90.0
_cell_angle_gamma    62.273531417178575

_space_group_name_H-M_alt    "P 1"
_space_group_IT_number       1

loop_
  _space_group_symop_operation_xyz
  'x, y, z'

loop_
  _atom_site_type_symbol
  _atom_site_label
  _atom_site_symmetry_multiplicity
  _atom_site_fract_x
  _atom_site_fract_y
  _atom_site_fract_z
  _atom_site_occupancy
  C   C1        1.0  0.49110219999999993  0.343171555  0.5410860964725246  1.0000
  O   O1        1.0  0.46595743999999995  0.399408465  0.5532844199612058  1.0000
  Os  Os1       1.0  0.04095466999999993  0.24651529500000002  0.45360362186959713  1.0000
  Os  Os2       1.0  0.54095467  0.24651529500000002  0.4673797085619418  1.0000
  Os  Os3       1.0  0.4576213299999998  0.746515295  0.46049166673113884  1.0000
  Os  Os4       1.0  0.9576213299999999  0.746515295  0.4467155800387942  1.0000
  Os  Os5       1.0  0.04095466999999993  0.24651529500000002  0.48115579222354765  1.0000
  Os  Os6       1.0  0.5390949599999998  0.24569379499999996  0.4941429957986912  1.0000
  Os  Os7       1.0  0.4576213299999998  0.746515295  0.48804383708508936  1.0000
  Os  Os8       1.0  0.9576213299999999  0.746515295  0.4742677503927447  1.0000
  Os  Os9       1.0  0.04668519999999994  0.24651342500000004  0.5084252431421481  1.0000
  Os  Os10      1.0  0.5331986799999999  0.246332695  0.5211134613069672  1.0000
  Os  Os11      1.0  0.4661464999999999  0.738434965  0.5146416399235606  1.0000
  Os  Os12      1.0  0.9590453299999999  0.754306205  0.5021691891439402  1.0000
