data_image0
_chemical_formula_structural       COTc20
_chemical_formula_sum              "C1 O1 Tc20"
_cell_length_a       4.770316200343797
_cell_length_b       5.200055367490773
_cell_length_c       108.98208214
_cell_angle_alpha    103.83230798945833
_cell_angle_beta     111.53786708339702
_cell_angle_gamma    90.0000000233503

_space_group_name_H-M_alt    "P 1"
_space_group_IT_number       1

loop_
  _space_group_symop_operation_xyz
  'x, y, z'

loop_
  _atom_site_type_symbol
  _atom_site_label
  _atom_site_symmetry_multiplicity
  _atom_site_fract_x
  _atom_site_fract_y
  _atom_site_fract_z
  _atom_site_occupancy
  C   C1        1.0  0.35535273999999994  0.71505186  0.5559773971999419  1.0000
  O   O1        1.0  0.35408149  0.60979315  0.5647869576770599  1.0000
  Tc  Tc1       1.0  0.41666667  0.75  0.44713612713233564  1.0000
  Tc  Tc2       1.0  0.016666669999999998  0.95  0.45905921551865697  1.0000
  Tc  Tc3       1.0  0.21666667000000003  0.35  0.48290538513744796  1.0000
  Tc  Tc4       1.0  0.81666667  0.55  0.43521304232294017  1.0000
  Tc  Tc5       1.0  0.61666667  0.15000000000000002  0.4709823003280525  1.0000
  Tc  Tc6       1.0  0.38333332999999997  0.8499999999999999  0.48290538513744796  1.0000
  Tc  Tc7       1.0  0.9833333299999999  0.05000000000000001  0.43521304232294017  1.0000
  Tc  Tc8       1.0  0.18333333  0.45000000000000007  0.45905921551865697  1.0000
  Tc  Tc9       1.0  0.78333333  0.65  0.47098230032805244  1.0000
  Tc  Tc10      1.0  0.58333333  0.25  0.4471361271323356  1.0000
  Tc  Tc11      1.0  0.41666667  0.75  0.5067515583331648  1.0000
  Tc  Tc12      1.0  0.016926349999999993  0.9447155799999999  0.5181560246707441  1.0000
  Tc  Tc13      1.0  0.17923522  0.31706866999999994  0.5413726732332741  1.0000
  Tc  Tc14      1.0  0.81666667  0.55  0.4948284735237693  1.0000
  Tc  Tc15      1.0  0.6383817  0.18033437000000002  0.5304866572519983  1.0000
  Tc  Tc16      1.0  0.39241719  0.84385645  0.5412110784563844  1.0000
  Tc  Tc17      1.0  0.9833333299999999  0.05000000000000001  0.4948284735237693  1.0000
  Tc  Tc18      1.0  0.17757481  0.4437791  0.5193269241776899  1.0000
  Tc  Tc19      1.0  0.7717545899999999  0.6733006099999999  0.5301516459584482  1.0000
  Tc  Tc20      1.0  0.58333333  0.25  0.5067515583331647  1.0000
