data_image0
_chemical_formula_structural       COCa6
_chemical_formula_sum              "C1 O1 Ca6"
_cell_length_a       5.61820773
_cell_length_b       6.8808711049549105
_cell_length_c       100.25497454
_cell_angle_alpha    94.34775313230806
_cell_angle_beta     90.0
_cell_angle_gamma    114.09484250194173

_space_group_name_H-M_alt    "P 1"
_space_group_IT_number       1

loop_
  _space_group_symop_operation_xyz
  'x, y, z'

loop_
  _atom_site_type_symbol
  _atom_site_label
  _atom_site_symmetry_multiplicity
  _atom_site_fract_x
  _atom_site_fract_y
  _atom_site_fract_z
  _atom_site_occupancy
  C   C1        1.0  0.13404959499999994  0.17713101499999998  0.5349960922983357  1.0000
  O   O1        1.0  0.14127236499999993  0.190104725  0.5466908719278517  1.0000
  Ca  Ca1       1.0  0.2071092149999999  0.322521605  0.49017060879517504  1.0000
  Ca  Ca2       1.0  0.795949375  0.5000000050000001  0.4658833075161181  1.0000
  Ca  Ca3       1.0  0.6221546249999999  0.151839465  0.5157440916026961  1.0000
  Ca  Ca4       1.0  0.504282715  0.916666665  0.47845748696008783  1.0000
  Ca  Ca5       1.0  0.08761604499999992  0.083333335  0.45330912807214824  1.0000
  Ca  Ca6       1.0  0.9123839550000001  0.733182415  0.5024076242185073  1.0000
