data_image0
_chemical_formula_structural       CONa16
_chemical_formula_sum              "C1 O1 Na16"
_cell_length_a       7.669324457876343
_cell_length_b       7.278446696738537
_cell_length_c       113.67068017
_cell_angle_alpha    63.58596925517368
_cell_angle_beta     105.27343840644089
_cell_angle_gamma    74.72656160659773

_space_group_name_H-M_alt    "P 1"
_space_group_IT_number       1

loop_
  _space_group_symop_operation_xyz
  'x, y, z'

loop_
  _atom_site_type_symbol
  _atom_site_label
  _atom_site_symmetry_multiplicity
  _atom_site_fract_x
  _atom_site_fract_y
  _atom_site_fract_z
  _atom_site_occupancy
  C   C1        1.0  0.14982335499999996  0.05955086499999998  0.5667578305813716  1.0000
  O   O1        1.0  0.161523885  0.015263734999999987  0.5781495745651272  1.0000
  Na  Na1       1.0  0.350176645  0.984736265  0.42185042543487306  1.0000
  Na  Na2       1.0  0.350176645  0.48473626499999994  0.4538659213964387  1.0000
  Na  Na3       1.0  0.18350998499999993  0.06806960499999999  0.4485300047625345  1.0000
  Na  Na4       1.0  0.18350998499999996  0.568069605  0.48054550456595996  1.0000
  Na  Na5       1.0  0.350176645  0.984736265  0.48588141735800455  1.0000
  Na  Na6       1.0  0.350176645  0.48473626499999994  0.5178969171614299  1.0000
  Na  Na7       1.0  0.18350998499999993  0.06806960499999999  0.5125610005275256  1.0000
  Na  Na8       1.0  0.17059906500000005  0.5871201749999999  0.5431753894770828  1.0000
  Na  Na9       1.0  0.850176645  0.984736265  0.421850425434873  1.0000
  Na  Na10      1.0  0.850176645  0.48473626499999994  0.4538659213964387  1.0000
  Na  Na11      1.0  0.6835099850000002  0.06806960499999999  0.4485300047625346  1.0000
  Na  Na12      1.0  0.683509985  0.568069605  0.48054550456595996  1.0000
  Na  Na13      1.0  0.850176645  0.984736265  0.48588141735800455  1.0000
  Na  Na14      1.0  0.850176645  0.48473626499999994  0.5178969171614299  1.0000
  Na  Na15      1.0  0.6835099850000002  0.06806960499999999  0.5125610005275257  1.0000
  Na  Na16      1.0  0.6702693050000001  0.594593425  0.5428578789847331  1.0000
