data_image0
_chemical_formula_structural       CONa12
_chemical_formula_sum              "C1 O1 Na12"
_cell_length_a       7.27844669628806
_cell_length_b       9.076621350537264
_cell_length_c       99.60465021
_cell_angle_alpha    93.4593771198836
_cell_angle_beta     88.4462017623559
_cell_angle_gamma    75.79258746993196

_space_group_name_H-M_alt    "P 1"
_space_group_IT_number       1

loop_
  _space_group_symop_operation_xyz
  'x, y, z'

loop_
  _atom_site_type_symbol
  _atom_site_label
  _atom_site_symmetry_multiplicity
  _atom_site_fract_x
  _atom_site_fract_y
  _atom_site_fract_z
  _atom_site_occupancy
  C   C1        1.0  0.28314076499999996  0.720444375  0.5370870232762684  1.0000
  O   O1        1.0  0.31818362499999997  0.6846795250000001  0.5478550545083173  1.0000
  Na  Na1       1.0  0.305251115  0.201272495  0.5128039558684657  1.0000
  Na  Na2       1.0  0.9209313549999999  0.529769175  0.5011580599329476  1.0000
  Na  Na3       1.0  0.563175305  0.862442455  0.48891489131423094  1.0000
  Na  Na4       1.0  0.8279943350000001  0.13890440499999995  0.5031753443187938  1.0000
  Na  Na5       1.0  0.45303760500000007  0.46960707500000004  0.49061231476638245  1.0000
  Na  Na6       1.0  0.210456525  0.804025315  0.5127264612893172  1.0000
  Na  Na7       1.0  0.18323531500000004  0.19311309499999996  0.47691341138488763  1.0000
  Na  Na8       1.0  0.808235315  0.526446435  0.4645291784382852  1.0000
  Na  Na9       1.0  0.4332353150000001  0.859779765  0.45214494549168266  1.0000
  Na  Na10      1.0  0.7040686450000001  0.13755754499999998  0.46659321577661106  1.0000
  Na  Na11      1.0  0.329068645  0.470890875  0.45420898580222424  1.0000
  Na  Na12      1.0  0.079068645  0.804224215  0.4789774487232135  1.0000
