data_image0
_chemical_formula_structural       COCa8
_chemical_formula_sum              "C1 O1 Ca8"
_cell_length_a       7.94534557
_cell_length_b       5.61820773
_cell_length_c       101.78138227
_cell_angle_alpha    90.0
_cell_angle_beta     90.0
_cell_angle_gamma    90.0

_space_group_name_H-M_alt    "P 1"
_space_group_IT_number       1

loop_
  _space_group_symop_operation_xyz
  'x, y, z'

loop_
  _atom_site_type_symbol
  _atom_site_label
  _atom_site_symmetry_multiplicity
  _atom_site_fract_x
  _atom_site_fract_y
  _atom_site_fract_z
  _atom_site_occupancy
  C   C1        1.0  0.37499990999999994  0.749999975  0.5354504279904235  1.0000
  O   O1        1.0  0.37499992  0.749999965  0.5468802354989929  1.0000
  Ca  Ca1       1.0  0.12505682999999998  0.25000001499999996  0.4910585819121352  1.0000
  Ca  Ca2       1.0  0.12499989999999998  0.25000000499999997  0.4531197645010071  1.0000
  Ca  Ca3       1.0  0.37499990999999994  0.749999995  0.5100785378793606  1.0000
  Ca  Ca4       1.0  0.3749999  0.750000005  0.4726354789428267  1.0000
  Ca  Ca5       1.0  0.6249431200000001  0.249999995  0.4910586318723641  1.0000
  Ca  Ca6       1.0  0.6249999  0.25000000499999997  0.4531197645010071  1.0000
  Ca  Ca7       1.0  0.8750001  0.749999995  0.5108474164356823  1.0000
  Ca  Ca8       1.0  0.8749998999999999  0.750000005  0.4726354789428267  1.0000
