data_image0
_chemical_formula_structural       CONa18
_chemical_formula_sum              "C1 O1 Na18"
_cell_length_a       10.145562625089273
_cell_length_b       7.278446698323352
_cell_length_c       104.51196007
_cell_angle_alpha    105.27343842240319
_cell_angle_beta     100.89339467508525
_cell_angle_gamma    113.46960210580617

_space_group_name_H-M_alt    "P 1"
_space_group_IT_number       1

loop_
  _space_group_symop_operation_xyz
  'x, y, z'

loop_
  _atom_site_type_symbol
  _atom_site_label
  _atom_site_symmetry_multiplicity
  _atom_site_fract_x
  _atom_site_fract_y
  _atom_site_fract_z
  _atom_site_occupancy
  C   C1        1.0  0.05327888000000002  0.19186921499999995  0.556670364352285  1.0000
  O   O1        1.0  0.10016379000000003  0.173403445  0.5670539403229037  1.0000
  Na  Na1       1.0  0.37356481999999996  0.826596555  0.5188117282766669  1.0000
  Na  Na2       1.0  0.69444444  0.816473145  0.5063283250003187  1.0000
  Na  Na3       1.0  0.03322214000000002  0.8110243649999999  0.5295004145007429  1.0000
  Na  Na4       1.0  0.96072845  0.296046575  0.5361480607807078  1.0000
  Na  Na5       1.0  0.30599917  0.31853813499999994  0.5257520751350762  1.0000
  Na  Na6       1.0  0.63997491  0.322845625  0.5140917159805724  1.0000
  Na  Na7       1.0  0.36111111  0.816473145  0.4818675709933118  1.0000
  Na  Na8       1.0  0.69444444  0.816473145  0.4696371923387075  1.0000
  Na  Na9       1.0  0.02777778  0.816473145  0.4940979463457142  1.0000
  Na  Na10      1.0  0.97222222  0.31647314499999996  0.5022515321154504  1.0000
  Na  Na11      1.0  0.30555556  0.31647314499999996  0.490021153460846  1.0000
  Na  Na12      1.0  0.6388888900000002  0.31647314499999996  0.4777907781084436  1.0000
  Na  Na13      1.0  0.36111111  0.816473145  0.4451764350294987  1.0000
  Na  Na14      1.0  0.69444444  0.816473145  0.4329460596770963  1.0000
  Na  Na15      1.0  0.02777778  0.816473145  0.457406813684103  1.0000
  Na  Na16      1.0  0.97222222  0.31647314499999996  0.4655603994538393  1.0000
  Na  Na17      1.0  0.30555556  0.31647314499999996  0.45333002079923485  1.0000
  Na  Na18      1.0  0.6388888900000002  0.31647314499999996  0.44109964214463054  1.0000
