data_image0
_chemical_formula_structural       COCa12
_chemical_formula_sum              "C1 O1 Ca12"
_cell_length_a       7.94534557
_cell_length_b       7.945345562766175
_cell_length_c       108.92408494
_cell_angle_alpha    90.0
_cell_angle_beta     90.0
_cell_angle_gamma    119.99999998848328

_space_group_name_H-M_alt    "P 1"
_space_group_IT_number       1

loop_
  _space_group_symop_operation_xyz
  'x, y, z'

loop_
  _atom_site_type_symbol
  _atom_site_label
  _atom_site_symmetry_multiplicity
  _atom_site_fract_x
  _atom_site_fract_y
  _atom_site_fract_z
  _atom_site_occupancy
  C   C1        1.0  0.5829878599999999  0.08334361000000003  0.5351397244506696  1.0000
  O   O1        1.0  0.5829934  0.08333704000000001  0.5458602418536226  1.0000
  Ca  Ca1       1.0  0.24966083999999988  0.41666823999999997  0.45413975814637736  1.0000
  Ca  Ca2       1.0  0.5829963999999999  0.08333176000000003  0.5118050496122581  1.0000
  Ca  Ca3       1.0  0.4163274999999999  0.25000158  0.4839189719634115  1.0000
  Ca  Ca4       1.0  0.24966083999999986  0.9166682399999999  0.45413975814637736  1.0000
  Ca  Ca5       1.0  0.58164072  0.58265352  0.5130448631558865  1.0000
  Ca  Ca6       1.0  0.4163274999999999  0.7500015800000001  0.4839189719634115  1.0000
  Ca  Ca7       1.0  0.7496608399999999  0.41666823999999997  0.45413975814637736  1.0000
  Ca  Ca8       1.0  0.08367554999999993  0.08468877000000002  0.5130449167584735  1.0000
  Ca  Ca9       1.0  0.9163275  0.25000158  0.4839189719634115  1.0000
  Ca  Ca10      1.0  0.74966084  0.9166682399999999  0.45413975814637736  1.0000
  Ca  Ca11      1.0  0.08367249999999994  0.58265603  0.5130449953756011  1.0000
  Ca  Ca12      1.0  0.9163275000000001  0.7500015800000001  0.4839189719634115  1.0000
