data_image0
_chemical_formula_structural       COSc18
_chemical_formula_sum              "C1 O1 Sc18"
_cell_length_a       5.24088939
_cell_length_b       8.886908351952695
_cell_length_c       103.58935633
_cell_angle_alpha    79.1066053243677
_cell_angle_beta     90.0
_cell_angle_gamma    90.0

_space_group_name_H-M_alt    "P 1"
_space_group_IT_number       1

loop_
  _space_group_symop_operation_xyz
  'x, y, z'

loop_
  _atom_site_type_symbol
  _atom_site_label
  _atom_site_symmetry_multiplicity
  _atom_site_fract_x
  _atom_site_fract_y
  _atom_site_fract_z
  _atom_site_occupancy
  C   C1        1.0  0.7499999899999998  0.76329537  0.5449003719848183  1.0000
  O   O1        1.0  0.75  0.70753577  0.5560870687424126  1.0000
  Sc  Sc1       1.0  0.25000000999999994  0.4729000099999999  0.528859342675062  1.0000
  Sc  Sc2       1.0  0.24999999999999994  0.78410371  0.5075127347247506  1.0000
  Sc  Sc3       1.0  0.24999998999999995  0.12525237999999997  0.5191625355724142  1.0000
  Sc  Sc4       1.0  0.7499999899999998  0.23506945  0.5325599762946674  1.0000
  Sc  Sc5       1.0  0.75000001  0.55596085  0.5113106480567663  1.0000
  Sc  Sc6       1.0  0.7499999899999998  0.87867711  0.5231179589644297  1.0000
  Sc  Sc7       1.0  0.24999999999999994  0.44444444  0.49795541559478607  1.0000
  Sc  Sc8       1.0  0.24999999999999994  0.77777778  0.47633842121139675  1.0000
  Sc  Sc9       1.0  0.24999999999999994  0.11111110999999999  0.4871469167818169  1.0000
  Sc  Sc10      1.0  0.75  0.22222221999999997  0.5015582474515928  1.0000
  Sc  Sc11      1.0  0.75  0.55555556  0.4799412530682035  1.0000
  Sc  Sc12      1.0  0.75  0.88888889  0.4907497518811727  1.0000
  Sc  Sc13      1.0  0.24999999999999994  0.44444444  0.4655299256409766  1.0000
  Sc  Sc14      1.0  0.24999999999999994  0.77777778  0.44391293125758735  1.0000
  Sc  Sc15      1.0  0.24999999999999994  0.11111110999999999  0.4547214268280075  1.0000
  Sc  Sc16      1.0  0.75  0.22222221999999997  0.4691327574977834  1.0000
  Sc  Sc17      1.0  0.75  0.55555556  0.4475157631143941  1.0000
  Sc  Sc18      1.0  0.75  0.88888889  0.4583242619273633  1.0000
