data_image0
_chemical_formula_structural       CONa16
_chemical_formula_sum              "C1 O1 Na16"
_cell_length_a       7.66932446
_cell_length_b       7.669324458072771
_cell_length_c       107.11820938
_cell_angle_alpha    90.0
_cell_angle_beta     90.0
_cell_angle_gamma    59.999999991687375

_space_group_name_H-M_alt    "P 1"
_space_group_IT_number       1

loop_
  _space_group_symop_operation_xyz
  'x, y, z'

loop_
  _atom_site_type_symbol
  _atom_site_label
  _atom_site_symmetry_multiplicity
  _atom_site_fract_x
  _atom_site_fract_y
  _atom_site_fract_z
  _atom_site_occupancy
  C   C1        1.0  0.5833333149999997  0.33333333000000004  0.5472670562626456  1.0000
  O   O1        1.0  0.5833333249999999  0.33333333000000004  0.5581764681700833  1.0000
  Na  Na1       1.0  0.41668005499999994  0.1666800700000001  0.5284541507730315  1.0000
  Na  Na2       1.0  0.08333331499999994  0.33333333000000004  0.4995762555688034  1.0000
  Na  Na3       1.0  0.41666665499999994  0.16666667000000004  0.4706998919667784  1.0000
  Na  Na4       1.0  0.08333331499999994  0.33333333000000004  0.4418235318299167  1.0000
  Na  Na5       1.0  0.41667998499999986  0.6666399  0.5284541542381948  1.0000
  Na  Na6       1.0  0.08333331499999999  0.8333333299999999  0.4995762555688034  1.0000
  Na  Na7       1.0  0.41666665499999994  0.66666667  0.4706998919667784  1.0000
  Na  Na8       1.0  0.08333331499999999  0.8333333299999999  0.4418235318299167  1.0000
  Na  Na9       1.0  0.9166398849999998  0.16668000000000005  0.5284541542381948  1.0000
  Na  Na10      1.0  0.5833333149999997  0.33333333000000004  0.4995762555688034  1.0000
  Na  Na11      1.0  0.916666655  0.16666667000000004  0.4706998919667784  1.0000
  Na  Na12      1.0  0.5833333149999997  0.33333333000000004  0.4418235318299167  1.0000
  Na  Na13      1.0  0.916666685  0.6666667099999999  0.5284527127302391  1.0000
  Na  Na14      1.0  0.5833333150000001  0.8333333299999999  0.4995762555688034  1.0000
  Na  Na15      1.0  0.916666655  0.66666667  0.4706998919667784  1.0000
  Na  Na16      1.0  0.5833333150000001  0.8333333299999999  0.4418235318299167  1.0000
