data_image0
_chemical_formula_structural       COBi48
_chemical_formula_sum              "C1 O1 Bi48"
_cell_length_a       8.0821601
_cell_length_b       24.690246021935984
_cell_length_c       102.66366117
_cell_angle_alpha    95.4222869788145
_cell_angle_beta     90.0
_cell_angle_gamma    80.57995457058654

_space_group_name_H-M_alt    "P 1"
_space_group_IT_number       1

loop_
  _space_group_symop_operation_xyz
  'x, y, z'

loop_
  _atom_site_type_symbol
  _atom_site_label
  _atom_site_symmetry_multiplicity
  _atom_site_fract_x
  _atom_site_fract_y
  _atom_site_fract_z
  _atom_site_occupancy
  C   C1        1.0  0.8854124150000002  0.579069345  0.5512708177688873  1.0000
  O   O1        1.0  0.8761625250000001  0.595826505  0.5620962590736335  1.0000
  Bi  Bi1       1.0  0.5739554350000002  0.533061885  0.477282735882411  1.0000
  Bi  Bi2       1.0  0.8239554350000002  0.033061885  0.46591981102474955  1.0000
  Bi  Bi3       1.0  0.32395543500000007  0.033061885  0.4431939644910453  1.0000
  Bi  Bi4       1.0  0.07395543500000018  0.533061885  0.45455688934870675  1.0000
  Bi  Bi5       1.0  0.6903476750000002  0.9669440850000001  0.44169138148504755  1.0000
  Bi  Bi6       1.0  0.9403476750000002  0.466944085  0.4757801528764131  1.0000
  Bi  Bi7       1.0  0.4403476750000001  0.466944085  0.453054306342709  1.0000
  Bi  Bi8       1.0  0.19034767500000008  0.9669440850000001  0.46441722801875174  1.0000
  Bi  Bi9       1.0  0.8239554350000002  0.699728545  0.4810703764410919  1.0000
  Bi  Bi10      1.0  0.07395543500000014  0.199728545  0.46970745158343047  1.0000
  Bi  Bi11      1.0  0.5739554350000002  0.199728545  0.4469816050497262  1.0000
  Bi  Bi12      1.0  0.3239554350000001  0.699728545  0.45834452990738767  1.0000
  Bi  Bi13      1.0  0.6903476750000002  0.633610755  0.4568419469013899  1.0000
  Bi  Bi14      1.0  0.9403476750000002  0.133610755  0.4454790220437285  1.0000
  Bi  Bi15      1.0  0.44034767500000016  0.133610755  0.4682048685774327  1.0000
  Bi  Bi16      1.0  0.19034767500000008  0.633610755  0.47956779343509404  1.0000
  Bi  Bi17      1.0  0.5739554350000002  0.866395215  0.4621321704660686  1.0000
  Bi  Bi18      1.0  0.8239554350000002  0.366395215  0.4507692456084072  1.0000
  Bi  Bi19      1.0  0.32395543500000007  0.366395215  0.47349509532372996  1.0000
  Bi  Bi20      1.0  0.07395543500000007  0.866395215  0.43940632393236445  1.0000
  Bi  Bi21      1.0  0.440347675  0.8002774250000002  0.4379037409263665  1.0000
  Bi  Bi22      1.0  0.690347675  0.300277425  0.4719925123177322  1.0000
  Bi  Bi23      1.0  0.19034767500000013  0.300277425  0.44926666260240944  1.0000
  Bi  Bi24      1.0  0.9403476750000002  0.8002774250000002  0.46062958746007077  1.0000
  Bi  Bi25      1.0  0.5688551250000001  0.5405138850000001  0.5230532907637416  1.0000
  Bi  Bi26      1.0  0.844106455  0.038079455  0.5092958224948789  1.0000
  Bi  Bi27      1.0  0.32728247500000013  0.033055915  0.49151263633073583  1.0000
  Bi  Bi28      1.0  0.058612975000000164  0.533351075  0.5029880854926577  1.0000
  Bi  Bi29      1.0  0.6903476750000002  0.9669440850000001  0.487143074552456  1.0000
  Bi  Bi30      1.0  0.9023276150000004  0.46095715499999995  0.521066713576368  1.0000
  Bi  Bi31      1.0  0.4197686350000001  0.465967515  0.502107120761261  1.0000
  Bi  Bi32      1.0  0.17235058500000003  0.9560271050000002  0.5076856944176957  1.0000
  Bi  Bi33      1.0  0.7995925950000001  0.7085844850000002  0.5242038913064165  1.0000
  Bi  Bi34      1.0  0.09787285500000012  0.208060665  0.5157629140452153  1.0000
  Bi  Bi35      1.0  0.5765426550000001  0.200586965  0.49606174002701064  1.0000
  Bi  Bi36      1.0  0.3014989750000001  0.699788625  0.5050172263733727  1.0000
  Bi  Bi37      1.0  0.6521433350000001  0.627649805  0.5040053125845281  1.0000
  Bi  Bi38      1.0  0.9413870250000002  0.13620221500000002  0.49446782547810275  1.0000
  Bi  Bi39      1.0  0.42489687500000006  0.12596215500000002  0.5133167425093431  1.0000
  Bi  Bi40      1.0  0.13427687500000007  0.633031645  0.5233337918024648  1.0000
  Bi  Bi41      1.0  0.5923108350000003  0.876748355  0.5049318158226368  1.0000
  Bi  Bi42      1.0  0.8205438150000003  0.36749079500000004  0.4997602984471164  1.0000
  Bi  Bi43      1.0  0.33651578500000007  0.37528102499999993  0.5200198465258217  1.0000
  Bi  Bi44      1.0  0.07395543500000007  0.866395215  0.4848580169997728  1.0000
  Bi  Bi45      1.0  0.440347675  0.8002774250000002  0.48335543399377495  1.0000
  Bi  Bi46      1.0  0.6665606550000001  0.294215085  0.5173482859482404  1.0000
  Bi  Bi47      1.0  0.18497621500000008  0.302137315  0.49894282609606916  1.0000
  Bi  Bi48      1.0  0.9063581450000001  0.7892063350000001  0.5043380685267821  1.0000
