data_image0
_chemical_formula_structural       COBi36
_chemical_formula_sum              "C1 O1 Bi36"
_cell_length_a       12.12264903
_cell_length_b       12.345703478115366
_cell_length_c       102.66366117
_cell_angle_alpha    79.10660537221709
_cell_angle_beta     90.0
_cell_angle_gamma    90.0

_space_group_name_H-M_alt    "P 1"
_space_group_IT_number       1

loop_
  _space_group_symop_operation_xyz
  'x, y, z'

loop_
  _atom_site_type_symbol
  _atom_site_label
  _atom_site_symmetry_multiplicity
  _atom_site_fract_x
  _atom_site_fract_y
  _atom_site_fract_z
  _atom_site_occupancy
  C   C1        1.0  0.6428716650000001  0.596452495  0.5499264375650794  1.0000
  O   O1        1.0  0.661339645  0.648305885  0.5578554955786424  1.0000
  Bi  Bi1       1.0  0.933751815  0.8303157849999999  0.4421445044213578  1.0000
  Bi  Bi2       1.0  0.933751815  0.49698244499999994  0.4724456320724239  1.0000
  Bi  Bi3       1.0  0.933751815  0.16364911499999996  0.4572950666560815  1.0000
  Bi  Bi4       1.0  0.06598739500000002  0.6080935649999999  0.4471946907723928  1.0000
  Bi  Bi5       1.0  0.06598739500000002  0.27476022499999997  0.47749582160507753  1.0000
  Bi  Bi6       1.0  0.06598739500000002  0.9414268950000001  0.4623452561887352  1.0000
  Bi  Bi7       1.0  0.6004184750000001  0.6080935649999999  0.4471946907723928  1.0000
  Bi  Bi8       1.0  0.6004184750000001  0.27476022499999997  0.47749582160507753  1.0000
  Bi  Bi9       1.0  0.6004184750000001  0.9414268950000001  0.4623452561887352  1.0000
  Bi  Bi10      1.0  0.732654065  0.7192046750000001  0.4673954425397703  1.0000
  Bi  Bi11      1.0  0.732654065  0.3858713349999999  0.45224488030504645  1.0000
  Bi  Bi12      1.0  0.732654065  0.052538004999999964  0.4825460079561125  1.0000
  Bi  Bi13      1.0  0.267085145  0.7192046750000001  0.4673954425397703  1.0000
  Bi  Bi14      1.0  0.267085145  0.3858713349999999  0.45224488030504645  1.0000
  Bi  Bi15      1.0  0.267085145  0.052538004999999964  0.4825460079561125  1.0000
  Bi  Bi16      1.0  0.39932073500000004  0.8303157849999999  0.4421445044213578  1.0000
  Bi  Bi17      1.0  0.39932073500000004  0.49698244499999994  0.4724456320724239  1.0000
  Bi  Bi18      1.0  0.39932073500000004  0.16364911499999996  0.4572950666560815  1.0000
  Bi  Bi19      1.0  0.910611815  0.8324321650000001  0.4885403650732219  1.0000
  Bi  Bi20      1.0  0.9208289050000001  0.47564985499999995  0.5184200173479767  1.0000
  Bi  Bi21      1.0  0.9483566449999999  0.15408570499999996  0.5055187926341569  1.0000
  Bi  Bi22      1.0  0.05164335500000003  0.612413675  0.495490954472436  1.0000
  Bi  Bi23      1.0  0.09813695500000003  0.27685578499999997  0.5226641501770423  1.0000
  Bi  Bi24      1.0  0.10515120500000003  0.9508314550000001  0.5078115465221811  1.0000
  Bi  Bi25      1.0  0.5946137450000001  0.604279355  0.4961394319710755  1.0000
  Bi  Bi26      1.0  0.5950259450000001  0.24920251499999996  0.5233697568188745  1.0000
  Bi  Bi27      1.0  0.6059868250000001  0.9369158649999999  0.5082784363220798  1.0000
  Bi  Bi28      1.0  0.749426845  0.727565165  0.512080298715806  1.0000
  Bi  Bi29      1.0  0.7377575550000001  0.3872154749999999  0.5012479469355076  1.0000
  Bi  Bi30      1.0  0.752015985  0.056327664999999964  0.5257148674222241  1.0000
  Bi  Bi31      1.0  0.25521033500000007  0.715615285  0.5092000207778663  1.0000
  Bi  Bi32      1.0  0.27195017500000007  0.38841471499999997  0.5010158287705052  1.0000
  Bi  Bi33      1.0  0.25179321500000007  0.04916854499999996  0.5270841596995005  1.0000
  Bi  Bi34      1.0  0.41454308500000003  0.845917675  0.48585436949215066  1.0000
  Bi  Bi35      1.0  0.40916513500000007  0.520749995  0.5177728220416242  1.0000
  Bi  Bi36      1.0  0.40716624500000004  0.16617936499999997  0.5053174184494773  1.0000
