data_image0
_chemical_formula_structural       COBi12
_chemical_formula_sum              "C1 O1 Bi12"
_cell_length_a       4.8566098269585405
_cell_length_b       10.520539033393636
_cell_length_c       102.01843388
_cell_angle_alpha    84.12603270869278
_cell_angle_beta     86.65470254936707
_cell_angle_gamma    79.7703723297158

_space_group_name_H-M_alt    "P 1"
_space_group_IT_number       1

loop_
  _space_group_symop_operation_xyz
  'x, y, z'

loop_
  _atom_site_type_symbol
  _atom_site_label
  _atom_site_symmetry_multiplicity
  _atom_site_fract_x
  _atom_site_fract_y
  _atom_site_fract_z
  _atom_site_occupancy
  C   C1        1.0  0.09009667  0.11553292499999998  0.5540028741594045  1.0000
  O   O1        1.0  0.03464653999999999  0.208734705  0.5592792710567271  1.0000
  Bi  Bi1       1.0  0.05454732  0.29942689499999997  0.502500090547953  1.0000
  Bi  Bi2       1.0  0.38501427000000005  0.668924605  0.485556370085894  1.0000
  Bi  Bi3       1.0  0.7540190999999998  0.9332657350000001  0.515257661347408  1.0000
  Bi  Bi4       1.0  0.28579955  0.950123015  0.49508146371153483  1.0000
  Bi  Bi5       1.0  0.5807308900000001  0.216733295  0.5210947221197991  1.0000
  Bi  Bi6       1.0  0.9106977599999999  0.591375195  0.5049384625928568  1.0000
  Bi  Bi7       1.0  0.05168093999999996  0.430829375  0.45566594056515  1.0000
  Bi  Bi8       1.0  0.38501427  0.8117817549999999  0.4407207289432728  1.0000
  Bi  Bi9       1.0  0.71834761  0.049876985  0.47061115532552195  1.0000
  Bi  Bi10      1.0  0.2986867899999999  0.09999108499999998  0.4476787565388824  1.0000
  Bi  Bi11      1.0  0.63202013  0.33808632499999997  0.4775691829211315  1.0000
  Bi  Bi12      1.0  0.9653534599999999  0.719038705  0.4626239681607595  1.0000
