data_image0
_chemical_formula_structural       COCu8Ga8Pt16
_chemical_formula_sum              "C1 O1 Cu8 Ga8 Pt16"
_cell_length_a       5.406047640663935
_cell_length_b       6.749161137566047
_cell_length_c       108.89033839999999
_cell_angle_alpha    92.99304961311167
_cell_angle_beta     93.73761329848232
_cell_angle_gamma    95.38838491359745

_space_group_name_H-M_alt    "P 1"
_space_group_IT_number       1

loop_
  _space_group_symop_operation_xyz
  'x, y, z'

loop_
  _atom_site_type_symbol
  _atom_site_label
  _atom_site_symmetry_multiplicity
  _atom_site_fract_x
  _atom_site_fract_y
  _atom_site_fract_z
  _atom_site_occupancy
  C   C1        1.0  0.2705800949999999  0.8384641899999998  0.5592535161672931  1.0000
  O   O1        1.0  0.2728787849999999  0.86996218  0.5699006534199567  1.0000
  Cu  Cu1       1.0  0.0023853549999999254  0.13003781999999994  0.4896245835435935  1.0000
  Cu  Cu2       1.0  0.49820408499999985  0.14855300999999996  0.5343244438564237  1.0000
  Cu  Cu3       1.0  0.997614645  0.79508535  0.5195274107419701  1.0000
  Cu  Cu4       1.0  0.5023853549999999  0.46337116  0.5045058901058453  1.0000
  Cu  Cu5       1.0  0.0023853549999999384  0.79670449  0.43009934658004373  1.0000
  Cu  Cu6       1.0  0.5023853549999999  0.79670449  0.4747432734098274  1.0000
  Cu  Cu7       1.0  0.0023853549999999384  0.46337116  0.4598619632760615  1.0000
  Cu  Cu8       1.0  0.5023853549999999  0.13003781999999994  0.4449806567138097  1.0000
  Ga  Ga1       1.0  0.25120156499999996  0.46119065  0.528324207231133  1.0000
  Ga  Ga2       1.0  0.752385355  0.13003781999999994  0.5119465469584854  1.0000
  Ga  Ga3       1.0  0.2523853549999999  0.79670449  0.4970652368247194  1.0000
  Ga  Ga4       1.0  0.7560993149999997  0.8150658599999999  0.5401727482699274  1.0000
  Ga  Ga5       1.0  0.2523853549999999  0.13003781999999994  0.46730262012870155  1.0000
  Ga  Ga6       1.0  0.752385355  0.79670449  0.4524213099949356  1.0000
  Ga  Ga7       1.0  0.2523853549999999  0.46337116  0.43753999986116954  1.0000
  Ga  Ga8       1.0  0.752385355  0.46337116  0.4821839266909534  1.0000
  Pt  Pt1       1.0  0.9835609949999999  0.13769249999999997  0.5333310700547772  1.0000
  Pt  Pt2       1.0  0.4837745749999999  0.7905245  0.5191737165530255  1.0000
  Pt  Pt3       1.0  0.0023853549999999384  0.46337116  0.5045058901058453  1.0000
  Pt  Pt4       1.0  0.5023853549999999  0.13003781999999994  0.48962458354359356  1.0000
  Pt  Pt5       1.0  0.7487766149999999  0.47501751999999997  0.5275626246975866  1.0000
  Pt  Pt6       1.0  0.2523853549999999  0.13003781999999994  0.5119465469584854  1.0000
  Pt  Pt7       1.0  0.752385355  0.79670449  0.4970652368247194  1.0000
  Pt  Pt8       1.0  0.27056427499999985  0.81647373  0.5419771450754487  1.0000
  Pt  Pt9       1.0  0.0023853549999999384  0.79670449  0.4747432734098276  1.0000
  Pt  Pt10      1.0  0.5023853549999999  0.46337116  0.45986196327606155  1.0000
  Pt  Pt11      1.0  0.0023853549999999254  0.13003781999999994  0.44498065671380965  1.0000
  Pt  Pt12      1.0  0.5023853549999999  0.79670449  0.4300993465800436  1.0000
  Pt  Pt13      1.0  0.752385355  0.13003781999999994  0.46730262012870155  1.0000
  Pt  Pt14      1.0  0.2523853549999999  0.79670449  0.45242130999493557  1.0000
  Pt  Pt15      1.0  0.752385355  0.46337116  0.43753999986116954  1.0000
  Pt  Pt16      1.0  0.2523853549999999  0.46337116  0.48218392669095334  1.0000
