data_image0
_chemical_formula_structural       COBi9
_chemical_formula_sum              "C1 O1 Bi9"
_cell_length_a       4.66623731
_cell_length_b       7.649406867540102
_cell_length_c       100.30756837
_cell_angle_alpha    93.02566257920519
_cell_angle_beta     90.0
_cell_angle_gamma    107.75855365884627

_space_group_name_H-M_alt    "P 1"
_space_group_IT_number       1

loop_
  _space_group_symop_operation_xyz
  'x, y, z'

loop_
  _atom_site_type_symbol
  _atom_site_label
  _atom_site_symmetry_multiplicity
  _atom_site_fract_x
  _atom_site_fract_y
  _atom_site_fract_z
  _atom_site_occupancy
  C   C1        1.0  0.7772029049999999  0.33662398999999993  0.5528315539711512  1.0000
  O   O1        1.0  0.9499604249999999  0.36874397999999997  0.5614833130388519  1.0000
  Bi  Bi1       1.0  0.2722617949999999  0.6227369899999998  0.472088506293564  1.0000
  Bi  Bi2       1.0  0.9275728750000002  0.93281857  0.5057455037111237  1.0000
  Bi  Bi3       1.0  0.605595125  0.28940364999999996  0.43851668696114815  1.0000
  Bi  Bi4       1.0  0.3834453649999999  0.84530019  0.5263063682717273  1.0000
  Bi  Bi5       1.0  0.05003957499999993  0.17829253999999994  0.46089790186373464  1.0000
  Bi  Bi6       1.0  0.716706235  0.5116258699999999  0.4944697211961504  1.0000
  Bi  Bi7       1.0  0.49448401499999994  0.06718142999999997  0.4832791137448572  1.0000
  Bi  Bi8       1.0  0.184705645  0.4491772  0.515048083053447  1.0000
  Bi  Bi9       1.0  0.8278173449999999  0.7338480999999999  0.4497072944124414  1.0000
