data_image0
_chemical_formula_structural       COIn15Pt15
_chemical_formula_sum              "C1 O1 In15 Pt15"
_cell_length_a       7.1072746440541295
_cell_length_b       9.001570956041506
_cell_length_c       108.85167745999999
_cell_angle_alpha    90.92592261583141
_cell_angle_beta     91.1665725934416
_cell_angle_gamma    106.90212117124132

_space_group_name_H-M_alt    "P 1"
_space_group_IT_number       1

loop_
  _space_group_symop_operation_xyz
  'x, y, z'

loop_
  _atom_site_type_symbol
  _atom_site_label
  _atom_site_symmetry_multiplicity
  _atom_site_fract_x
  _atom_site_fract_y
  _atom_site_fract_z
  _atom_site_occupancy
  C   C1        1.0  0.678013835  0.44794318000000005  0.5398777180452268  1.0000
  O   O1        1.0  0.6699764349999999  0.45480695000000004  0.5507533003372742  1.0000
  In  In1       1.0  0.8283781050000001  0.85586239  0.4828122720595948  1.0000
  In  In2       1.0  0.18406203499999998  0.18529047  0.5146698996383131  1.0000
  In  In3       1.0  0.495044775  0.52252906  0.45306868211797463  1.0000
  In  In4       1.0  0.128068265  0.20320269000000005  0.48297970825202247  1.0000
  In  In5       1.0  0.474125345  0.55728346  0.5142678578964778  1.0000
  In  In6       1.0  0.7947349350000001  0.86986936  0.4532361147411712  1.0000
  In  In7       1.0  0.528687955  0.5085221  0.48264483943639813  1.0000
  In  In8       1.0  0.871578425  0.8572257400000001  0.5148722893092947  1.0000
  In  In9       1.0  0.195354615  0.17518876000000005  0.4529012494947779  1.0000
  In  In10      1.0  0.529727935  0.06943632000000004  0.4789902896043461  1.0000
  In  In11      1.0  0.8729717149999999  0.40223313000000005  0.5075436052750458  1.0000
  In  In12      1.0  0.19639459499999995  0.73610298  0.44924669966272573  1.0000
  In  In13      1.0  0.127028285  0.64228847  0.4866342545148436  1.0000
  In  In14      1.0  0.460182335  0.97747094  0.5180366302569362  1.0000
  In  In15      1.0  0.7936949550000002  0.30895514  0.45689066457322347  1.0000
  Pt  Pt1       1.0  0.166039485  0.70629931  0.5127118409623388  1.0000
  Pt  Pt2       1.0  0.495044775  0.022529060000000028  0.4530686821179747  1.0000
  Pt  Pt3       1.0  0.8283781050000001  0.35586239000000003  0.48281227205959476  1.0000
  Pt  Pt4       1.0  0.172093105  0.44517425000000005  0.46727604511932214  1.0000
  Pt  Pt5       1.0  0.505426435  0.77850758  0.4970196350609424  1.0000
  Pt  Pt6       1.0  0.831534485  0.13526822000000002  0.5244194930778243  1.0000
  Pt  Pt7       1.0  0.15132977499999997  0.9332172  0.4686049126274782  1.0000
  Pt  Pt8       1.0  0.48466311500000003  0.26655054000000006  0.4983485025690984  1.0000
  Pt  Pt9       1.0  0.8410849050000001  0.58500953  0.5267108358308874  1.0000
  Pt  Pt10      1.0  0.195218055  0.9488057599999998  0.49611578800338624  1.0000
  Pt  Pt11      1.0  0.5470886550000001  0.30032001  0.525837387913211  1.0000
  Pt  Pt12      1.0  0.8618847250000002  0.6154724300000001  0.466372198061766  1.0000
  Pt  Pt13      1.0  0.461538165  0.7629190299999999  0.46950875968503447  1.0000
  Pt  Pt14      1.0  0.794871495  0.09625236000000004  0.4992523496266547  1.0000
  Pt  Pt15      1.0  0.137467525  0.43826590000000004  0.5261844242370953  1.0000
