data_image0
_chemical_formula_structural       COIn18
_chemical_formula_sum              "C1 O1 In18"
_cell_length_a       5.88989363
_cell_length_b       8.861696588017063
_cell_length_c       100.60478508
_cell_angle_alpha    90.0
_cell_angle_beta     90.0
_cell_angle_gamma    102.80001534631337

_space_group_name_H-M_alt    "P 1"
_space_group_IT_number       1

loop_
  _space_group_symop_operation_xyz
  'x, y, z'

loop_
  _atom_site_type_symbol
  _atom_site_label
  _atom_site_symmetry_multiplicity
  _atom_site_fract_x
  _atom_site_fract_y
  _atom_site_fract_z
  _atom_site_occupancy
  C   C1        1.0  0.1436676  0.866259745  0.5522022330114152  1.0000
  O   O1        1.0  0.28147492999999996  0.928208775  0.5595781434291114  1.0000
  In  In1       1.0  0.61594749  0.071791225  0.4404218565708886  1.0000
  In  In2       1.0  0.11594748999999997  0.071791225  0.45732230491881776  1.0000
  In  In3       1.0  0.39428365  0.40679970499999996  0.4404218565708886  1.0000
  In  In4       1.0  0.8942836500000001  0.40679970499999996  0.45732230491881776  1.0000
  In  In5       1.0  0.33761133  0.736782745  0.45732230491881776  1.0000
  In  In6       1.0  0.83761133  0.736782745  0.4404218565708886  1.0000
  In  In7       1.0  0.61594749  0.071791225  0.4742227502246663  1.0000
  In  In8       1.0  0.11594748999999997  0.071791225  0.4911231985725954  1.0000
  In  In9       1.0  0.39428365  0.40679970499999996  0.4742227502246663  1.0000
  In  In10      1.0  0.8942836500000001  0.40679970499999996  0.4911231985725954  1.0000
  In  In11      1.0  0.33761133  0.736782745  0.4911231985725954  1.0000
  In  In12      1.0  0.83761133  0.736782745  0.4742227502246663  1.0000
  In  In13      1.0  0.60971885  0.073163425  0.5081025493613963  1.0000
  In  In14      1.0  0.10571634999999997  0.075711335  0.5228422809690434  1.0000
  In  In15      1.0  0.39350583  0.411141425  0.5078660580264933  1.0000
  In  In16      1.0  0.8860778000000001  0.413101485  0.5235825864592069  1.0000
  In  In17      1.0  0.34716356  0.7379354850000001  0.5232013529360523  1.0000
  In  In18      1.0  0.84248358  0.7370539249999999  0.5079821133960142  1.0000
