data_image0
_chemical_formula_structural       CORh24Si24
_chemical_formula_sum              "C1 O1 Rh24 Si24"
_cell_length_a       8.551214046295112
_cell_length_b       9.102091582044546
_cell_length_c       99.33995279999999
_cell_angle_alpha    93.09097792750956
_cell_angle_beta     92.32818292312722
_cell_angle_gamma    97.52427752014717

_space_group_name_H-M_alt    "P 1"
_space_group_IT_number       1

loop_
  _space_group_symop_operation_xyz
  'x, y, z'

loop_
  _atom_site_type_symbol
  _atom_site_label
  _atom_site_symmetry_multiplicity
  _atom_site_fract_x
  _atom_site_fract_y
  _atom_site_fract_z
  _atom_site_occupancy
  C   C1        1.0  0.0021412250000000113  0.4986777800000001  0.5447981464318312  1.0000
  O   O1        1.0  0.01511372499999999  0.50872806  0.5565765068448333  1.0000
  Rh  Rh1       1.0  0.985854785  0.17235976000000003  0.4667112396736357  1.0000
  Rh  Rh2       1.0  0.4858547849999999  0.7223597600000001  0.45194379114309857  1.0000
  Rh  Rh3       1.0  0.185630005  0.03738210000000002  0.4458734601222181  1.0000
  Rh  Rh4       1.0  0.6856300049999999  0.4873821000000001  0.4606409086527555  1.0000
  Rh  Rh5       1.0  0.688507765  0.98997208  0.46072590417951786  1.0000
  Rh  Rh6       1.0  0.188507765  0.5399720800000001  0.4459584556489806  1.0000
  Rh  Rh7       1.0  0.4829770249999999  0.21976978000000003  0.45185879561633613  1.0000
  Rh  Rh8       1.0  0.982977025  0.6697697800000001  0.4666262441468734  1.0000
  Rh  Rh9       1.0  0.9854627249999999  0.07434074000000003  0.49620224787767747  1.0000
  Rh  Rh10      1.0  0.485854785  0.62235976  0.481478688204173  1.0000
  Rh  Rh11      1.0  0.185630005  0.9373821  0.4754083571832928  1.0000
  Rh  Rh12      1.0  0.685630005  0.38738210000000006  0.49017580571382996  1.0000
  Rh  Rh13      1.0  0.6885077650000001  0.8899720800000002  0.49026080124059235  1.0000
  Rh  Rh14      1.0  0.188507765  0.43997208000000004  0.47549335271005516  1.0000
  Rh  Rh15      1.0  0.4829770249999999  0.11976978000000003  0.48139369267741067  1.0000
  Rh  Rh16      1.0  0.9792475549999999  0.5666834000000001  0.4973883545762017  1.0000
  Rh  Rh17      1.0  0.997858775  0.9815563900000002  0.5234574023509121  1.0000
  Rh  Rh18      1.0  0.48619619500000005  0.51656009  0.5100461017817489  1.0000
  Rh  Rh19      1.0  0.18230745499999998  0.8330997400000001  0.5044667913779985  1.0000
  Rh  Rh20      1.0  0.6828315550000001  0.284582  0.5182705427988403  1.0000
  Rh  Rh21      1.0  0.687226915  0.78610935  0.5188711231166184  1.0000
  Rh  Rh22      1.0  0.187030485  0.33936839  0.5051406891242411  1.0000
  Rh  Rh23      1.0  0.47882371500000004  0.010027920000000018  0.5103831658409685  1.0000
  Rh  Rh24      1.0  0.985209485  0.48331423  0.5257621757640114  1.0000
  Si  Si1       1.0  0.40002535499999997  0.9633216900000001  0.4598513286217041  1.0000
  Si  Si2       1.0  0.9000253550000001  0.51332169  0.4450838800911668  1.0000
  Si  Si3       1.0  0.771459435  0.24642017000000008  0.4527333711741499  1.0000
  Si  Si4       1.0  0.27145943499999997  0.69642017  0.4675008197046872  1.0000
  Si  Si5       1.0  0.956243245  0.9127256000000001  0.4581909416857041  1.0000
  Si  Si6       1.0  0.456243245  0.46272560000000007  0.4434234931551668  1.0000
  Si  Si7       1.0  0.215241545  0.29701626000000003  0.45439375811015  1.0000
  Si  Si8       1.0  0.715241545  0.7470162600000001  0.46916120664068717  1.0000
  Si  Si9       1.0  0.40002535499999997  0.86332169  0.4893862256827786  1.0000
  Si  Si10      1.0  0.9000253549999999  0.41332169  0.4746187771522414  1.0000
  Si  Si11      1.0  0.771459435  0.14642017000000002  0.4822682682352244  1.0000
  Si  Si12      1.0  0.26832561499999996  0.59756821  0.4963219262340587  1.0000
  Si  Si13      1.0  0.956243245  0.8127256000000002  0.4877258387467786  1.0000
  Si  Si14      1.0  0.456243245  0.36272560000000004  0.47295839021624136  1.0000
  Si  Si15      1.0  0.215241545  0.19701626000000003  0.48392865517122446  1.0000
  Si  Si16      1.0  0.7146689550000002  0.6477409900000001  0.49843966400453926  1.0000
  Si  Si17      1.0  0.406146155  0.7766544200000001  0.5196709724313778  1.0000
  Si  Si18      1.0  0.898421985  0.30730133000000004  0.5047147250248675  1.0000
  Si  Si19      1.0  0.767332165  0.044113890000000024  0.5131498236952471  1.0000
  Si  Si20      1.0  0.254557365  0.5489508000000001  0.522489791867356  1.0000
  Si  Si21      1.0  0.963952035  0.7284408  0.5183906346437804  1.0000
  Si  Si22      1.0  0.454665305  0.25680527000000003  0.5031660243021039  1.0000
  Si  Si23      1.0  0.22250085499999997  0.09485518000000003  0.5133130926062007  1.0000
  Si  Si24      1.0  0.714400975  0.5422665200000001  0.525037094041162  1.0000
