data_image0
_chemical_formula_structural       COSb24Rh12
_chemical_formula_sum              "C1 O1 Sb24 Rh12"
_cell_length_a       6.821044685222605
_cell_length_b       15.049843232094313
_cell_length_c       107.97851824
_cell_angle_alpha    108.8645597470216
_cell_angle_beta     108.38206763814975
_cell_angle_gamma    66.55316565082302

_space_group_name_H-M_alt    "P 1"
_space_group_IT_number       1

loop_
  _space_group_symop_operation_xyz
  'x, y, z'

loop_
  _atom_site_type_symbol
  _atom_site_label
  _atom_site_symmetry_multiplicity
  _atom_site_fract_x
  _atom_site_fract_y
  _atom_site_fract_z
  _atom_site_occupancy
  C   C1        1.0  0.8213981650000001  0.14216398500000008  0.5391513002001579  1.0000
  O   O1        1.0  0.8969029249999999  0.17117787500000006  0.5503864201644431  1.0000
  Sb  Sb1       1.0  0.8008608749999999  0.23406477500000009  0.45277201636073083  1.0000
  Sb  Sb2       1.0  0.8008608750000001  0.9007314450000001  0.4820822573696922  1.0000
  Sb  Sb3       1.0  0.8103986550000002  0.564075945  0.5126709161774203  1.0000
  Sb  Sb4       1.0  0.651567415  0.504263325  0.4729786239408143  1.0000
  Sb  Sb5       1.0  0.6515674149999999  0.17092998500000006  0.5022888649497756  1.0000
  Sb  Sb6       1.0  0.5642626949999999  0.8203924050000001  0.5304643740016016  1.0000
  Sb  Sb7       1.0  0.15156741500000007  0.429959445  0.45991143563392106  1.0000
  Sb  Sb8       1.0  0.151567415  0.09662610500000006  0.4892216766428824  1.0000
  Sb  Sb9       1.0  0.15420283500000007  0.761113935  0.5185152635722364  1.0000
  Sb  Sb10      1.0  0.3300103750000001  0.15926262500000005  0.5291167406521284  1.0000
  Sb  Sb11      1.0  0.3008608749999999  0.826427565  0.469015069062799  1.0000
  Sb  Sb12      1.0  0.30086087499999986  0.49309422500000005  0.49832531007176045  1.0000
  Sb  Sb13      1.0  0.6030970749999999  0.2611745450000001  0.4745969010321321  1.0000
  Sb  Sb14      1.0  0.603097075  0.927841215  0.5039071420410937  1.0000
  Sb  Sb15      1.0  0.577230355  0.624411425  0.5342411253269175  1.0000
  Sb  Sb16      1.0  0.831398205  0.333001125  0.5129739852539854  1.0000
  Sb  Sb17      1.0  0.849331215  0.994030365  0.45412172135812134  1.0000
  Sb  Sb18      1.0  0.8493312150000002  0.660697035  0.48343196236708275  1.0000
  Sb  Sb19      1.0  0.39548687499999996  0.40023421500000006  0.5247685134660861  1.0000
  Sb  Sb20      1.0  0.34933121500000003  0.06951633500000004  0.46739679197148115  1.0000
  Sb  Sb21      1.0  0.3493312149999999  0.736183005  0.49670703298044255  1.0000
  Sb  Sb22      1.0  0.10309707500000007  0.336660515  0.48787197164549184  1.0000
  Sb  Sb23      1.0  0.12118953500000001  0.0059696350000000495  0.5169689454702932  1.0000
  Sb  Sb24      1.0  0.10309707500000007  0.669993845  0.45856173063653044  1.0000
  Rh  Rh1       1.0  0.6889189250000001  0.42233772500000005  0.49231842800477116  1.0000
  Rh  Rh2       1.0  0.7097717149999999  0.08257251500000005  0.5213520741203155  1.0000
  Rh  Rh3       1.0  0.6889189250000001  0.755671065  0.46300818347858064  1.0000
  Rh  Rh4       1.0  0.7635093650000001  0.4080023850000001  0.4496135798355569  1.0000
  Rh  Rh5       1.0  0.7635093650000001  0.07466905500000005  0.4789238208445183  1.0000
  Rh  Rh6       1.0  0.7518546349999999  0.7436034050000001  0.5091891759568892  1.0000
  Rh  Rh7       1.0  0.269544455  0.24307106500000009  0.5085936598355255  1.0000
  Rh  Rh8       1.0  0.26350936499999994  0.9083531550000001  0.4496752649988421  1.0000
  Rh  Rh9       1.0  0.26350936499999994  0.575019825  0.47898550952503255  1.0000
  Rh  Rh10      1.0  0.18891892500000007  0.2560218250000001  0.463069872159095  1.0000
  Rh  Rh11      1.0  0.18891892499999988  0.9226884950000002  0.4923801131680564  1.0000
  Rh  Rh12      1.0  0.19999714500000002  0.584126645  0.5208522231122028  1.0000
