data_image0
_chemical_formula_structural       COIn81
_chemical_formula_sum              "C1 O1 In81"
_cell_length_a       8.99696113716332
_cell_length_b       26.146505805804285
_cell_length_c       104.00531674999999
_cell_angle_alpha    93.72848467499664
_cell_angle_beta     100.89339466569274
_cell_angle_gamma    95.64207540258901

_space_group_name_H-M_alt    "P 1"
_space_group_IT_number       1

loop_
  _space_group_symop_operation_xyz
  'x, y, z'

loop_
  _atom_site_type_symbol
  _atom_site_label
  _atom_site_symmetry_multiplicity
  _atom_site_fract_x
  _atom_site_fract_y
  _atom_site_fract_z
  _atom_site_occupancy
  C   C1        1.0  0.020311710000000024  0.6238832549999999  0.557060157568212  1.0000
  O   O1        1.0  0.95011046  0.613428765  0.5648628148420901  1.0000
  In  In1       1.0  0.3149076900000001  0.944604285  0.5029627595772731  1.0000
  In  In2       1.0  0.6444450200000001  0.944975035  0.5232808687342816  1.0000
  In  In3       1.0  0.98157435  0.944604285  0.5138613445771159  1.0000
  In  In4       1.0  0.06288576000000004  0.164282305  0.5187103987180771  1.0000
  In  In5       1.0  0.38863024  0.16598139499999998  0.5083554720844837  1.0000
  In  In6       1.0  0.72879869  0.16608298499999996  0.528255383001235  1.0000
  In  In7       1.0  0.12430417000000005  0.05502496499999997  0.502167105268915  1.0000
  In  In8       1.0  0.4643627000000001  0.056836004999999974  0.5221450184327681  1.0000
  In  In9       1.0  0.8033194500000002  0.05621980499999997  0.5126783895107955  1.0000
  In  In10      1.0  0.09173796999999997  0.6108726449999999  0.5104071172220732  1.0000
  In  In11      1.0  0.4301718500000001  0.623119715  0.5302186874960593  1.0000
  In  In12      1.0  0.75966823  0.610612045  0.5199523074884465  1.0000
  In  In13      1.0  0.17382949  0.8362389049999999  0.5152543207836715  1.0000
  In  In14      1.0  0.49990674000000007  0.832934795  0.5041615426554231  1.0000
  In  In15      1.0  0.8354929300000002  0.832673375  0.5250118405101213  1.0000
  In  In16      1.0  0.9076864100000002  0.722940445  0.5090297009222098  1.0000
  In  In17      1.0  0.23992157000000003  0.730250075  0.5291026246615138  1.0000
  In  In18      1.0  0.58360864  0.7284617049999998  0.5193182976909015  1.0000
  In  In19      1.0  0.20326512000000002  0.276123905  0.5068630779155846  1.0000
  In  In20      1.0  0.54839813  0.28014295499999997  0.5268402488859477  1.0000
  In  In21      1.0  0.87824523  0.278074595  0.5165624515229724  1.0000
  In  In22      1.0  0.2940205800000001  0.500297305  0.5136758583265253  1.0000
  In  In23      1.0  0.61101786  0.499601455  0.5005286820786672  1.0000
  In  In24      1.0  0.9439825500000001  0.498796225  0.5208218443796004  1.0000
  In  In25      1.0  0.018425650000000033  0.389033075  0.505257484526366  1.0000
  In  In26      1.0  0.3523362500000001  0.3884627049999999  0.5255128701595282  1.0000
  In  In27      1.0  0.6910866700000002  0.39197614499999994  0.515696981982927  1.0000
  In  In28      1.0  0.3149076900000001  0.944604285  0.4702670111168945  1.0000
  In  In29      1.0  0.6482410200000001  0.944604285  0.4920641778470052  1.0000
  In  In30      1.0  0.98157435  0.944604285  0.48116559611673726  1.0000
  In  In31      1.0  0.05546230000000002  0.16626812499999996  0.4859972365020685  1.0000
  In  In32      1.0  0.38879563  0.16626812499999996  0.47509865477180047  1.0000
  In  In33      1.0  0.7221289700000001  0.16626812499999996  0.4968958215019112  1.0000
  In  In34      1.0  0.12990863000000002  0.05627377499999997  0.4690682280387444  1.0000
  In  In35      1.0  0.46324196  0.05627377499999997  0.4908653947688551  1.0000
  In  In36      1.0  0.7965753000000001  0.05627377499999997  0.4799668130385872  1.0000
  In  In37      1.0  0.09268546000000003  0.611270955  0.47753273227040643  1.0000
  In  In38      1.0  0.42601880000000003  0.611270955  0.49932989900051705  1.0000
  In  In39      1.0  0.7593521300000001  0.611270955  0.48843131727024924  1.0000
  In  In40      1.0  0.16657341000000006  0.832934795  0.48236437592531245  1.0000
  In  In41      1.0  0.49990674000000007  0.832934795  0.47146579419504453  1.0000
  In  In42      1.0  0.8332400800000002  0.832934795  0.49326296092515515  1.0000
  In  In43      1.0  0.9076864100000002  0.722940445  0.47633395246183124  1.0000
  In  In44      1.0  0.24101974000000004  0.722940445  0.4981311159223671  1.0000
  In  In45      1.0  0.57435307  0.722940445  0.48723253419209905  1.0000
  In  In46      1.0  0.20379658000000003  0.27793761499999997  0.47389987169365055  1.0000
  In  In47      1.0  0.53712991  0.27793761499999997  0.4956970384237611  1.0000
  In  In48      1.0  0.8704632400000001  0.27793761499999997  0.48479845669349325  1.0000
  In  In49      1.0  0.27768452000000005  0.499601455  0.4787315153485565  1.0000
  In  In50      1.0  0.61101786  0.499601455  0.4678329336182886  1.0000
  In  In51      1.0  0.94435119  0.499601455  0.48963010034839927  1.0000
  In  In52      1.0  0.01879752000000002  0.389607115  0.47270109188507514  1.0000
  In  In53      1.0  0.35213085000000005  0.389607115  0.49449825534561104  1.0000
  In  In54      1.0  0.68546418  0.389607115  0.4835996736153431  1.0000
  In  In55      1.0  0.3149076900000001  0.944604285  0.4375712626565159  1.0000
  In  In56      1.0  0.6482410200000001  0.944604285  0.4593684293866266  1.0000
  In  In57      1.0  0.98157435  0.944604285  0.44846984765635867  1.0000
  In  In58      1.0  0.05546230000000002  0.16626812499999996  0.45330148804168985  1.0000
  In  In59      1.0  0.38879563  0.16626812499999996  0.44240290631142193  1.0000
  In  In60      1.0  0.7221289700000001  0.16626812499999996  0.46420007304153266  1.0000
  In  In61      1.0  0.12990863000000002  0.05627377499999997  0.43637247957836584  1.0000
  In  In62      1.0  0.46324196  0.05627377499999997  0.45816964630847645  1.0000
  In  In63      1.0  0.7965753000000001  0.05627377499999997  0.44727106457820864  1.0000
  In  In64      1.0  0.09268546000000003  0.611270955  0.4448369838100278  1.0000
  In  In65      1.0  0.42601880000000003  0.611270955  0.4666341505401385  1.0000
  In  In66      1.0  0.7593521300000001  0.611270955  0.4557355688098706  1.0000
  In  In67      1.0  0.16657341000000006  0.832934795  0.4496686274649339  1.0000
  In  In68      1.0  0.49990674000000007  0.832934795  0.43877004573466594  1.0000
  In  In69      1.0  0.8332400800000002  0.832934795  0.4605672124647766  1.0000
  In  In70      1.0  0.9076864100000002  0.722940445  0.4436382040014526  1.0000
  In  In71      1.0  0.24101974000000004  0.722940445  0.46543536746198844  1.0000
  In  In72      1.0  0.57435307  0.722940445  0.4545367857317205  1.0000
  In  In73      1.0  0.20379658000000003  0.27793761499999997  0.4412041232332719  1.0000
  In  In74      1.0  0.53712991  0.27793761499999997  0.4630012899633826  1.0000
  In  In75      1.0  0.8704632400000001  0.27793761499999997  0.45210270823311466  1.0000
  In  In76      1.0  0.27768452000000005  0.499601455  0.4460357668881779  1.0000
  In  In77      1.0  0.61101786  0.499601455  0.43513718515790994  1.0000
  In  In78      1.0  0.94435119  0.499601455  0.45693435188802073  1.0000
  In  In79      1.0  0.01879752000000002  0.389607115  0.4400053434246966  1.0000
  In  In80      1.0  0.35213085000000005  0.389607115  0.46180250688523244  1.0000
  In  In81      1.0  0.68546418  0.389607115  0.4509039251549645  1.0000
