data_image0
_chemical_formula_structural       COIn27
_chemical_formula_sum              "C1 O1 In27"
_cell_length_a       8.861696581366523
_cell_length_b       8.996961136733583
_cell_length_c       100.22458664999999
_cell_angle_alpha    83.89730659828543
_cell_angle_beta     86.28691981979783
_cell_angle_gamma    77.43444143152944

_space_group_name_H-M_alt    "P 1"
_space_group_IT_number       1

loop_
  _space_group_symop_operation_xyz
  'x, y, z'

loop_
  _atom_site_type_symbol
  _atom_site_label
  _atom_site_symmetry_multiplicity
  _atom_site_fract_x
  _atom_site_fract_y
  _atom_site_fract_z
  _atom_site_occupancy
  C   C1        1.0  0.8378145349999999  0.780182135  0.5536366414966337  1.0000
  O   O1        1.0  0.8161661149999999  0.735244965  0.5646648357248807  1.0000
  In  In1       1.0  0.16718272499999998  0.439631415  0.5052608940998602  1.0000
  In  In2       1.0  0.16218546499999997  0.710604305  0.525328241727139  1.0000
  In  In3       1.0  0.16959939499999996  0.08017555500000002  0.5152365265160339  1.0000
  In  In4       1.0  0.4979492349999999  0.850905845  0.5280601696211769  1.0000
  In  In5       1.0  0.5090659949999999  0.21620091500000005  0.5184165853254802  1.0000
  In  In6       1.0  0.5023048549999999  0.579573925  0.5078333977621142  1.0000
  In  In7       1.0  0.8339594050000001  0.9428207149999998  0.5133158693788631  1.0000
  In  In8       1.0  0.8317654149999999  0.30487831500000007  0.5023504044317157  1.0000
  In  In9       1.0  0.827973615  0.574289065  0.5231375992840209  1.0000
  In  In10      1.0  0.16677389499999998  0.555555555  0.4713185930649874  1.0000
  In  In11      1.0  0.16677389499999998  0.814814815  0.4936570084609768  1.0000
  In  In12      1.0  0.16677389499999998  0.18518518500000003  0.4824878007629822  1.0000
  In  In13      1.0  0.501782375  0.9543809349999999  0.49613281717254676  1.0000
  In  In14      1.0  0.5017823749999999  0.324751305  0.4849636094745521  1.0000
  In  In15      1.0  0.5017823749999999  0.695121675  0.4737944017765574  1.0000
  In  In16      1.0  0.8317654149999999  0.045619065000000035  0.4800119920514121  1.0000
  In  In17      1.0  0.831765415  0.415989435  0.4688427843534174  1.0000
  In  In18      1.0  0.8317654149999999  0.675248685  0.4911811997494068  1.0000
  In  In19      1.0  0.16677389499999998  0.666666665  0.4378109729866892  1.0000
  In  In20      1.0  0.16677389499999998  0.925925925  0.4601493883826786  1.0000
  In  In21      1.0  0.16677389499999998  0.29629629500000004  0.4489801806846839  1.0000
  In  In22      1.0  0.501782375  0.06549204500000003  0.4626251970942485  1.0000
  In  In23      1.0  0.5017823749999999  0.435862415  0.45145598939625387  1.0000
  In  In24      1.0  0.5017823749999999  0.8062327850000001  0.4402867816982592  1.0000
  In  In25      1.0  0.8317654149999999  0.15673017500000003  0.44650437197311393  1.0000
  In  In26      1.0  0.831765415  0.527100545  0.43533516427511915  1.0000
  In  In27      1.0  0.8317654149999998  0.786359805  0.4576735766554227  1.0000
