data_image0
_chemical_formula_structural       COIn108
_chemical_formula_sum              "C1 O1 In108"
_cell_length_a       6.801063349168143
_cell_length_b       51.96025612255309
_cell_length_c       104.00531674999999
_cell_angle_alpha    93.75239612227271
_cell_angle_beta     120.00000005268514
_cell_angle_gamma    88.12480811922019

_space_group_name_H-M_alt    "P 1"
_space_group_IT_number       1

loop_
  _space_group_symop_operation_xyz
  'x, y, z'

loop_
  _atom_site_type_symbol
  _atom_site_label
  _atom_site_symmetry_multiplicity
  _atom_site_fract_x
  _atom_site_fract_y
  _atom_site_fract_z
  _atom_site_occupancy
  C   C1        1.0  0.327277185  0.643775125  0.5630750603598992  1.0000
  O   O1        1.0  0.18074727500000004  0.640280545  0.5653117830512233  1.0000
  In  In1       1.0  0.09101175500000003  0.027917375000000015  0.4346882169487766  1.0000
  In  In2       1.0  0.09101175500000003  0.527917375  0.45103609117896587  1.0000
  In  In3       1.0  0.09101175500000003  0.41708545500000005  0.44741235925518  1.0000
  In  In4       1.0  0.09101175500000003  0.9170854549999999  0.4637602334853694  1.0000
  In  In5       1.0  0.424345085  0.47208262500000003  0.46010911560267315  1.0000
  In  In6       1.0  0.424345085  0.9720826249999999  0.4437612413724838  1.0000
  In  In7       1.0  0.25767842500000004  0.194584045  0.46193467290923385  1.0000
  In  In8       1.0  0.25767842500000004  0.694584045  0.4455867986790445  1.0000
  In  In9       1.0  0.25767842500000004  0.08375212500000001  0.45831094098544795  1.0000
  In  In10      1.0  0.25767842500000004  0.5837521250000001  0.4419630667552587  1.0000
  In  In11      1.0  0.09101175500000003  0.13874929500000002  0.43831194887256253  1.0000
  In  In12      1.0  0.09101175500000003  0.638749295  0.45465982310275177  1.0000
  In  In13      1.0  0.424345085  0.361250705  0.4564853804093124  1.0000
  In  In14      1.0  0.424345085  0.861250705  0.4401375061791231  1.0000
  In  In15      1.0  0.424345085  0.25041878500000003  0.4528616484855266  1.0000
  In  In16      1.0  0.424345085  0.7504187850000001  0.43651377425533733  1.0000
  In  In17      1.0  0.25767842500000004  0.305415965  0.4655584048330197  1.0000
  In  In18      1.0  0.25767842500000004  0.8054159649999999  0.44921053060283034  1.0000
  In  In19      1.0  0.09101175500000003  0.027917375000000015  0.4673839654091552  1.0000
  In  In20      1.0  0.09101175500000003  0.527917375  0.48373183963934446  1.0000
  In  In21      1.0  0.09101175500000003  0.41708545500000005  0.4801081077155587  1.0000
  In  In22      1.0  0.09101175500000003  0.9170854549999999  0.49645598194574797  1.0000
  In  In23      1.0  0.424345085  0.47208262500000003  0.4928048640630517  1.0000
  In  In24      1.0  0.424345085  0.9720826249999999  0.47645698983286233  1.0000
  In  In25      1.0  0.25767842500000004  0.194584045  0.4946304213696124  1.0000
  In  In26      1.0  0.25767842500000004  0.694584045  0.47828254713942314  1.0000
  In  In27      1.0  0.25767842500000004  0.08375212500000001  0.4910066894458266  1.0000
  In  In28      1.0  0.25767842500000004  0.5837521250000001  0.4746588152156373  1.0000
  In  In29      1.0  0.09101175500000003  0.13874929500000002  0.47100769733294107  1.0000
  In  In30      1.0  0.09101175500000003  0.638749295  0.48735557156313036  1.0000
  In  In31      1.0  0.424345085  0.361250705  0.48918112886969106  1.0000
  In  In32      1.0  0.424345085  0.861250705  0.4728332546395017  1.0000
  In  In33      1.0  0.424345085  0.25041878500000003  0.48555739694590516  1.0000
  In  In34      1.0  0.424345085  0.7504187850000001  0.46920952271571587  1.0000
  In  In35      1.0  0.25767842500000004  0.305415965  0.4982541532933983  1.0000
  In  In36      1.0  0.25767842500000004  0.8054159649999999  0.48190627906320893  1.0000
  In  In37      1.0  0.09498590500000001  0.028781855000000012  0.500616604215852  1.0000
  In  In38      1.0  0.09242959500000003  0.528803895  0.5164952748381857  1.0000
  In  In39      1.0  0.09687730500000002  0.41582034500000004  0.513763930864153  1.0000
  In  In40      1.0  0.07565491500000002  0.9149902349999999  0.5270898384209698  1.0000
  In  In41      1.0  0.418643365  0.47081025499999996  0.5249769476073644  1.0000
  In  In42      1.0  0.424345085  0.9720826249999999  0.509152738293241  1.0000
  In  In43      1.0  0.250196645  0.19536407500000003  0.5264435448307283  1.0000
  In  In44      1.0  0.25767842500000004  0.694584045  0.5109782955998018  1.0000
  In  In45      1.0  0.24373894500000004  0.08393392500000002  0.5218893638364067  1.0000
  In  In46      1.0  0.25767842500000004  0.5837521250000001  0.5073545636760158  1.0000
  In  In47      1.0  0.10108708500000002  0.13898928500000002  0.5050426603806819  1.0000
  In  In48      1.0  0.08733489500000002  0.637480435  0.5195600533245924  1.0000
  In  In49      1.0  0.428300175  0.36091609500000005  0.5220003691720045  1.0000
  In  In50      1.0  0.424345085  0.861250705  0.5055290030998804  1.0000
  In  In51      1.0  0.42457373500000006  0.250492275  0.5181791124230449  1.0000
  In  In52      1.0  0.424345085  0.7504187850000001  0.5019052711760945  1.0000
  In  In53      1.0  0.259136085  0.304250885  0.5309305426011134  1.0000
  In  In54      1.0  0.25767842500000004  0.8054159649999999  0.5146020275235875  1.0000
  In  In55      1.0  0.591011755  0.027917375000000015  0.4346882169487766  1.0000
  In  In56      1.0  0.591011755  0.527917375  0.45103609117896587  1.0000
  In  In57      1.0  0.591011755  0.41708545500000005  0.44741235925518  1.0000
  In  In58      1.0  0.591011755  0.9170854549999999  0.4637602334853694  1.0000
  In  In59      1.0  0.924345085  0.47208262500000003  0.46010911560267315  1.0000
  In  In60      1.0  0.924345085  0.9720826249999999  0.4437612413724838  1.0000
  In  In61      1.0  0.757678425  0.194584045  0.46193467290923385  1.0000
  In  In62      1.0  0.757678425  0.694584045  0.4455867986790445  1.0000
  In  In63      1.0  0.757678425  0.08375212500000001  0.45831094098544795  1.0000
  In  In64      1.0  0.757678425  0.5837521250000001  0.4419630667552587  1.0000
  In  In65      1.0  0.591011755  0.13874929500000002  0.43831194887256253  1.0000
  In  In66      1.0  0.591011755  0.638749295  0.45465982310275177  1.0000
  In  In67      1.0  0.924345085  0.361250705  0.4564853804093124  1.0000
  In  In68      1.0  0.924345085  0.861250705  0.4401375061791231  1.0000
  In  In69      1.0  0.924345085  0.25041878500000003  0.4528616484855266  1.0000
  In  In70      1.0  0.924345085  0.7504187850000001  0.43651377425533733  1.0000
  In  In71      1.0  0.757678425  0.305415965  0.4655584048330197  1.0000
  In  In72      1.0  0.757678425  0.8054159649999999  0.44921053060283034  1.0000
  In  In73      1.0  0.591011755  0.027917375000000015  0.4673839654091552  1.0000
  In  In74      1.0  0.591011755  0.527917375  0.48373183963934446  1.0000
  In  In75      1.0  0.591011755  0.41708545500000005  0.4801081077155587  1.0000
  In  In76      1.0  0.591011755  0.9170854549999999  0.49645598194574797  1.0000
  In  In77      1.0  0.924345085  0.47208262500000003  0.4928048640630517  1.0000
  In  In78      1.0  0.924345085  0.9720826249999999  0.47645698983286233  1.0000
  In  In79      1.0  0.757678425  0.194584045  0.4946304213696124  1.0000
  In  In80      1.0  0.757678425  0.694584045  0.47828254713942314  1.0000
  In  In81      1.0  0.757678425  0.08375212500000001  0.4910066894458266  1.0000
  In  In82      1.0  0.757678425  0.5837521250000001  0.4746588152156373  1.0000
  In  In83      1.0  0.591011755  0.13874929500000002  0.47100769733294107  1.0000
  In  In84      1.0  0.591011755  0.638749295  0.48735557156313036  1.0000
  In  In85      1.0  0.924345085  0.361250705  0.48918112886969106  1.0000
  In  In86      1.0  0.924345085  0.861250705  0.4728332546395017  1.0000
  In  In87      1.0  0.924345085  0.25041878500000003  0.48555739694590516  1.0000
  In  In88      1.0  0.924345085  0.7504187850000001  0.46920952271571587  1.0000
  In  In89      1.0  0.757678425  0.305415965  0.4982541532933983  1.0000
  In  In90      1.0  0.757678425  0.8054159649999999  0.48190627906320893  1.0000
  In  In91      1.0  0.591011755  0.027917375000000015  0.5000797138695339  1.0000
  In  In92      1.0  0.591011755  0.527917375  0.5164275880997231  1.0000
  In  In93      1.0  0.591011755  0.41708545500000005  0.5128038561759373  1.0000
  In  In94      1.0  0.591011755  0.9170854549999999  0.5291517304061265  1.0000
  In  In95      1.0  0.924345085  0.47208262500000003  0.5255006125234303  1.0000
  In  In96      1.0  0.924345085  0.9720826249999999  0.509152738293241  1.0000
  In  In97      1.0  0.7510329950000001  0.194456965  0.5263747039323449  1.0000
  In  In98      1.0  0.757678425  0.694584045  0.5109782955998018  1.0000
  In  In99      1.0  0.742556745  0.08300255500000002  0.5216400325977976  1.0000
  In  In100     1.0  0.757678425  0.5837521250000001  0.5073545636760158  1.0000
  In  In101     1.0  0.591011755  0.13874929500000002  0.5037034457933196  1.0000
  In  In102     1.0  0.591011755  0.638749295  0.520051320023509  1.0000
  In  In103     1.0  0.924345085  0.361250705  0.5218768773300696  1.0000
  In  In104     1.0  0.924345085  0.861250705  0.5055290030998804  1.0000
  In  In105     1.0  0.924345085  0.25041878500000003  0.5182531454062838  1.0000
  In  In106     1.0  0.924345085  0.7504187850000001  0.5019052711760945  1.0000
  In  In107     1.0  0.7598470750000001  0.304115845  0.5310275083823224  1.0000
  In  In108     1.0  0.757678425  0.8054159649999999  0.5146020275235875  1.0000
