data_image0
_chemical_formula_structural       COV18Ga6V18Ga6
_chemical_formula_sum              "C1 O1 V36 Ga12"
_cell_length_a       10.739004271431298
_cell_length_b       4.80262871
_cell_length_c       110.75165594
_cell_angle_alpha    90.0
_cell_angle_beta     108.43494882292202
_cell_angle_gamma    90.0

_space_group_name_H-M_alt    "P 1"
_space_group_IT_number       1

loop_
  _space_group_symop_operation_xyz
  'x, y, z'

loop_
  _atom_site_type_symbol
  _atom_site_label
  _atom_site_symmetry_multiplicity
  _atom_site_fract_x
  _atom_site_fract_y
  _atom_site_fract_z
  _atom_site_occupancy
  C   C1        1.0  0.3355923549999999  0.695393615  0.5589785887136626  1.0000
  O   O1        1.0  0.3657458249999999  0.628237395  0.5699156581708249  1.0000
  V   V1        1.0  0.8712604249999999  0.12752474500000002  0.5373294066153834  1.0000
  V   V2        1.0  0.5416666649999999  0.12639144500000002  0.4965207087548638  1.0000
  V   V3        1.0  0.20833333499999998  0.12639144500000002  0.516962670073262  1.0000
  V   V4        1.0  0.710598955  0.12617956500000002  0.5447776787028982  1.0000
  V   V5        1.0  0.37500000499999997  0.12639144500000002  0.506741689414063  1.0000
  V   V6        1.0  0.04235365499999994  0.12447539500000003  0.5279926261598673  1.0000
  V   V7        1.0  0.8793975549999998  0.625652565  0.5230468694065695  1.0000
  V   V8        1.0  0.552041375  0.6255571249999999  0.5412075448198679  1.0000
  V   V9        1.0  0.20833333499999998  0.626391445  0.5016311990844634  1.0000
  V   V10       1.0  0.05790790499999994  0.638825095  0.5419953591394493  1.0000
  V   V11       1.0  0.708333335  0.626391445  0.5016311990844634  1.0000
  V   V12       1.0  0.379962985  0.621451945  0.5230482050842152  1.0000
  V   V13       1.0  0.6293626549999999  0.8640798350000001  0.5231125236661619  1.0000
  V   V14       1.0  0.288469335  0.8366421549999999  0.5414594727575192  1.0000
  V   V15       1.0  0.958333335  0.876391445  0.5016311990844634  1.0000
  V   V16       1.0  0.630332005  0.384830765  0.5231542129987395  1.0000
  V   V17       1.0  0.281541575  0.379622335  0.5411279708122487  1.0000
  V   V18       1.0  0.958333335  0.37639144500000005  0.5016311990844634  1.0000
  Ga  Ga1       1.0  0.8127662149999999  0.6270468050000001  0.5447265807539569  1.0000
  Ga  Ga2       1.0  0.45833333499999995  0.626391445  0.5016311990844634  1.0000
  Ga  Ga3       1.0  0.11945971499999994  0.623572415  0.5212487087766186  1.0000
  Ga  Ga4       1.0  0.7916666649999998  0.12639144500000002  0.5118521797436625  1.0000
  Ga  Ga5       1.0  0.4571673349999999  0.12360855500000002  0.5325184392381653  1.0000
  Ga  Ga6       1.0  0.12500000499999994  0.12639144500000002  0.4914102184252642  1.0000
  V   V19       1.0  0.8750000049999999  0.12639144500000002  0.47607875111601833  1.0000
  V   V20       1.0  0.5416666649999999  0.12639144500000002  0.43519483215877475  1.0000
  V   V21       1.0  0.20833333499999998  0.12639144500000002  0.4556367897976201  1.0000
  V   V22       1.0  0.708333335  0.12639144500000002  0.48629973177521757  1.0000
  V   V23       1.0  0.37500000499999997  0.12639144500000002  0.44541580913842105  1.0000
  V   V24       1.0  0.04166666499999994  0.12639144500000002  0.46585777045681925  1.0000
  V   V25       1.0  0.8750000049999999  0.626391445  0.4607472801272197  1.0000
  V   V26       1.0  0.5416666649999999  0.626391445  0.4811892414456179  1.0000
  V   V27       1.0  0.20833333499999998  0.626391445  0.4403053224883743  1.0000
  V   V28       1.0  0.04166666499999994  0.626391445  0.4811892414456179  1.0000
  V   V29       1.0  0.708333335  0.626391445  0.4403053224883743  1.0000
  V   V30       1.0  0.37500000499999997  0.626391445  0.46074728012721977  1.0000
  V   V31       1.0  0.625000005  0.876391445  0.46074728012721977  1.0000
  V   V32       1.0  0.291666665  0.876391445  0.4811892414456179  1.0000
  V   V33       1.0  0.958333335  0.876391445  0.4403053224883743  1.0000
  V   V34       1.0  0.625000005  0.37639144500000005  0.46074728012721977  1.0000
  V   V35       1.0  0.291666665  0.37639144500000005  0.4811892414456179  1.0000
  V   V36       1.0  0.958333335  0.37639144500000005  0.4403053224883743  1.0000
  Ga  Ga7       1.0  0.7916666649999998  0.626391445  0.48118924144561787  1.0000
  Ga  Ga8       1.0  0.45833333499999995  0.626391445  0.4403053224883743  1.0000
  Ga  Ga9       1.0  0.12500000499999994  0.626391445  0.4607472801272197  1.0000
  Ga  Ga10      1.0  0.7916666649999998  0.12639144500000002  0.4505262994680206  1.0000
  Ga  Ga11      1.0  0.45833333499999995  0.12639144500000002  0.47096826078641885  1.0000
  Ga  Ga12      1.0  0.12500000499999994  0.12639144500000002  0.43008434182917515  1.0000
