data_image0
_chemical_formula_structural       COPt6Rh18
_chemical_formula_sum              "C1 O1 Pt6 Rh18"
_cell_length_a       7.2645841781787315
_cell_length_b       4.750413244019383
_cell_length_c       100.59547199
_cell_angle_alpha    90.07047939535947
_cell_angle_beta     93.85033696687742
_cell_angle_gamma    89.8515845233607

_space_group_name_H-M_alt    "P 1"
_space_group_IT_number       1

loop_
  _space_group_symop_operation_xyz
  'x, y, z'

loop_
  _atom_site_type_symbol
  _atom_site_label
  _atom_site_symmetry_multiplicity
  _atom_site_fract_x
  _atom_site_fract_y
  _atom_site_fract_z
  _atom_site_occupancy
  C   C1        1.0  0.07281562500000002  0.17889755999999996  0.5487159276078404  1.0000
  O   O1        1.0  0.06655217500000002  0.17316903999999997  0.5604848718122668  1.0000
  Pt  Pt1       1.0  0.9444444450000001  0.08427590999999995  0.48598151674594825  1.0000
  Pt  Pt2       1.0  0.05555555500000003  0.41760924  0.45218778044218355  1.0000
  Pt  Pt3       1.0  0.5000000050000001  0.75094258  0.4690846470733477  1.0000
  Pt  Pt4       1.0  0.27352787500000003  0.10528076999999997  0.5357086930291468  1.0000
  Pt  Pt5       1.0  0.388888895  0.41760924  0.5028783864185487  1.0000
  Pt  Pt6       1.0  0.8311240850000001  0.7612873099999999  0.5205711361001091  1.0000
  Rh  Rh1       1.0  0.4166666650000001  0.25094257999999997  0.4564119978603337  1.0000
  Rh  Rh2       1.0  0.861111115  0.5842759099999999  0.47330886449149784  1.0000
  Rh  Rh3       1.0  0.9722222250000001  0.91760924  0.4395151281877331  1.0000
  Rh  Rh4       1.0  0.6944444450000001  0.58427591  0.44796356302403345  1.0000
  Rh  Rh5       1.0  0.138888895  0.91760924  0.4648604326966339  1.0000
  Rh  Rh6       1.0  0.5833333350000002  0.2509425799999999  0.48175729932779804  1.0000
  Rh  Rh7       1.0  0.33333333500000006  0.75094258  0.44373934560588335  1.0000
  Rh  Rh8       1.0  0.7777777750000001  0.08427590999999995  0.4606362152784838  1.0000
  Rh  Rh9       1.0  0.22222222500000002  0.41760924  0.47753308190964794  1.0000
  Rh  Rh10      1.0  0.7482604050000001  0.24938776999999998  0.5067821854812943  1.0000
  Rh  Rh11      1.0  0.19498964500000002  0.59880586  0.52358392815081  1.0000
  Rh  Rh12      1.0  0.3055555550000001  0.9176092399999999  0.49020573416409835  1.0000
  Rh  Rh13      1.0  0.027777775000000015  0.5842759100000001  0.4986541690003986  1.0000
  Rh  Rh14      1.0  0.4766105550000001  0.9164074999999999  0.516367819432197  1.0000
  Rh  Rh15      1.0  0.9199897450000002  0.26531762999999997  0.5320571081128287  1.0000
  Rh  Rh16      1.0  0.666666665  0.75094258  0.4944299515822485  1.0000
  Rh  Rh17      1.0  0.11003440500000002  0.08239075999999997  0.5108752987463934  1.0000
  Rh  Rh18      1.0  0.5630126550000001  0.41713412  0.5273288425813608  1.0000
