data_image0
_chemical_formula_structural       COIn36
_chemical_formula_sum              "C1 O1 In36"
_cell_length_a       6.80106335
_cell_length_b       6.801063349168143
_cell_length_c       121.84886306
_cell_angle_alpha    90.0
_cell_angle_beta     90.0
_cell_angle_gamma    59.99999994731487

_space_group_name_H-M_alt    "P 1"
_space_group_IT_number       1

loop_
  _space_group_symop_operation_xyz
  'x, y, z'

loop_
  _atom_site_type_symbol
  _atom_site_label
  _atom_site_symmetry_multiplicity
  _atom_site_fract_x
  _atom_site_fract_y
  _atom_site_fract_z
  _atom_site_occupancy
  C   C1        1.0  0.350312905  0.44875279500000004  0.6059325707858718  1.0000
  O   O1        1.0  0.17968676499999994  0.5337304150000001  0.6105868294269132  1.0000
  In  In1       1.0  0.41620340499999997  0.415880205  0.38941317057308683  1.0000
  In  In2       1.0  0.41620340499999997  0.415880205  0.4365741279956212  1.0000
  In  In3       1.0  0.082870075  0.08254687500000002  0.41317184763866754  1.0000
  In  In4       1.0  0.24953674499999995  0.249213545  0.5312524438044951  1.0000
  In  In5       1.0  0.24688267500000002  0.25357851500000006  0.5772634520733408  1.0000
  In  In6       1.0  0.4199437650000001  0.41401778499999997  0.553877230759063  1.0000
  In  In7       1.0  0.082870075  0.08254687500000002  0.46033280506120183  1.0000
  In  In8       1.0  0.082870075  0.08254687500000002  0.5074937624837361  1.0000
  In  In9       1.0  0.24953674499999995  0.249213545  0.4840914863819607  1.0000
  In  In10      1.0  0.4162034049999998  0.9158802050000001  0.38941317057308683  1.0000
  In  In11      1.0  0.4162034049999998  0.9158802050000001  0.4365741279956212  1.0000
  In  In12      1.0  0.08287007499999999  0.582546875  0.41317184763866754  1.0000
  In  In13      1.0  0.24953674500000006  0.7492135450000001  0.5312524438044951  1.0000
  In  In14      1.0  0.24686055499999987  0.7475531450000001  0.5772634393078062  1.0000
  In  In15      1.0  0.41313400499999997  0.917453125  0.5545219370693071  1.0000
  In  In16      1.0  0.08287007499999999  0.582546875  0.46033280506120183  1.0000
  In  In17      1.0  0.08287007499999999  0.582546875  0.5074937624837361  1.0000
  In  In18      1.0  0.24953674500000006  0.7492135450000001  0.4840914863819607  1.0000
  In  In19      1.0  0.916203405  0.415880205  0.38941317057308683  1.0000
  In  In20      1.0  0.916203405  0.415880205  0.4365741279956212  1.0000
  In  In21      1.0  0.5828700749999999  0.08254687500000002  0.41317184763866754  1.0000
  In  In22      1.0  0.7495367449999998  0.249213545  0.5312524438044951  1.0000
  In  In23      1.0  0.754478045  0.24677959500000002  0.576949947561368  1.0000
  In  In24      1.0  0.917129925  0.419415495  0.5541960329679442  1.0000
  In  In25      1.0  0.5828700749999999  0.08254687500000002  0.46033280506120183  1.0000
  In  In26      1.0  0.5828700749999999  0.08254687500000002  0.5074937624837361  1.0000
  In  In27      1.0  0.7495367449999998  0.249213545  0.4840914863819607  1.0000
  In  In28      1.0  0.9162034049999997  0.9158802050000001  0.38941317057308683  1.0000
  In  In29      1.0  0.9162034049999997  0.9158802050000001  0.4365741279956212  1.0000
  In  In30      1.0  0.582870075  0.582546875  0.41317184763866754  1.0000
  In  In31      1.0  0.7495367449999998  0.7492135450000001  0.5312524438044951  1.0000
  In  In32      1.0  0.7427934549999998  0.752586585  0.5776369631088473  1.0000
  In  In33      1.0  0.9171106449999997  0.9114615950000001  0.5541943394070049  1.0000
  In  In34      1.0  0.582870075  0.582546875  0.46033280506120183  1.0000
  In  In35      1.0  0.582870075  0.582546875  0.5074937624837361  1.0000
  In  In36      1.0  0.7495367449999998  0.7492135450000001  0.4840914863819607  1.0000
