data_image0
_chemical_formula_structural       COIn54
_chemical_formula_sum              "C1 O1 In54"
_cell_length_a       6.801063349168143
_cell_length_b       26.80169048482523
_cell_length_c       104.00531674999999
_cell_angle_alpha    104.69982642068273
_cell_angle_beta     120.00000005268514
_cell_angle_gamma    82.71080758637817

_space_group_name_H-M_alt    "P 1"
_space_group_IT_number       1

loop_
  _space_group_symop_operation_xyz
  'x, y, z'

loop_
  _atom_site_type_symbol
  _atom_site_label
  _atom_site_symmetry_multiplicity
  _atom_site_fract_x
  _atom_site_fract_y
  _atom_site_fract_z
  _atom_site_occupancy
  C   C1        1.0  0.85067777  0.55326244  0.5592217307164875  1.0000
  O   O1        1.0  0.73658667  0.5777787600000001  0.5636445500022198  1.0000
  In  In1       1.0  0.08341087000000003  0.05602455000000001  0.4617489626927664  1.0000
  In  In2       1.0  0.08341087000000003  0.8343607100000001  0.44725403499762306  1.0000
  In  In3       1.0  0.4167442  0.94435506  0.4653453119272167  1.0000
  In  In4       1.0  0.25007754000000004  0.38935788000000005  0.4399517992322305  1.0000
  In  In5       1.0  0.25007754000000004  0.16769404  0.458152616727891  1.0000
  In  In6       1.0  0.08341087000000003  0.27768839  0.44354814519710595  1.0000
  In  In7       1.0  0.4167442  0.7226912200000001  0.45085038096249846  1.0000
  In  In8       1.0  0.4167442  0.50102738  0.43635544999778025  1.0000
  In  In9       1.0  0.25007754000000004  0.6110217200000001  0.45444672692737387  1.0000
  In  In10      1.0  0.08341087000000003  0.05602455000000001  0.4944447111531449  1.0000
  In  In11      1.0  0.08341087000000003  0.8343607100000001  0.4799497834580016  1.0000
  In  In12      1.0  0.4167442  0.94435506  0.4980410603875953  1.0000
  In  In13      1.0  0.25007754000000004  0.38935788000000005  0.472647547692609  1.0000
  In  In14      1.0  0.25007754000000004  0.16769404  0.4908483651882695  1.0000
  In  In15      1.0  0.08341087000000003  0.27768839  0.4762438936574846  1.0000
  In  In16      1.0  0.4167442  0.7226912200000001  0.4835461294228771  1.0000
  In  In17      1.0  0.4167442  0.50102738  0.4690511984581589  1.0000
  In  In18      1.0  0.25007754000000004  0.6110217200000001  0.48714247538775246  1.0000
  In  In19      1.0  0.08325580000000002  0.05564494000000002  0.526958390068647  1.0000
  In  In20      1.0  0.08341087000000003  0.8343607100000001  0.5126455319183801  1.0000
  In  In21      1.0  0.4167442  0.94435506  0.5307368088479738  1.0000
  In  In22      1.0  0.25007754000000004  0.38935788000000005  0.5053432961529878  1.0000
  In  In23      1.0  0.24954983000000006  0.17118095000000003  0.523790839036105  1.0000
  In  In24      1.0  0.08341087000000003  0.27768839  0.5089396421178631  1.0000
  In  In25      1.0  0.4167442  0.7226912200000001  0.5162418778832557  1.0000
  In  In26      1.0  0.4167442  0.50102738  0.5017469469185375  1.0000
  In  In27      1.0  0.25007754000000004  0.6110217200000001  0.519838223848131  1.0000
  In  In28      1.0  0.58341087  0.05602455000000001  0.4617489626927664  1.0000
  In  In29      1.0  0.58341087  0.8343607100000001  0.44725403499762306  1.0000
  In  In30      1.0  0.9167442  0.94435506  0.4653453119272167  1.0000
  In  In31      1.0  0.7500775400000002  0.38935788000000005  0.43995179923223054  1.0000
  In  In32      1.0  0.7500775400000002  0.16769404  0.458152616727891  1.0000
  In  In33      1.0  0.58341087  0.27768839  0.44354814519710595  1.0000
  In  In34      1.0  0.9167442  0.7226912200000001  0.45085038096249846  1.0000
  In  In35      1.0  0.9167442  0.50102738  0.43635544999778025  1.0000
  In  In36      1.0  0.7500775400000002  0.6110217200000001  0.45444672692737387  1.0000
  In  In37      1.0  0.58341087  0.05602455000000001  0.4944447111531449  1.0000
  In  In38      1.0  0.58341087  0.8343607100000001  0.4799497834580016  1.0000
  In  In39      1.0  0.9167442  0.94435506  0.4980410603875952  1.0000
  In  In40      1.0  0.7500775400000002  0.38935788000000005  0.4726475476926091  1.0000
  In  In41      1.0  0.7500775400000002  0.16769404  0.4908483651882696  1.0000
  In  In42      1.0  0.58341087  0.27768839  0.4762438936574846  1.0000
  In  In43      1.0  0.9167442  0.7226912200000001  0.4835461294228771  1.0000
  In  In44      1.0  0.9167442  0.50102738  0.4690511984581589  1.0000
  In  In45      1.0  0.7500775400000002  0.6110217200000001  0.4871424753877525  1.0000
  In  In46      1.0  0.5817500900000001  0.05629322000000001  0.5270174974427138  1.0000
  In  In47      1.0  0.58341087  0.8343607100000001  0.5126455319183801  1.0000
  In  In48      1.0  0.9167442  0.94435506  0.5307368088479738  1.0000
  In  In49      1.0  0.7500775400000002  0.38935788000000005  0.5053432961529878  1.0000
  In  In50      1.0  0.7500775400000002  0.16769404  0.5235441136486482  1.0000
  In  In51      1.0  0.58341087  0.27768839  0.5089396421178631  1.0000
  In  In52      1.0  0.9167442  0.7226912200000001  0.5162418778832557  1.0000
  In  In53      1.0  0.9167442  0.50102738  0.5017469469185375  1.0000
  In  In54      1.0  0.7500775400000002  0.6110217200000001  0.519838223848131  1.0000
