data_image0
_chemical_formula_structural       Al4Pd4Al4Pd4CO
_chemical_formula_sum              "Al8 Pd8 C1 O1"
_cell_length_a       4.93912774
_cell_length_b       4.93912774
_cell_length_c       104.57389418
_cell_angle_alpha    90.0
_cell_angle_beta     90.0
_cell_angle_gamma    90.0

_space_group_name_H-M_alt    "P 1"
_space_group_IT_number       1

loop_
  _space_group_symop_operation_xyz
  'x, y, z'

loop_
  _atom_site_type_symbol
  _atom_site_label
  _atom_site_symmetry_multiplicity
  _atom_site_fract_x
  _atom_site_fract_y
  _atom_site_fract_z
  _atom_site_occupancy
  Al  Al1       1.0  0.34426344  0.340987925  0.4794301569652596  1.0000
  Al  Al2       1.0  0.65573656  0.8409879250000001  0.47052584771433315  1.0000
  Al  Al3       1.0  0.15573656  0.652461045  0.4558146663117516  1.0000
  Al  Al4       1.0  0.8442634399999999  0.15246104500000005  0.4469103570608252  1.0000
  Pd  Pd1       1.0  0.64742065  0.644145135  0.4465175875185894  1.0000
  Pd  Pd2       1.0  0.35257935  0.14414513500000004  0.45620743585398743  1.0000
  Pd  Pd3       1.0  0.85257935  0.34930383500000006  0.4701330781720973  1.0000
  Pd  Pd4       1.0  0.14742065  0.8493038350000002  0.4798229265074954  1.0000
  Al  Al5       1.0  0.35347138  0.35208108500000007  0.5263099900885293  1.0000
  Al  Al6       1.0  0.66324254  0.8401204250000002  0.5184486249968674  1.0000
  Al  Al7       1.0  0.15494005  0.655228825  0.5032687941728939  1.0000
  Al  Al8       1.0  0.8442634399999999  0.15246104500000005  0.4941413383678412  1.0000
  Pd  Pd5       1.0  0.64742065  0.644145135  0.49374856882560525  1.0000
  Pd  Pd6       1.0  0.3536416  0.15058991500000007  0.50296636569196  1.0000
  Pd  Pd7       1.0  0.8510911599999998  0.347608485  0.5171421725752835  1.0000
  Pd  Pd8       1.0  0.1603395  0.8558548650000001  0.5262301758685517  1.0000
  C   C1        1.0  0.28150627  0.531533705  0.5433034826016986  1.0000
  O   O1        1.0  0.23658772  0.6217179050000001  0.5534824124814105  1.0000
