data_image0
_chemical_formula_structural       Al3Re6Al3Re6CO
_chemical_formula_sum              "Al6 Re12 C1 O1"
_cell_length_a       6.0191419
_cell_length_b       5.285296850995609
_cell_length_c       98.76249849999999
_cell_angle_alpha    92.28174787619669
_cell_angle_beta     90.0
_cell_angle_gamma    106.54161208462175

_space_group_name_H-M_alt    "P 1"
_space_group_IT_number       1

loop_
  _space_group_symop_operation_xyz
  'x, y, z'

loop_
  _atom_site_type_symbol
  _atom_site_label
  _atom_site_symmetry_multiplicity
  _atom_site_fract_x
  _atom_site_fract_y
  _atom_site_fract_z
  _atom_site_occupancy
  Al  Al1       1.0  0.22545343499999995  0.9021990649999999  0.47504075745149604  1.0000
  Al  Al2       1.0  0.2763310149999999  0.09780093499999996  0.504467907829409  1.0000
  Al  Al3       1.0  0.308609535  0.313694385  0.5335131172671302  1.0000
  Re  Re1       1.0  0.02644284499999996  0.10615669499999997  0.45556146371131995  1.0000
  Re  Re2       1.0  0.37446403499999986  0.498241435  0.4653971593444695  1.0000
  Re  Re3       1.0  0.07644285499999995  0.3061566949999999  0.4846843584708121  1.0000
  Re  Re4       1.0  0.4244640349999999  0.6982414349999999  0.49452005410396166  1.0000
  Re  Re5       1.0  0.12549907499999993  0.4970665249999999  0.512955597857405  1.0000
  Re  Re6       1.0  0.4749344949999999  0.8989600449999998  0.5238829127794037  1.0000
  Al  Al4       1.0  0.7254534349999999  0.9021990649999999  0.47504075745149604  1.0000
  Al  Al5       1.0  0.7731841649999999  0.10252108499999997  0.5038207679849585  1.0000
  Al  Al6       1.0  0.843108095  0.29569441499999993  0.5336952780615614  1.0000
  Re  Re7       1.0  0.5264428449999999  0.10615669499999997  0.45556146371131995  1.0000
  Re  Re8       1.0  0.8744640349999999  0.498241435  0.4653971593444695  1.0000
  Re  Re9       1.0  0.576442855  0.3061566949999999  0.4846843584708121  1.0000
  Re  Re10      1.0  0.924464035  0.6982414349999999  0.49452005410396166  1.0000
  Re  Re11      1.0  0.627322635  0.510453205  0.5142523908521242  1.0000
  Re  Re12      1.0  0.9735571549999998  0.8934170749999998  0.5235880900665953  1.0000
  C   C1        1.0  0.17089864499999993  0.6877879549999999  0.5330650731804133  1.0000
  O   O1        1.0  0.12834148499999992  0.5207040849999999  0.54443853628868  1.0000
