data_image0
_chemical_formula_structural       COV6Pd2V6Pd2
_chemical_formula_sum              "C1 O1 V12 Pd4"
_cell_length_a       4.82371655
_cell_length_b       4.82371655
_cell_length_c       103.76601585
_cell_angle_alpha    90.0
_cell_angle_beta     90.0
_cell_angle_gamma    90.0

_space_group_name_H-M_alt    "P 1"
_space_group_IT_number       1

loop_
  _space_group_symop_operation_xyz
  'x, y, z'

loop_
  _atom_site_type_symbol
  _atom_site_label
  _atom_site_symmetry_multiplicity
  _atom_site_fract_x
  _atom_site_fract_y
  _atom_site_fract_z
  _atom_site_occupancy
  C   C1        1.0  0.45407898  0.529479455  0.5432699618062297  1.0000
  O   O1        1.0  0.37570187000000005  0.5987228050000001  0.5535999511261203  1.0000
  V   V1        1.0  0.38888675000000006  0.12676004500000002  0.45802166636273645  1.0000
  V   V2        1.0  0.8888867500000001  0.12676004500000002  0.45802166636273645  1.0000
  V   V3        1.0  0.13888675  0.626760045  0.4464000488738798  1.0000
  V   V4        1.0  0.13888675  0.626760045  0.4696432871056465  1.0000
  V   V5        1.0  0.6388867500000001  0.37676004500000004  0.48126490784855663  1.0000
  V   V6        1.0  0.6388867500000001  0.876760045  0.48126490784855663  1.0000
  Pd  Pd1       1.0  0.6388867500000001  0.626760045  0.45802166636273645  1.0000
  Pd  Pd2       1.0  0.13888675  0.12676004500000002  0.48126490784855663  1.0000
  V   V7        1.0  0.3897765000000001  0.125292775  0.5044743071788346  1.0000
  V   V8        1.0  0.8834588099999999  0.12323995500000003  0.5043611865198809  1.0000
  V   V9        1.0  0.13888675  0.626760045  0.4928865253374133  1.0000
  V   V10       1.0  0.14073681  0.6386889250000001  0.5171725803057351  1.0000
  V   V11       1.0  0.61548214  0.404073805  0.5267301256794261  1.0000
  V   V12       1.0  0.6164028500000001  0.867722455  0.526877719780285  1.0000
  Pd  Pd3       1.0  0.6417806100000001  0.6259750350000001  0.5040487453269434  1.0000
  Pd  Pd4       1.0  0.11111324999999998  0.13627307500000002  0.527349622606895  1.0000
