data_image0
_chemical_formula_structural       COSi4Os4Si4Os4
_chemical_formula_sum              "C1 O1 Si8 Os8"
_cell_length_a       4.80958824
_cell_length_b       4.80958824
_cell_length_c       103.66711767999999
_cell_angle_alpha    90.0
_cell_angle_beta     90.0
_cell_angle_gamma    90.0

_space_group_name_H-M_alt    "P 1"
_space_group_IT_number       1

loop_
  _space_group_symop_operation_xyz
  'x, y, z'

loop_
  _atom_site_type_symbol
  _atom_site_label
  _atom_site_symmetry_multiplicity
  _atom_site_fract_x
  _atom_site_fract_y
  _atom_site_fract_z
  _atom_site_occupancy
  C   C1        1.0  0.46183528000000007  0.73269285  0.5457059353233695  1.0000
  O   O1        1.0  0.5467412300000001  0.78310003  0.5560442654324785  1.0000
  Si  Si1       1.0  0.33544968  0.66597487  0.48242147785485195  1.0000
  Si  Si2       1.0  0.66455032  0.16597487000000005  0.4439557345675215  1.0000
  Si  Si3       1.0  0.16455032000000006  0.33687423  0.45922420830861804  1.0000
  Si  Si4       1.0  0.8354496799999999  0.83687423  0.4671530073613733  1.0000
  Os  Os1       1.0  0.62282245  0.37860210000000005  0.4690889513042164  1.0000
  Os  Os2       1.0  0.37717755000000003  0.8786020999999999  0.4572882643657749  1.0000
  Os  Os3       1.0  0.8771775499999999  0.624247  0.44589168175798244  1.0000
  Os  Os4       1.0  0.12282245000000004  0.12424700000000004  0.4804855339120088  1.0000
  Si  Si5       1.0  0.31137918  0.63101162  0.529485737442712  1.0000
  Si  Si6       1.0  0.66455032  0.16597487000000005  0.4903502769076073  1.0000
  Si  Si7       1.0  0.15151593000000005  0.32173342000000005  0.5049790641227393  1.0000
  Si  Si8       1.0  0.8299853899999999  0.82913457  0.5149465325170145  1.0000
  Os  Os5       1.0  0.61331689  0.37037470000000006  0.5148889457581596  1.0000
  Os  Os6       1.0  0.38499302  0.87102445  0.5033285370703744  1.0000
  Os  Os7       1.0  0.8771775499999999  0.624247  0.49228622085045043  1.0000
  Os  Os8       1.0  0.15508497000000002  0.12139790000000004  0.5260528917599826  1.0000
