data_image0
_chemical_formula_structural       COCo3Si6Co3Si6Co3Si6Co3Si6
_chemical_formula_sum              "C1 O1 Co12 Si24"
_cell_length_a       7.61315602
_cell_length_b       7.613156018209118
_cell_length_c       107.29669514
_cell_angle_alpha    90.0
_cell_angle_beta     90.0
_cell_angle_gamma    119.99999992088003

_space_group_name_H-M_alt    "P 1"
_space_group_IT_number       1

loop_
  _space_group_symop_operation_xyz
  'x, y, z'

loop_
  _atom_site_type_symbol
  _atom_site_label
  _atom_site_symmetry_multiplicity
  _atom_site_fract_x
  _atom_site_fract_y
  _atom_site_fract_z
  _atom_site_occupancy
  C   C1        1.0  0.08343079999999996  0.084330395  0.5370421225334336  1.0000
  O   O1        1.0  0.08387038999999996  0.085254305  0.5479869158673908  1.0000
  Co  Co1       1.0  0.24960307999999995  0.416666665  0.4592548237753273  1.0000
  Co  Co2       1.0  0.08315035999999996  0.083745885  0.5206596650633883  1.0000
  Co  Co3       1.0  0.4162697399999999  0.250000005  0.48822177191809757  1.0000
  Si  Si1       1.0  0.24960307999999995  0.416666665  0.4809800357514134  1.0000
  Si  Si2       1.0  0.08293640999999997  0.08333333500000001  0.4520130841326092  1.0000
  Si  Si3       1.0  0.41199138999999996  0.247932345  0.5101422257671874  1.0000
  Si  Si4       1.0  0.08295590999999997  0.083367415  0.4960929065939154  1.0000
  Si  Si5       1.0  0.4162697399999999  0.250000005  0.46649655994201134  1.0000
  Si  Si6       1.0  0.25832504999999994  0.434105775  0.5237181160731443  1.0000
  Co  Co4       1.0  0.24960307999999995  0.916666665  0.4592548237753273  1.0000
  Co  Co5       1.0  0.08243268  0.583242785  0.5174105327371268  1.0000
  Co  Co6       1.0  0.41626974  0.7500000050000001  0.48822177191809757  1.0000
  Si  Si7       1.0  0.24960307999999995  0.916666665  0.4809800357514134  1.0000
  Si  Si8       1.0  0.08293641  0.5833333350000001  0.4520130841326092  1.0000
  Si  Si9       1.0  0.41629486999999993  0.7500305349999999  0.5094143616453102  1.0000
  Si  Si10      1.0  0.08145251999999994  0.582546035  0.4957863482107802  1.0000
  Si  Si11      1.0  0.41626974  0.7500000050000001  0.46649655994201134  1.0000
  Si  Si12      1.0  0.25810265999999993  0.9083105749999999  0.5237133851909845  1.0000
  Co  Co7       1.0  0.74960308  0.416666665  0.4592548237753273  1.0000
  Co  Co8       1.0  0.58328629  0.084020815  0.5174306068329927  1.0000
  Co  Co9       1.0  0.91626974  0.250000005  0.48822177191809757  1.0000
  Si  Si13      1.0  0.74960308  0.416666665  0.4809800357514134  1.0000
  Si  Si14      1.0  0.5829364100000001  0.08333333500000001  0.4520130841326092  1.0000
  Si  Si15      1.0  0.9184943999999999  0.247924365  0.5101418121191513  1.0000
  Si  Si16      1.0  0.58363409  0.084727625  0.49580234144282853  1.0000
  Si  Si17      1.0  0.91626974  0.250000005  0.46649655994201134  1.0000
  Si  Si18      1.0  0.7495862999999999  0.41660942500000003  0.5233709923742075  1.0000
  Co  Co10      1.0  0.74960308  0.916666665  0.4592548237753273  1.0000
  Co  Co11      1.0  0.5833657999999998  0.5832432949999999  0.5174131397625639  1.0000
  Co  Co12      1.0  0.91626974  0.7500000050000001  0.48822177191809757  1.0000
  Si  Si19      1.0  0.74960308  0.916666665  0.4809800357514134  1.0000
  Si  Si20      1.0  0.58293641  0.5833333350000001  0.4520130841326092  1.0000
  Si  Si21      1.0  0.91854748  0.7545546749999998  0.5101348009587425  1.0000
  Si  Si22      1.0  0.58363481  0.582546515  0.49578779076485546  1.0000
  Si  Si23      1.0  0.91626974  0.7500000050000001  0.46649655994201134  1.0000
  Si  Si24      1.0  0.73276179  0.9083147550000001  0.5237141777267174  1.0000
