data_image0
_chemical_formula_structural       COV12Ir4V12Ir4
_chemical_formula_sum              "C1 O1 V24 Ir8"
_cell_length_a       4.78968694
_cell_length_b       6.77364023
_cell_length_c       103.86820115
_cell_angle_alpha    90.0
_cell_angle_beta     90.0
_cell_angle_gamma    90.0

_space_group_name_H-M_alt    "P 1"
_space_group_IT_number       1

loop_
  _space_group_symop_operation_xyz
  'x, y, z'

loop_
  _atom_site_type_symbol
  _atom_site_label
  _atom_site_symmetry_multiplicity
  _atom_site_fract_x
  _atom_site_fract_y
  _atom_site_fract_z
  _atom_site_occupancy
  C   C1        1.0  0.18108734  0.07284500999999999  0.5645186743379004  1.0000
  O   O1        1.0  0.21702682000000004  0.07198985999999999  0.575692586388642  1.0000
  V   V1        1.0  0.12344701000000001  0.6875  0.424307413611358  1.0000
  V   V2        1.0  0.12344701000000001  0.18749999999999997  0.45691431425565593  1.0000
  V   V3        1.0  0.12344701000000001  0.4375  0.47321776457780484  1.0000
  V   V4        1.0  0.12344701000000001  0.9375  0.44061086393350696  1.0000
  V   V5        1.0  0.6234470100000001  0.6875  0.44061086393350696  1.0000
  V   V6        1.0  0.6234470100000001  0.18749999999999997  0.47321776457780484  1.0000
  V   V7        1.0  0.6234470100000001  0.9375  0.424307413611358  1.0000
  V   V8        1.0  0.6234470100000001  0.4375  0.45691431425565593  1.0000
  V   V9        1.0  0.87344701  0.3125  0.4324591387724324  1.0000
  V   V10       1.0  0.87344701  0.8125  0.4650660394167304  1.0000
  V   V11       1.0  0.37344701  0.3125  0.4324591387724324  1.0000
  V   V12       1.0  0.37344701  0.8125  0.4650660394167304  1.0000
  Ir  Ir1       1.0  0.6234470100000001  0.5625  0.48136948973887933  1.0000
  Ir  Ir2       1.0  0.6234470100000001  0.062499999999999986  0.44876258909458144  1.0000
  Ir  Ir3       1.0  0.12344701000000001  0.5625  0.44876258909458144  1.0000
  Ir  Ir4       1.0  0.12344701000000001  0.062499999999999986  0.48136948973887933  1.0000
  V   V13       1.0  0.12344701000000001  0.6875  0.4895212148999538  1.0000
  V   V14       1.0  0.12339720000000001  0.19289083  0.5215785164518218  1.0000
  V   V15       1.0  0.12207042  0.4305322  0.5387624509120688  1.0000
  V   V16       1.0  0.12344701000000001  0.9375  0.5058246652221028  1.0000
  V   V17       1.0  0.6234470100000001  0.6875  0.5058246652221028  1.0000
  V   V18       1.0  0.6241109200000001  0.16595353  0.5392178160616367  1.0000
  V   V19       1.0  0.6234470100000001  0.9375  0.4895212148999538  1.0000
  V   V20       1.0  0.6237360200000001  0.43201467  0.522431274942302  1.0000
  V   V21       1.0  0.87344701  0.3125  0.49767294006102825  1.0000
  V   V22       1.0  0.87792958  0.8166594699999999  0.5298669460438475  1.0000
  V   V23       1.0  0.37344701  0.3125  0.49767294006102825  1.0000
  V   V24       1.0  0.37274338  0.81481228  0.5298246385902616  1.0000
  Ir  Ir5       1.0  0.6267642400000001  0.55573747  0.544335964742649  1.0000
  Ir  Ir6       1.0  0.6234470100000001  0.062499999999999986  0.5139763903831772  1.0000
  Ir  Ir7       1.0  0.12344701000000001  0.5625  0.5139763903831772  1.0000
  Ir  Ir8       1.0  0.12784538000000004  0.07632922999999997  0.5462823391165984  1.0000
