data_image0
_chemical_formula_structural       COOs3V9Os3V9Os3V9Os3V9
_chemical_formula_sum              "C1 O1 Os12 V36"
_cell_length_a       8.48819404
_cell_length_b       8.488194030567541
_cell_length_c       38.812383679999996
_cell_angle_alpha    90.0
_cell_angle_beta     90.0
_cell_angle_gamma    120.00000003675967

_space_group_name_H-M_alt    "P 1"
_space_group_IT_number       1

loop_
  _space_group_symop_operation_xyz
  'x, y, z'

loop_
  _atom_site_type_symbol
  _atom_site_label
  _atom_site_symmetry_multiplicity
  _atom_site_fract_x
  _atom_site_fract_y
  _atom_site_fract_z
  _atom_site_occupancy
  C   C1        1.0  0.10087027499999998  0.120866695  0.6105131403877079  1.0000
  O   O1        1.0  0.14254952499999998  0.204015085  0.6401979018862637  1.0000
  Os  Os1       1.0  0.24970534499999997  0.4176743950000001  0.5379055565392924  1.0000
  Os  Os2       1.0  0.08251885499999997  0.083333335  0.35980209811373626  1.0000
  Os  Os3       1.0  0.41585218499999993  0.25000000499999997  0.44908521703113935  1.0000
  V   V1        1.0  0.24511021499999996  0.408534245  0.602089168215375  1.0000
  V   V2        1.0  0.08251885499999997  0.083333335  0.42676444332839913  1.0000
  V   V3        1.0  0.41585218499999993  0.25000000499999997  0.5160475622458023  1.0000
  V   V4        1.0  0.41585218499999993  0.25000000499999997  0.3821228798519572  1.0000
  V   V5        1.0  0.249185525  0.41666666500000005  0.47140599876936023  1.0000
  V   V6        1.0  0.08274940499999998  0.083775775  0.5609972140909422  1.0000
  V   V7        1.0  0.08251885499999997  0.083333335  0.4937267805075813  1.0000
  V   V8        1.0  0.415000165  0.250779305  0.5811489945723909  1.0000
  V   V9        1.0  0.249185525  0.41666666500000005  0.40444366159017814  1.0000
  Os  Os4       1.0  0.2503357550000001  0.9163310550000002  0.5382206679181947  1.0000
  Os  Os5       1.0  0.08251885499999997  0.583333335  0.35980209811373626  1.0000
  Os  Os6       1.0  0.415852185  0.7500000050000001  0.44908521703113935  1.0000
  V   V10       1.0  0.2536393450000001  0.9128409150000002  0.600199448128694  1.0000
  V   V11       1.0  0.08251885499999997  0.583333335  0.42676444332839913  1.0000
  V   V12       1.0  0.415852185  0.7500000050000001  0.5160475622458023  1.0000
  V   V13       1.0  0.415852185  0.7500000050000001  0.3821228798519572  1.0000
  V   V14       1.0  0.24918552499999988  0.9166666649999999  0.47140599876936023  1.0000
  V   V15       1.0  0.08558502499999993  0.584218775  0.5621637569781219  1.0000
  V   V16       1.0  0.08251885499999997  0.583333335  0.4937267805075813  1.0000
  V   V17       1.0  0.4165662050000001  0.7513878350000001  0.5805817539129629  1.0000
  V   V18       1.0  0.24918552499999988  0.9166666649999999  0.40444366159017814  1.0000
  Os  Os7       1.0  0.7500384449999999  0.418437585  0.538628613206582  1.0000
  Os  Os8       1.0  0.582518855  0.083333335  0.35980209811373626  1.0000
  Os  Os9       1.0  0.915852185  0.25000000499999997  0.44908521703113935  1.0000
  V   V19       1.0  0.7546367549999999  0.427628275  0.5998877036162398  1.0000
  V   V20       1.0  0.582518855  0.083333335  0.42676444332839913  1.0000
  V   V21       1.0  0.915852185  0.25000000499999997  0.5160475622458023  1.0000
  V   V22       1.0  0.915852185  0.25000000499999997  0.3821228798519572  1.0000
  V   V23       1.0  0.7491855249999999  0.41666666500000005  0.47140599876936023  1.0000
  V   V24       1.0  0.5838622749999999  0.086009645  0.5622361164825721  1.0000
  V   V25       1.0  0.582518855  0.083333335  0.4937267805075813  1.0000
  V   V26       1.0  0.917481145  0.250752375  0.5811412483689161  1.0000
  V   V27       1.0  0.7491855249999999  0.41666666500000005  0.40444366159017814  1.0000
  Os  Os10      1.0  0.7477464049999999  0.9163382849999999  0.5382429261999634  1.0000
  Os  Os11      1.0  0.582518855  0.583333335  0.35980209811373626  1.0000
  Os  Os12      1.0  0.915852185  0.7500000050000001  0.44908521703113935  1.0000
  V   V28       1.0  0.7412828550000001  0.9130240450000001  0.6002002275703298  1.0000
  V   V29       1.0  0.582518855  0.583333335  0.42676444332839913  1.0000
  V   V30       1.0  0.915852185  0.7500000050000001  0.5160475622458023  1.0000
  V   V31       1.0  0.915852185  0.7500000050000001  0.3821228798519572  1.0000
  V   V32       1.0  0.7491855249999999  0.9166666649999999  0.47140599876936023  1.0000
  V   V33       1.0  0.5803366849999999  0.5842512249999999  0.5621753682478533  1.0000
  V   V34       1.0  0.582518855  0.583333335  0.4937267805075813  1.0000
  V   V35       1.0  0.9163324349999998  0.750988335  0.5811914058399631  1.0000
  V   V36       1.0  0.7491855249999999  0.9166666649999999  0.40444366159017814  1.0000
