data_image0
_chemical_formula_structural       COCo12Si12
_chemical_formula_sum              "C1 O1 Co12 Si12"
_cell_length_a       6.30023875
_cell_length_b       6.3002387410852485
_cell_length_c       100.86474036999999
_cell_angle_alpha    90.0
_cell_angle_beta     90.0
_cell_angle_gamma    60.00000000569816

_space_group_name_H-M_alt    "P 1"
_space_group_IT_number       1

loop_
  _space_group_symop_operation_xyz
  'x, y, z'

loop_
  _atom_site_type_symbol
  _atom_site_label
  _atom_site_symmetry_multiplicity
  _atom_site_fract_x
  _atom_site_fract_y
  _atom_site_fract_z
  _atom_site_occupancy
  C   C1        1.0  0.11673358500000014  0.31617655499999997  0.5380719977504304  1.0000
  O   O1        1.0  0.10386364500000013  0.31052924499999995  0.5496057737813735  1.0000
  Co  Co1       1.0  0.7164478250000001  0.41123814499999994  0.5122140168920293  1.0000
  Co  Co2       1.0  0.04800308500000016  0.758028515  0.48659415705516273  1.0000
  Co  Co3       1.0  0.38133641500000015  0.09136184499999997  0.4610940508219786  1.0000
  Co  Co4       1.0  0.41237844500000015  0.9350585349999999  0.5119157880376817  1.0000
  Co  Co5       1.0  0.7578026850000003  0.25802851499999996  0.48659415705516273  1.0000
  Co  Co6       1.0  0.0911360150000002  0.5913618449999999  0.4610940508219786  1.0000
  Co  Co7       1.0  0.9370972050000002  0.711304415  0.5116016532364339  1.0000
  Co  Co8       1.0  0.2578026850000001  0.04822891499999996  0.48659415705516273  1.0000
  Co  Co9       1.0  0.5911360150000002  0.3815622449999999  0.4610940508219786  1.0000
  Co  Co10      1.0  0.6878694850000002  0.688095315  0.4758943324518106  1.0000
  Co  Co11      1.0  0.021202815000000142  0.021428644999999958  0.45039422621862657  1.0000
  Co  Co12      1.0  0.35440404500000017  0.35406064499999995  0.5008628685492162  1.0000
  Si  Si1       1.0  0.6462189150000001  0.956824945  0.4943665407857286  1.0000
  Si  Si2       1.0  0.9787971850000001  0.292631455  0.4687926454021881  1.0000
  Si  Si3       1.0  0.3079356250000002  0.6426952649999998  0.5189134438297499  1.0000
  Si  Si4       1.0  0.9570662250000003  0.4603138249999999  0.49406605364188283  1.0000
  Si  Si5       1.0  0.2924056250000001  0.792631455  0.4687926454021881  1.0000
  Si  Si6       1.0  0.6454522050000002  0.10591967499999995  0.5188510073271426  1.0000
  Si  Si7       1.0  0.4600913050000001  0.6469499249999998  0.4945344192118235  1.0000
  Si  Si8       1.0  0.7924056250000001  0.9790230150000001  0.4687926454021881  1.0000
  Si  Si9       1.0  0.11013983500000014  0.31016357499999997  0.5194480158381543  1.0000
  Si  Si10      1.0  0.6878694850000002  0.688095315  0.45279854871118225  1.0000
  Si  Si11      1.0  0.022908075000000146  0.02097698499999996  0.504977306774501  1.0000
  Si  Si12      1.0  0.35453614500000014  0.35476197499999995  0.4782986549443663  1.0000
