data_image0
_chemical_formula_structural       COCo6Sn6Co6Sn6
_chemical_formula_sum              "C1 O1 Co12 Sn12"
_cell_length_a       5.33448223
_cell_length_b       11.487303504350077
_cell_length_c       35.93527192
_cell_angle_alpha    111.75743909764834
_cell_angle_beta     90.0
_cell_angle_gamma    62.32984956477677

_space_group_name_H-M_alt    "P 1"
_space_group_IT_number       1

loop_
  _space_group_symop_operation_xyz
  'x, y, z'

loop_
  _atom_site_type_symbol
  _atom_site_label
  _atom_site_symmetry_multiplicity
  _atom_site_fract_x
  _atom_site_fract_y
  _atom_site_fract_z
  _atom_site_occupancy
  C   C1        1.0  0.8438635250000002  0.8704845449999998  0.6048654408864019  1.0000
  O   O1        1.0  0.7721036350000001  0.941918935  0.6410345712515038  1.0000
  Co  Co1       1.0  0.6504399850000002  0.563227575  0.5361214818163235  1.0000
  Co  Co2       1.0  0.6561364750000002  0.05808106499999996  0.4774587859013091  1.0000
  Co  Co3       1.0  0.665519685  0.302699195  0.5052763433033147  1.0000
  Co  Co4       1.0  0.697414215  0.7820941849999999  0.5621083263297868  1.0000
  Co  Co5       1.0  0.1575728650000001  0.302407585  0.5052515355340613  1.0000
  Co  Co6       1.0  0.16644012500000008  0.781688525  0.5620413918021984  1.0000
  Sn  Sn1       1.0  0.47951667500000017  0.23541152499999993  0.5589296424897426  1.0000
  Sn  Sn2       1.0  0.487362605  0.7268706149999999  0.49587935558713664  1.0000
  Sn  Sn3       1.0  0.8032469950000003  0.4114155649999999  0.5780775433607114  1.0000
  Sn  Sn4       1.0  0.8145104650000001  0.8997164449999999  0.519141061434394  1.0000
  Sn  Sn5       1.0  0.1730842250000001  0.5403595849999999  0.5370007499237403  1.0000
  Sn  Sn6       1.0  0.1561364750000001  0.05808106499999996  0.4774587859013091  1.0000
  Co  Co7       1.0  0.6561364749999999  0.558081065  0.4182121073249027  1.0000
  Co  Co8       1.0  0.6561364750000002  0.05808106499999996  0.35896542874849635  1.0000
  Co  Co9       1.0  0.656136475  0.308081065  0.38858876803669956  1.0000
  Co  Co10      1.0  0.6561364750000003  0.808081065  0.44783544661310587  1.0000
  Co  Co11      1.0  0.15613647500000014  0.308081065  0.38858876803669956  1.0000
  Co  Co12      1.0  0.15613647500000005  0.808081065  0.44783544661310587  1.0000
  Sn  Sn7       1.0  0.48946980500000004  0.22474773499999998  0.43796099702388197  1.0000
  Sn  Sn8       1.0  0.489469805  0.724747735  0.3787143184474756  1.0000
  Sn  Sn9       1.0  0.822803145  0.39141439499999997  0.4577098867228612  1.0000
  Sn  Sn10      1.0  0.8228031450000003  0.8914143949999999  0.3984632081464549  1.0000
  Sn  Sn11      1.0  0.15613647500000005  0.558081065  0.4182121073249027  1.0000
  Sn  Sn12      1.0  0.1561364750000001  0.05808106499999996  0.35896542874849635  1.0000
