data_image0
_chemical_formula_structural       CORh8Sb24
_chemical_formula_sum              "C1 O1 Rh8 Sb24"
_cell_length_a       8.1670094
_cell_length_b       8.16700940581978
_cell_length_c       110.01001151
_cell_angle_alpha    90.0
_cell_angle_beta     90.0
_cell_angle_gamma    109.47122064485914

_space_group_name_H-M_alt    "P 1"
_space_group_IT_number       1

loop_
  _space_group_symop_operation_xyz
  'x, y, z'

loop_
  _atom_site_type_symbol
  _atom_site_label
  _atom_site_symmetry_multiplicity
  _atom_site_fract_x
  _atom_site_fract_y
  _atom_site_fract_z
  _atom_site_occupancy
  C   C1        1.0  0.7754678500000001  0.6633617399999999  0.5589719885373698  1.0000
  O   O1        1.0  0.77917157  0.6124254899999998  0.5688406981549567  1.0000
  Rh  Rh1       1.0  0.7698132500000001  0.7481037100000001  0.543029078972333  1.0000
  Rh  Rh2       1.0  0.2574613300000001  0.25746133  0.48205507528210895  1.0000
  Rh  Rh3       1.0  0.007461330000000065  0.5074613299999999  0.45174721650814936  1.0000
  Rh  Rh4       1.0  0.5074613300000002  0.007461329999999979  0.5123629304191257  1.0000
  Rh  Rh5       1.0  0.27148936000000007  0.26014275  0.5407796044154862  1.0000
  Rh  Rh6       1.0  0.7574613300000002  0.7574613299999999  0.48205507528210895  1.0000
  Rh  Rh7       1.0  0.5074613300000002  0.007461329999999979  0.45174721650814936  1.0000
  Rh  Rh8       1.0  0.007461330000000065  0.5074613299999999  0.5123629304191257  1.0000
  Sb  Sb1       1.0  0.85337026  0.48291997  0.5341647401939922  1.0000
  Sb  Sb2       1.0  0.33218520000000007  0.9925386700000001  0.4723351348081982  1.0000
  Sb  Sb3       1.0  0.2547349  0.7601877599999998  0.4405487133238079  1.0000
  Sb  Sb4       1.0  0.7547349000000001  0.26018775999999993  0.5011644235978414  1.0000
  Sb  Sb5       1.0  0.42455816  0.26965754999999997  0.4423578086663275  1.0000
  Sb  Sb6       1.0  0.9245581600000001  0.7696575499999999  0.502973518940361  1.0000
  Sb  Sb7       1.0  0.11107671000000008  0.93104027  0.5416985180106557  1.0000
  Sb  Sb8       1.0  0.5998342899999999  0.41508836999999993  0.4823856042772549  1.0000
  Sb  Sb9       1.0  0.08234733000000007  0.23904783999999996  0.5218298015048336  1.0000
  Sb  Sb10      1.0  0.5903645000000001  0.74526511  0.461136627986914  1.0000
  Sb  Sb11      1.0  0.7601877600000001  0.2547349  0.4629457233294336  1.0000
  Sb  Sb12      1.0  0.26814741999999997  0.7507953900000001  0.5237066712757217  1.0000
  Sb  Sb13      1.0  0.7452651100000001  0.5903645  0.4423578086663275  1.0000
  Sb  Sb14      1.0  0.2452651100000001  0.09036449999999997  0.502973518940361  1.0000
  Sb  Sb15      1.0  0.76642365  0.92018482  0.5222240715588251  1.0000
  Sb  Sb16      1.0  0.2696575500000001  0.42455815999999996  0.461136627986914  1.0000
  Sb  Sb17      1.0  0.4309914  0.5931127199999999  0.5421661997542965  1.0000
  Sb  Sb18      1.0  0.9150883700000002  0.09983428999999998  0.4817245462869628  1.0000
  Sb  Sb19      1.0  0.9925386700000001  0.33218519999999996  0.43115930184504325  1.0000
  Sb  Sb20      1.0  0.49253867000000007  0.8321852000000001  0.49177501575601956  1.0000
  Sb  Sb21      1.0  0.022383990000000003  0.6827374599999998  0.4723351348081982  1.0000
  Sb  Sb22      1.0  0.5286480800000001  0.21654674999999995  0.5308116098974417  1.0000
  Sb  Sb23      1.0  0.6827374600000001  0.02238398999999998  0.43115930184504325  1.0000
  Sb  Sb24      1.0  0.18273746000000005  0.5223839899999999  0.49177501575601956  1.0000
