data_image0
_chemical_formula_structural       COSi6W3Si6W3
_chemical_formula_sum              "C1 O1 Si12 W6"
_cell_length_a       4.624765984123983
_cell_length_b       6.6646254
_cell_length_c       102.37336191
_cell_angle_alpha    90.0
_cell_angle_beta     119.99999997050226
_cell_angle_gamma    90.0

_space_group_name_H-M_alt    "P 1"
_space_group_IT_number       1

loop_
  _space_group_symop_operation_xyz
  'x, y, z'

loop_
  _atom_site_type_symbol
  _atom_site_label
  _atom_site_symmetry_multiplicity
  _atom_site_fract_x
  _atom_site_fract_y
  _atom_site_fract_z
  _atom_site_occupancy
  C   C1        1.0  0.20737389  0.720278725  0.5406924871113216  1.0000
  O   O1        1.0  0.32343426999999997  0.7671944650000001  0.5536960382369022  1.0000
  Si  Si1       1.0  0.91818686  0.836015365  0.4463039617630979  1.0000
  Si  Si2       1.0  0.24543942000000002  0.169348705  0.45369585695666065  1.0000
  Si  Si3       1.0  0.7545605799999999  0.502682035  0.4766956526570631  1.0000
  Si  Si4       1.0  0.24543942000000002  0.836015365  0.4766956526570631  1.0000
  Si  Si5       1.0  0.91818686  0.169348705  0.4693037574635003  1.0000
  Si  Si6       1.0  0.40906570000000003  0.502682035  0.4463039617630979  1.0000
  W   W1        1.0  0.08181313999999998  0.502682035  0.4614998072100805  1.0000
  W   W2        1.0  0.5818131400000001  0.169348705  0.48408754785062585  1.0000
  W   W3        1.0  0.5818131400000001  0.836015365  0.4614998072100805  1.0000
  Si  Si7       1.0  0.91818686  0.836015365  0.49147944304418867  1.0000
  Si  Si8       1.0  0.24042307  0.16399504499999998  0.4981913650114957  1.0000
  Si  Si9       1.0  0.8399407299999999  0.541810075  0.5253779991024968  1.0000
  Si  Si10      1.0  0.26620847999999997  0.8369196150000002  0.5232229564837042  1.0000
  Si  Si11      1.0  0.9116854200000001  0.16308038499999997  0.5161890571092422  1.0000
  Si  Si12      1.0  0.40906570000000003  0.502682035  0.49147944304418867  1.0000
  W   W4        1.0  0.10785233999999999  0.49513860499999995  0.5074063357623205  1.0000
  W   W5        1.0  0.5175563  0.22092407499999997  0.5255596912778047  1.0000
  W   W6        1.0  0.5766776399999999  0.8287094950000002  0.5058990426983415  1.0000
