data_image0
_chemical_formula_structural       COAl4Fe6Si6Al4Fe6Si6
_chemical_formula_sum              "C1 O1 Al8 Fe12 Si12"
_cell_length_a       6.361147714648647
_cell_length_b       7.500620232590941
_cell_length_c       37.59978624
_cell_angle_alpha    73.22232299946616
_cell_angle_beta     79.39183431351694
_cell_angle_gamma    101.89992996130213

_space_group_name_H-M_alt    "P 1"
_space_group_IT_number       1

loop_
  _space_group_symop_operation_xyz
  'x, y, z'

loop_
  _atom_site_type_symbol
  _atom_site_label
  _atom_site_symmetry_multiplicity
  _atom_site_fract_x
  _atom_site_fract_y
  _atom_site_fract_z
  _atom_site_occupancy
  C   C1        1.0  0.8931638049999999  0.7012656399999999  0.6062681393401397  1.0000
  O   O1        1.0  0.8372437149999999  0.6807686999999999  0.6393495316216468  1.0000
  Al  Al1       1.0  0.6772938649999999  0.09650872999999995  0.5779403679984404  1.0000
  Al  Al2       1.0  0.3596943849999999  0.7188463799999999  0.5123207209576072  1.0000
  Al  Al3       1.0  0.6502347649999999  0.26406669999999993  0.499298854526439  1.0000
  Al  Al4       1.0  0.3103611049999999  0.95759982  0.55778206401996  1.0000
  Fe  Fe1       1.0  0.9633650349999999  0.74456855  0.555789086243226  1.0000
  Fe  Fe2       1.0  0.054532054999999954  0.21022520999999994  0.5778462689703233  1.0000
  Fe  Fe3       1.0  0.6773566649999998  0.9385048499999998  0.5237813190634732  1.0000
  Fe  Fe4       1.0  0.32287605499999994  0.04817611999999994  0.48917602231984303  1.0000
  Fe  Fe5       1.0  0.7125604349999998  0.5758933699999998  0.5107066468773325  1.0000
  Fe  Fe6       1.0  0.29736871499999984  0.40701970999999987  0.5009129372238409  1.0000
  Si  Si1       1.0  0.422104355  0.33696570999999986  0.5597768600105155  1.0000
  Si  Si2       1.0  0.1557277649999999  0.4652375299999999  0.6000659276292107  1.0000
  Si  Si3       1.0  0.5700966249999999  0.6453134399999999  0.5693356926301805  1.0000
  Si  Si4       1.0  0.018708364999999953  0.10136215999999994  0.5275467537168914  1.0000
  Si  Si5       1.0  0.9812916349999999  0.8776834099999999  0.48375228187265884  1.0000
  Si  Si6       1.0  0.9729119749999999  0.46162589999999987  0.5429111947719277  1.0000
  Al  Al5       1.0  0.680055795  0.04240017999999994  0.454885974554659  1.0000
  Al  Al6       1.0  0.3596943849999999  0.7188463799999999  0.3892188988461743  1.0000
  Al  Al7       1.0  0.6502347649999999  0.26406669999999993  0.37619704103213325  1.0000
  Al  Al8       1.0  0.3298733549999999  0.9405129  0.43363178743508124  1.0000
  Fe  Fe7       1.0  0.9767759549999998  0.7587835099999999  0.42762679591247793  1.0000
  Fe  Fe8       1.0  0.03315319499999994  0.22412956999999992  0.4608909660772625  1.0000
  Fe  Fe9       1.0  0.6870530949999998  0.93473696  0.39934173966989744  1.0000
  Fe  Fe10      1.0  0.32287605499999994  0.04817611999999994  0.36607420020841014  1.0000
  Fe  Fe11      1.0  0.7125604349999998  0.5758933699999998  0.3876048247658995  1.0000
  Fe  Fe12      1.0  0.29736871499999984  0.40701970999999987  0.37781111511240806  1.0000
  Si  Si7       1.0  0.41800226499999993  0.3392752999999999  0.4389577924265052  1.0000
  Si  Si8       1.0  0.04749388499999995  0.5243472699999999  0.4718595951617679  1.0000
  Si  Si9       1.0  0.5919268849999998  0.6436377799999999  0.4495599695632354  1.0000
  Si  Si10      1.0  0.02863751499999994  0.10522966999999994  0.4047654801170816  1.0000
  Si  Si11      1.0  0.9812916349999999  0.8776834099999999  0.3606504683783531  1.0000
  Si  Si12      1.0  0.9624352649999998  0.45856580999999985  0.41665815821084545  1.0000
