data_image0
_chemical_formula_structural       COV2Rh6V2Rh6V2Rh6V2Rh6
_chemical_formula_sum              "C1 O1 V8 Rh24"
_cell_length_a       5.439069441742789
_cell_length_b       8.6589344
_cell_length_c       108.07348612999999
_cell_angle_alpha    90.0
_cell_angle_beta     119.99999998940058
_cell_angle_gamma    90.0

_space_group_name_H-M_alt    "P 1"
_space_group_IT_number       1

loop_
  _space_group_symop_operation_xyz
  'x, y, z'

loop_
  _atom_site_type_symbol
  _atom_site_label
  _atom_site_symmetry_multiplicity
  _atom_site_fract_x
  _atom_site_fract_y
  _atom_site_fract_z
  _atom_site_occupancy
  C   C1        1.0  0.7308266849999999  0.12388924000000003  0.5399609601089131  1.0000
  O   O1        1.0  0.858976775  0.1238758  0.5528985630021964  1.0000
  V   V1        1.0  0.646916655  0.37387952  0.4807576266033876  1.0000
  V   V2        1.0  0.313583315  0.12387952000000003  0.44720595163441484  1.0000
  Rh  Rh1       1.0  0.315660045  0.12387952000000003  0.4724219651794501  1.0000
  Rh  Rh2       1.0  0.812544955  0.12387952000000003  0.4471014369978036  1.0000
  Rh  Rh3       1.0  0.812544955  0.12387952000000003  0.4724219651794501  1.0000
  Rh  Rh4       1.0  0.644839925  0.37387952  0.45554161305835245  1.0000
  Rh  Rh5       1.0  0.14795501500000002  0.37387952  0.48086214123999893  1.0000
  Rh  Rh6       1.0  0.14795501500000002  0.37387952  0.45554161305835245  1.0000
  V   V3        1.0  0.6244323650000001  0.38918397  0.5288327142382594  1.0000
  V   V4        1.0  0.313583315  0.12387952000000003  0.4975334605649484  1.0000
  Rh  Rh7       1.0  0.32389783499999997  0.12388594000000004  0.5238273026577741  1.0000
  Rh  Rh8       1.0  0.812544955  0.12387952000000003  0.49742894592833714  1.0000
  Rh  Rh9       1.0  0.821553475  0.12387780000000002  0.5238839724405134  1.0000
  Rh  Rh10      1.0  0.645131255  0.37163723000000004  0.5059472146827801  1.0000
  Rh  Rh11      1.0  0.14102322500000003  0.37809731  0.5307024859136427  1.0000
  Rh  Rh12      1.0  0.14849158499999998  0.37184791  0.5059494411718198  1.0000
  V   V5        1.0  0.646916655  0.8738795199999999  0.4807576266033876  1.0000
  V   V6        1.0  0.313583315  0.6238795199999999  0.44720595163441484  1.0000
  Rh  Rh13      1.0  0.315660045  0.6238795199999999  0.4724219651794501  1.0000
  Rh  Rh14      1.0  0.812544955  0.6238795199999999  0.4471014369978036  1.0000
  Rh  Rh15      1.0  0.812544955  0.6238795199999999  0.4724219651794501  1.0000
  Rh  Rh16      1.0  0.644839925  0.8738795199999999  0.45554161305835245  1.0000
  Rh  Rh17      1.0  0.14795501500000002  0.8738795199999999  0.48086214123999893  1.0000
  Rh  Rh18      1.0  0.14795501500000002  0.8738795199999999  0.45554161305835245  1.0000
  V   V7        1.0  0.624406015  0.8585745899999999  0.5288322139828106  1.0000
  V   V8        1.0  0.313583315  0.6238795199999999  0.4975334605649484  1.0000
  Rh  Rh19      1.0  0.31476114499999996  0.6238677699999999  0.522652914239593  1.0000
  Rh  Rh20      1.0  0.812544955  0.6238795199999999  0.49742894592833714  1.0000
  Rh  Rh21      1.0  0.808833215  0.6238835500000001  0.5226137604434122  1.0000
  Rh  Rh22      1.0  0.6451357950000001  0.8761241999999999  0.5059472322974088  1.0000
  Rh  Rh23      1.0  0.141073165  0.8696637799999999  0.5307023449966148  1.0000
  Rh  Rh24      1.0  0.14849937500000002  0.8759108199999999  0.5059495856117734  1.0000
