data_image0
_chemical_formula_structural       COAl6Os3Al6Os3
_chemical_formula_sum              "C1 O1 Al12 Os6"
_cell_length_a       6.39730914
_cell_length_b       4.7591201341312335
_cell_length_c       40.01872596
_cell_angle_alpha    85.58888948201466
_cell_angle_beta     90.0
_cell_angle_gamma    109.63671971568182

_space_group_name_H-M_alt    "P 1"
_space_group_IT_number       1

loop_
  _space_group_symop_operation_xyz
  'x, y, z'

loop_
  _atom_site_type_symbol
  _atom_site_label
  _atom_site_symmetry_multiplicity
  _atom_site_fract_x
  _atom_site_fract_y
  _atom_site_fract_z
  _atom_site_occupancy
  C   C1        1.0  0.26742158000000005  0.9241744500000001  0.6056307099719987  1.0000
  O   O1        1.0  0.25770402000000003  0.90095038  0.6356459324353558  1.0000
  Al  Al1       1.0  0.4862157600000001  0.9094490000000001  0.5659137492989216  1.0000
  Al  Al2       1.0  0.16513042000000003  0.47952343000000003  0.5403813794434722  1.0000
  Al  Al3       1.0  0.45949064  0.69901874  0.4884111569523573  1.0000
  Al  Al4       1.0  0.10493660000000005  0.27582555000000003  0.46461167300074196  1.0000
  Al  Al5       1.0  0.40934294  0.4934508999999999  0.4139326791580621  1.0000
  Al  Al6       1.0  0.05493661000000004  0.07582555  0.38969356074007866  1.0000
  Os  Os1       1.0  0.31244585  0.10191950000000001  0.5125631830648376  1.0000
  Os  Os2       1.0  0.25713977000000005  0.8846382199999999  0.43927217982530753  1.0000
  Os  Os3       1.0  0.20713978000000002  0.68463822  0.36435406756464433  1.0000
  Al  Al7       1.0  0.037821250000000035  0.9052987600000001  0.5650546033711388  1.0000
  Al  Al8       1.0  0.6471107899999999  0.48838875  0.5401439639457182  1.0000
  Al  Al9       1.0  0.96217875  0.6979718699999999  0.4895972679974793  1.0000
  Al  Al10      1.0  0.6049365999999999  0.27582555000000003  0.46461167300074196  1.0000
  Al  Al11      1.0  0.90934294  0.4934508999999999  0.4139326791580621  1.0000
  Al  Al12      1.0  0.5549366099999999  0.07582555  0.38969356074007866  1.0000
  Os  Os4       1.0  0.80853922  0.09366365999999997  0.5166712353407277  1.0000
  Os  Os5       1.0  0.75713977  0.8846382199999999  0.43927217982530753  1.0000
  Os  Os6       1.0  0.7071397799999999  0.68463822  0.36435406756464433  1.0000
