data_image0
_chemical_formula_structural       COFe6Ga3V3Fe6Ga3V3Fe6Ga3V3Fe6Ga3V3
_chemical_formula_sum              "C1 O1 Fe24 Ga12 V12"
_cell_length_a       8.13053616
_cell_length_b       8.130536159179027
_cell_length_c       109.83132986
_cell_angle_alpha    90.0
_cell_angle_beta     90.0
_cell_angle_gamma    120.0000000033402

_space_group_name_H-M_alt    "P 1"
_space_group_IT_number       1

loop_
  _space_group_symop_operation_xyz
  'x, y, z'

loop_
  _atom_site_type_symbol
  _atom_site_label
  _atom_site_symmetry_multiplicity
  _atom_site_fract_x
  _atom_site_fract_y
  _atom_site_fract_z
  _atom_site_occupancy
  C   C1        1.0  0.2510336650000002  0.32668335  0.5394975040340737  1.0000
  O   O1        1.0  0.2495976050000002  0.32387881  0.5504125815196144  1.0000
  Fe  Fe1       1.0  0.4229987550000001  0.16499584999999997  0.5240849570212539  1.0000
  Fe  Fe2       1.0  0.2545978450000001  0.33365217999999996  0.4949198044111264  1.0000
  Fe  Fe3       1.0  0.08793117500000015  0.00031884999999999677  0.46469821137290535  1.0000
  Fe  Fe4       1.0  0.08860306500000015  0.0016558699999999968  0.5094442392112908  1.0000
  Fe  Fe5       1.0  0.4212645050000002  0.16698551999999997  0.47980900789201586  1.0000
  Fe  Fe6       1.0  0.2545978450000001  0.33365217999999996  0.4495874184803857  1.0000
  Ga  Ga1       1.0  0.4212645050000002  0.16698551999999997  0.5024752008573862  1.0000
  Ga  Ga2       1.0  0.2545978450000001  0.33365217999999996  0.472253611445756  1.0000
  Ga  Ga3       1.0  0.07873549500000007  0.98202692  0.5320000713897605  1.0000
  V   V1        1.0  0.08793117500000015  0.00031884999999999677  0.48736440433827566  1.0000
  V   V2        1.0  0.4212645050000002  0.16698551999999997  0.4571428149266455  1.0000
  V   V3        1.0  0.25438914500000015  0.33327194  0.5211880253509632  1.0000
  Fe  Fe7       1.0  0.4228975250000002  0.6702536099999999  0.5240584865344612  1.0000
  Fe  Fe8       1.0  0.2545978450000001  0.83365218  0.4949198044111264  1.0000
  Fe  Fe9       1.0  0.08793117500000015  0.50031885  0.46469821137290535  1.0000
  Fe  Fe10      1.0  0.08862962500000013  0.49952667  0.5094560655241325  1.0000
  Fe  Fe11      1.0  0.4212645050000002  0.66698552  0.47980900789201586  1.0000
  Fe  Fe12      1.0  0.2545978450000001  0.83365218  0.4495874184803857  1.0000
  Ga  Ga4       1.0  0.4212645050000002  0.66698552  0.5024752008573862  1.0000
  Ga  Ga5       1.0  0.2545978450000001  0.83365218  0.472253611445756  1.0000
  Ga  Ga6       1.0  0.08044630500000013  0.50885972  0.5320447328563794  1.0000
  V   V4        1.0  0.08793117500000015  0.50031885  0.48736440433827566  1.0000
  V   V5        1.0  0.4212645050000002  0.66698552  0.4571428149266455  1.0000
  V   V6        1.0  0.25629960500000015  0.8342491599999999  0.5186702972756878  1.0000
  Fe  Fe13      1.0  0.9175510250000002  0.16503254999999997  0.5240837167271748  1.0000
  Fe  Fe14      1.0  0.7545978450000002  0.33365217999999996  0.4949198044111264  1.0000
  Fe  Fe15      1.0  0.5879311750000001  0.00031884999999999677  0.46469821137290535  1.0000
  Fe  Fe16      1.0  0.5879395850000002  0.00034131999999999674  0.5096510854484064  1.0000
  Fe  Fe17      1.0  0.9212645050000001  0.16698551999999997  0.47980900789201586  1.0000
  Fe  Fe18      1.0  0.7545978450000002  0.33365217999999996  0.4495874184803857  1.0000
  Ga  Ga7       1.0  0.9212645050000001  0.16698551999999997  0.5024752008573862  1.0000
  Ga  Ga8       1.0  0.7545978450000002  0.33365217999999996  0.472253611445756  1.0000
  Ga  Ga9       1.0  0.5876478250000002  0.99968115  0.5324896321450855  1.0000
  V   V7        1.0  0.5879311750000001  0.00031884999999999677  0.48736440433827566  1.0000
  V   V8        1.0  0.9212645050000001  0.16698551999999997  0.4571428149266455  1.0000
  V   V9        1.0  0.7537455950000002  0.33193549000000006  0.5186993644015465  1.0000
  Fe  Fe19      1.0  0.920776255  0.66604662  0.5241235366949764  1.0000
  Fe  Fe20      1.0  0.7545978450000003  0.83365218  0.4949198044111264  1.0000
  Fe  Fe21      1.0  0.5879311750000003  0.50031885  0.46469821137290535  1.0000
  Fe  Fe22      1.0  0.5864380950000002  0.49951964000000004  0.5094570483302594  1.0000
  Fe  Fe23      1.0  0.9212645050000001  0.66698552  0.47980900789201586  1.0000
  Fe  Fe24      1.0  0.7545978450000003  0.83365218  0.4495874184803857  1.0000
  Ga  Ga10      1.0  0.9212645050000001  0.66698552  0.5024752008573862  1.0000
  Ga  Ga11      1.0  0.7545978450000003  0.83365218  0.472253611445756  1.0000
  Ga  Ga12      1.0  0.6039212550000002  0.50883707  0.5320441562284304  1.0000
  V   V10       1.0  0.5879311750000003  0.50031885  0.48736440433827566  1.0000
  V   V11       1.0  0.9212645050000001  0.66698552  0.4571428149266455  1.0000
  V   V12       1.0  0.7534830450000002  0.83423332  0.5186702029843251  1.0000
