data_image0
_chemical_formula_structural       COFe3Si3W3Fe3Si3W3Fe3Si3W3Fe3Si3W3
_chemical_formula_sum              "C1 O1 Fe12 Si12 W12"
_cell_length_a       7.86252536
_cell_length_b       7.8625253602949785
_cell_length_c       31.48164956
_cell_angle_alpha    90.0
_cell_angle_beta     90.0
_cell_angle_gamma    119.99999999875897

_space_group_name_H-M_alt    "P 1"
_space_group_IT_number       1

loop_
  _space_group_symop_operation_xyz
  'x, y, z'

loop_
  _atom_site_type_symbol
  _atom_site_label
  _atom_site_symmetry_multiplicity
  _atom_site_fract_x
  _atom_site_fract_y
  _atom_site_fract_z
  _atom_site_occupancy
  C   C1        1.0  0.2993894949999999  0.36642718999999985  0.6489487129302529  1.0000
  O   O1        1.0  0.327712935  0.33812494  0.6842786016684527  1.0000
  Fe  Fe1       1.0  0.08263866499999997  0.08319940999999995  0.3921912446117367  1.0000
  Fe  Fe2       1.0  0.41597199499999993  0.24986607999999993  0.4941510478087731  1.0000
  Fe  Fe3       1.0  0.253452595  0.4123735799999999  0.5947589130642775  1.0000
  Si  Si1       1.0  0.24978393499999998  0.4160376599999999  0.5192045637837542  1.0000
  Si  Si2       1.0  0.08263866499999997  0.08319940999999995  0.31572139833154705  1.0000
  Si  Si3       1.0  0.41597199499999993  0.24986607999999993  0.41768120152858346  1.0000
  W   W1        1.0  0.08263866499999997  0.08319940999999995  0.46866109089192626  1.0000
  W   W2        1.0  0.4187661449999999  0.24707726999999993  0.5694672394000414  1.0000
  W   W3        1.0  0.24930533499999996  0.4165327399999999  0.3667012999300652  1.0000
  Fe  Fe4       1.0  0.082638665  0.58319941  0.3921912446117367  1.0000
  Fe  Fe5       1.0  0.41597199499999993  0.74986608  0.4941510478087731  1.0000
  Fe  Fe6       1.0  0.24779753499999999  0.9105014  0.5949768093030621  1.0000
  Si  Si4       1.0  0.24955629499999998  0.91634449  0.5204154179176933  1.0000
  Si  Si5       1.0  0.082638665  0.58319941  0.31572139833154705  1.0000
  Si  Si6       1.0  0.41597199499999993  0.74986608  0.41768120152858346  1.0000
  W   W4        1.0  0.082638665  0.58319941  0.46866109089192626  1.0000
  W   W5        1.0  0.4159033549999999  0.7484650199999998  0.568835598469767  1.0000
  W   W6        1.0  0.24930533500000007  0.9165327400000001  0.3667012999300652  1.0000
  Fe  Fe7       1.0  0.582638665  0.08319940999999995  0.3921912446117367  1.0000
  Fe  Fe8       1.0  0.9159719949999998  0.24986607999999993  0.4941510478087731  1.0000
  Fe  Fe9       1.0  0.755332245  0.41803625999999994  0.5949825353651516  1.0000
  Si  Si7       1.0  0.7494816149999999  0.4162638199999999  0.5204164089669011  1.0000
  Si  Si8       1.0  0.582638665  0.08319940999999995  0.31572139833154705  1.0000
  Si  Si9       1.0  0.9159719949999998  0.24986607999999993  0.41768120152858346  1.0000
  W   W7        1.0  0.582638665  0.08319940999999995  0.46866109089192626  1.0000
  W   W8        1.0  0.9173613349999999  0.24992153999999994  0.5688388407912492  1.0000
  W   W9        1.0  0.7493053350000001  0.4165327399999999  0.3667012999300652  1.0000
  Fe  Fe10      1.0  0.582638665  0.58319941  0.3921912446117367  1.0000
  Fe  Fe11      1.0  0.9159719949999998  0.74986608  0.4941510478087731  1.0000
  Fe  Fe12      1.0  0.749047775  0.9168005899999999  0.5954267211730485  1.0000
  Si  Si10      1.0  0.7491192549999999  0.9167394399999998  0.5204189416482099  1.0000
  Si  Si11      1.0  0.582638665  0.58319941  0.31572139833154705  1.0000
  Si  Si12      1.0  0.9159719949999998  0.74986608  0.41768120152858346  1.0000
  W   W10       1.0  0.582638665  0.58319941  0.46866109089192626  1.0000
  W   W11       1.0  0.916149935  0.7496919599999998  0.5688803425062224  1.0000
  W   W12       1.0  0.7493053350000001  0.9165327400000001  0.3667012999300652  1.0000
