data_image0
_chemical_formula_structural       COIr12Si4
_chemical_formula_sum              "C1 O1 Ir12 Si4"
_cell_length_a       5.50789725
_cell_length_b       5.50789724810487
_cell_length_c       40.03041796
_cell_angle_alpha    90.0
_cell_angle_beta     90.0
_cell_angle_gamma    94.28922770569409

_space_group_name_H-M_alt    "P 1"
_space_group_IT_number       1

loop_
  _space_group_symop_operation_xyz
  'x, y, z'

loop_
  _atom_site_type_symbol
  _atom_site_label
  _atom_site_symmetry_multiplicity
  _atom_site_fract_x
  _atom_site_fract_y
  _atom_site_fract_z
  _atom_site_occupancy
  C   C1        1.0  0.5124733400000001  0.562743345  0.5869412315557391  1.0000
  O   O1        1.0  0.48536116999999995  0.546941135  0.6159390561437633  1.0000
  Ir  Ir1       1.0  0.26071538999999994  0.790290915  0.4900196269582284  1.0000
  Ir  Ir2       1.0  0.75841147  0.29212339499999995  0.3962551048079306  1.0000
  Ir  Ir3       1.0  0.2584114699999999  0.7921233950000001  0.3962551048079306  1.0000
  Ir  Ir4       1.0  0.75621367  0.29610669500000003  0.4901546346599884  1.0000
  Ir  Ir5       1.0  0.25841147  0.29212339499999995  0.3840609438562364  1.0000
  Ir  Ir6       1.0  0.75805778  0.792730645  0.4773035605056528  1.0000
  Ir  Ir7       1.0  0.07356251999999994  0.10727444499999998  0.44304699390016233  1.0000
  Ir  Ir8       1.0  0.563914  0.6000774849999999  0.5411473273607688  1.0000
  Ir  Ir9       1.0  0.44326042000000004  0.476972345  0.44304699390016233  1.0000
  Ir  Ir10      1.0  0.9396853299999999  0.973717995  0.5353053862110616  1.0000
  Ir  Ir11      1.0  0.75841147  0.7921233950000001  0.4084492657596248  1.0000
  Ir  Ir12      1.0  0.2556764399999999  0.290333205  0.5049389175838451  1.0000
  Si  Si1       1.0  0.9915885299999999  0.551997985  0.5316152505633098  1.0000
  Si  Si2       1.0  0.50841147  0.04212339499999999  0.44304699390016233  1.0000
  Si  Si3       1.0  0.51826715  0.026282004999999983  0.5313270724201198  1.0000
  Si  Si4       1.0  0.008411469999999954  0.542123395  0.44304699390016233  1.0000
