data_image0
_chemical_formula_structural       COCo12Sb24
_chemical_formula_sum              "C1 O1 Co12 Sb24"
_cell_length_a       9.250197757946417
_cell_length_b       9.435446519337109
_cell_length_c       105.34892804
_cell_angle_alpha    84.22580676009056
_cell_angle_beta     87.15165690745032
_cell_angle_gamma    78.27545219732487

_space_group_name_H-M_alt    "P 1"
_space_group_IT_number       1

loop_
  _space_group_symop_operation_xyz
  'x, y, z'

loop_
  _atom_site_type_symbol
  _atom_site_label
  _atom_site_symmetry_multiplicity
  _atom_site_fract_x
  _atom_site_fract_y
  _atom_site_fract_z
  _atom_site_occupancy
  C   C1        1.0  0.04882567499999998  0.2791813350000001  0.5390502642003903  1.0000
  O   O1        1.0  0.059589654999999984  0.328154795  0.5486757024446177  1.0000
  Co  Co1       1.0  0.9403211749999999  0.630624255  0.4968238807582414  1.0000
  Co  Co2       1.0  0.35698783500000003  0.04729091500000005  0.46886209756491753  1.0000
  Co  Co3       1.0  0.512142805  0.24491338500000004  0.523580402556004  1.0000
  Co  Co4       1.0  0.03406924499999998  0.789689085  0.45535312986450643  1.0000
  Co  Co5       1.0  0.20122464500000004  0.9533294949999999  0.5121244114291924  1.0000
  Co  Co6       1.0  0.617402575  0.37302241500000005  0.48331491305783053  1.0000
  Co  Co7       1.0  0.5334488249999999  0.789068665  0.45539476384287536  1.0000
  Co  Co8       1.0  0.6994687950000001  0.9432812749999999  0.5105148863853506  1.0000
  Co  Co9       1.0  0.11678215499999997  0.37240199500000004  0.4833565503916134  1.0000
  Co  Co10      1.0  0.4397007549999999  0.630003835  0.49686551809202456  1.0000
  Co  Co11      1.0  0.856367425  0.04667050500000005  0.4689037348987005  1.0000
  Co  Co12      1.0  0.033582914999999984  0.21185277500000005  0.5242542066203364  1.0000
  Sb  Sb1       1.0  0.127670425  0.934250165  0.4712117799872636  1.0000
  Sb  Sb2       1.0  0.305458815  0.11099963500000004  0.5262570835057486  1.0000
  Sb  Sb3       1.0  0.7110037549999999  0.517583495  0.4991735665360017  1.0000
  Sb  Sb4       1.0  0.9664170849999998  0.605760265  0.47293256385241056  1.0000
  Sb  Sb5       1.0  0.157777765  0.748511655  0.5295415339699949  1.0000
  Sb  Sb6       1.0  0.554363035  0.18980780500000005  0.5014139127893317  1.0000
  Sb  Sb7       1.0  0.346099575  0.485442755  0.48100686461385334  1.0000
  Sb  Sb8       1.0  0.7627662449999998  0.902109425  0.4530450814205293  1.0000
  Sb  Sb9       1.0  0.9228140849999998  0.06075609500000005  0.5102000176799864  1.0000
  Sb  Sb10      1.0  0.5073529149999999  0.813932655  0.4792860807487062  1.0000
  Sb  Sb11      1.0  0.9240195849999998  0.23059932500000002  0.4513242975553822  1.0000
  Sb  Sb12      1.0  0.095213095  0.40541279500000005  0.507579895590605  1.0000
  Sb  Sb13      1.0  0.16153849500000003  0.7643064449999999  0.49614332224529084  1.0000
  Sb  Sb14      1.0  0.578205155  0.18097310500000005  0.4681815356965527  1.0000
  Sb  Sb15      1.0  0.750576975  0.342743335  0.5241061858819607  1.0000
  Sb  Sb16      1.0  0.8685321449999999  0.705261235  0.5198145004971204  1.0000
  Sb  Sb17      1.0  0.278648595  0.12180356500000004  0.4918831576206696  1.0000
  Sb  Sb18      1.0  0.695315265  0.538470235  0.46392137442734555  1.0000
  Sb  Sb19      1.0  0.31223150499999996  0.655386475  0.4560753257112401  1.0000
  Sb  Sb20      1.0  0.4732698549999999  0.829845745  0.5104341484108573  1.0000
  Sb  Sb21      1.0  0.8955648349999998  0.23871980500000006  0.48403710890456414  1.0000
  Sb  Sb22      1.0  0.352535435  0.491630455  0.5172237986787205  1.0000
  Sb  Sb23      1.0  0.778454735  0.881222685  0.4882972735291854  1.0000
  Sb  Sb24      1.0  0.19512140499999997  0.2978893550000001  0.4603354869804472  1.0000
