data_image0
_chemical_formula_structural       CONi20Sb8
_chemical_formula_sum              "C1 O1 Ni20 Sb8"
_cell_length_a       6.213746020378101
_cell_length_b       7.1077483725273645
_cell_length_c       104.85949088999999
_cell_angle_alpha    84.64856884809409
_cell_angle_beta     89.87596413135213
_cell_angle_gamma    64.41802098144882

_space_group_name_H-M_alt    "P 1"
_space_group_IT_number       1

loop_
  _space_group_symop_operation_xyz
  'x, y, z'

loop_
  _atom_site_type_symbol
  _atom_site_label
  _atom_site_symmetry_multiplicity
  _atom_site_fract_x
  _atom_site_fract_y
  _atom_site_fract_z
  _atom_site_occupancy
  C   C1        1.0  0.41040801999999976  0.6345463650000001  0.5447309794062438  1.0000
  O   O1        1.0  0.40937157999999996  0.574008715  0.5558100183479827  1.0000
  Ni  Ni1       1.0  0.03749022999999992  0.926719265  0.47506746251035326  1.0000
  Ni  Ni2       1.0  0.10949117999999988  0.7827173550000001  0.45113146549860633  1.0000
  Ni  Ni3       1.0  0.9057313899999997  0.6356448650000001  0.469168530502159  1.0000
  Ni  Ni4       1.0  0.24125000999999996  0.07379174499999998  0.4570304008312007  1.0000
  Ni  Ni5       1.0  0.5356399399999998  0.537288975  0.44418998165201745  1.0000
  Ni  Ni6       1.0  0.6113414599999999  0.172147645  0.48200894968134217  1.0000
  Ni  Ni7       1.0  0.26326207999999995  0.5343312549999999  0.4859768938800333  1.0000
  Ni  Ni8       1.0  0.8115173999999997  0.31950922499999995  0.4642248449352052  1.0000
  Ni  Ni9       1.0  0.3354640099999999  0.38992739499999995  0.4619740830737542  1.0000
  Ni  Ni10      1.0  0.7408621799999999  0.46081964499999994  0.4877134674434404  1.0000
  Ni  Ni11      1.0  0.9065564899999998  0.20787675499999997  0.5220722435333971  1.0000
  Ni  Ni12      1.0  0.9666340400000001  0.06843163499999998  0.49862289548872046  1.0000
  Ni  Ni13      1.0  0.77222152  0.917936635  0.5175950876637103  1.0000
  Ni  Ni14      1.0  0.10219229999999997  0.362178305  0.5044623307071475  1.0000
  Ni  Ni15      1.0  0.39278279999999993  0.823003255  0.49168141164213164  1.0000
  Ni  Ni16      1.0  0.46781906999999984  0.46457061499999996  0.5288076079209062  1.0000
  Ni  Ni17      1.0  0.1470033499999999  0.808298525  0.53223562631547  1.0000
  Ni  Ni18      1.0  0.6756269399999999  0.6042983149999999  0.510896132106817  1.0000
  Ni  Ni19      1.0  0.18819149999999985  0.6765543550000002  0.5091506823949671  1.0000
  Ni  Ni20      1.0  0.5935068099999999  0.727934365  0.5337191565114572  1.0000
  Sb  Sb1       1.0  0.97620453  0.49429691499999995  0.44538100452621665  1.0000
  Sb  Sb2       1.0  0.17077688  0.215139705  0.48081792348274277  1.0000
  Sb  Sb3       1.0  0.4614471999999999  0.678441765  0.4679829131026293  1.0000
  Sb  Sb4       1.0  0.6855342099999999  0.03099485499999998  0.4582160149063302  1.0000
  Sb  Sb5       1.0  0.8333473899999998  0.780011205  0.49287243451633095  1.0000
  Sb  Sb6       1.0  0.02379547000000001  0.49743134499999997  0.5288250543729764  1.0000
  Sb  Sb7       1.0  0.3239286999999999  0.969005145  0.5152524360572764  1.0000
  Sb  Sb8       1.0  0.5473685399999998  0.313370015  0.5062971037270521  1.0000
