data_image0
_chemical_formula_structural       COFe12Si12
_chemical_formula_sum              "C1 O1 Fe12 Si12"
_cell_length_a       6.32500714
_cell_length_b       6.325007137957949
_cell_length_c       100.98608023
_cell_angle_alpha    90.0
_cell_angle_beta     90.0
_cell_angle_gamma    59.99999998932009

_space_group_name_H-M_alt    "P 1"
_space_group_IT_number       1

loop_
  _space_group_symop_operation_xyz
  'x, y, z'

loop_
  _atom_site_type_symbol
  _atom_site_label
  _atom_site_symmetry_multiplicity
  _atom_site_fract_x
  _atom_site_fract_y
  _atom_site_fract_z
  _atom_site_occupancy
  C   C1        1.0  0.4493955749999998  0.895968475  0.5355654537996621  1.0000
  O   O1        1.0  0.4657811449999998  0.871388915  0.5471339248837526  1.0000
  Fe  Fe1       1.0  0.7046410849999999  0.436677905  0.5149802939781442  1.0000
  Fe  Fe2       1.0  0.037871724999999995  0.7652626450000001  0.49006426017693433  1.0000
  Fe  Fe3       1.0  0.37120505499999995  0.098595975  0.46449466441351767  1.0000
  Fe  Fe4       1.0  0.42287048499999985  0.9437302549999999  0.5182256434553617  1.0000
  Fe  Fe5       1.0  0.7652626449999999  0.265262645  0.49006426017693433  1.0000
  Fe  Fe6       1.0  0.09859597499999999  0.598595975  0.46449466441351767  1.0000
  Fe  Fe7       1.0  0.931258495  0.7164109049999999  0.515046585714772  1.0000
  Fe  Fe8       1.0  0.26526264499999996  0.03787172500000001  0.49006426017693433  1.0000
  Fe  Fe9       1.0  0.5985959749999998  0.37120505500000006  0.46449466441351767  1.0000
  Fe  Fe10      1.0  0.6894656750000001  0.689465675  0.4784356739480157  1.0000
  Fe  Fe11      1.0  0.022799005000000004  0.02279900500000001  0.45286607511624744  1.0000
  Fe  Fe12      1.0  0.3570416750000001  0.35593185499999996  0.5038179222985637  1.0000
  Si  Si1       1.0  0.6428230749999998  0.958927375  0.49777305790204457  1.0000
  Si  Si2       1.0  0.977200995  0.295598015  0.4720505600409819  1.0000
  Si  Si3       1.0  0.30218973499999996  0.639055515  0.5216575180272152  1.0000
  Si  Si4       1.0  0.9615754049999998  0.463566555  0.49717341301440493  1.0000
  Si  Si5       1.0  0.2955980150000001  0.7955980149999998  0.4720505600409819  1.0000
  Si  Si6       1.0  0.6626836949999999  0.122261725  0.5212436526247691  1.0000
  Si  Si7       1.0  0.46048440500000004  0.6456069249999999  0.4972484833050015  1.0000
  Si  Si8       1.0  0.7955980150000002  0.9772009949999999  0.4720505600409819  1.0000
  Si  Si9       1.0  0.09860998500000001  0.319591015  0.5215480085580992  1.0000
  Si  Si10      1.0  0.6894656750000001  0.689465675  0.45576799320232625  1.0000
  Si  Si11      1.0  0.027644975000000006  0.023850465000000008  0.5079140980632744  1.0000
  Si  Si12      1.0  0.35613233499999997  0.35613233499999997  0.4813375889657429  1.0000
