data_image0
_chemical_formula_structural       COIr12V12
_chemical_formula_sum              "C1 O1 Ir12 V12"
_cell_length_a       6.654265330932026
_cell_length_b       6.654265329712481
_cell_length_c       103.85788923999999
_cell_angle_alpha    88.03542366197205
_cell_angle_beta     88.03542366233225
_cell_angle_gamma    64.00505317667157

_space_group_name_H-M_alt    "P 1"
_space_group_IT_number       1

loop_
  _space_group_symop_operation_xyz
  'x, y, z'

loop_
  _atom_site_type_symbol
  _atom_site_label
  _atom_site_symmetry_multiplicity
  _atom_site_fract_x
  _atom_site_fract_y
  _atom_site_fract_z
  _atom_site_occupancy
  C   C1        1.0  0.248668725  0.24867406000000006  0.536509458479277  1.0000
  O   O1        1.0  0.24799821499999994  0.24799444  0.5479888267300779  1.0000
  Ir  Ir1       1.0  0.22195059500000006  0.7829771  0.46796847040639616  1.0000
  Ir  Ir2       1.0  0.7453393950000001  0.25616315  0.5208563604155825  1.0000
  Ir  Ir3       1.0  0.481778025  0.02706775000000003  0.4949144570038014  1.0000
  Ir  Ir4       1.0  0.782976975  0.22195072000000002  0.4679684704063961  1.0000
  Ir  Ir5       1.0  0.25616307499999996  0.74533928  0.5208563408554568  1.0000
  Ir  Ir6       1.0  0.02706787500000002  0.48177777  0.4949144146235293  1.0000
  Ir  Ir7       1.0  0.04825859500000004  0.45760463999999995  0.5216291777166154  1.0000
  Ir  Ir8       1.0  0.7854725050000001  0.21810009000000002  0.4946042725325993  1.0000
  Ir  Ir9       1.0  0.533958505  0.9729322499999999  0.4678618090416929  1.0000
  Ir  Ir10      1.0  0.457605585  0.04825689000000003  0.5216290831760088  1.0000
  Ir  Ir11      1.0  0.21810029500000003  0.7854720300000001  0.4946042627525365  1.0000
  Ir  Ir12      1.0  0.972932125  0.53395863  0.4678618090416928  1.0000
  V   V1        1.0  0.14362119499999998  0.14362132  0.4526292667177191  1.0000
  V   V2        1.0  0.6425880950000001  0.6425870699999999  0.5088418108292316  1.0000
  V   V3        1.0  0.39362119500000003  0.39362131999999994  0.47979610669287326  1.0000
  V   V4        1.0  0.11339859499999999  0.11339943000000001  0.510408547546761  1.0000
  V   V5        1.0  0.8565999850000001  0.85660011  0.4838191061781668  1.0000
  V   V6        1.0  0.6065999849999999  0.6066001099999999  0.45665226294299166  1.0000
  V   V7        1.0  0.362287905  0.36228803  0.4560341727552157  1.0000
  V   V8        1.0  0.855554385  0.85555371  0.5113690866328577  1.0000
  V   V9        1.0  0.6122879050000001  0.61228803  0.4832010127303699  1.0000
  V   V10       1.0  0.14930911500000002  0.14930924  0.4791780165050974  1.0000
  V   V11       1.0  0.8993091149999999  0.8993092399999999  0.4520111732699222  1.0000
  V   V12       1.0  0.40792002500000013  0.40791965  0.5076848391821533  1.0000
