data_image0
_chemical_formula_structural       COGa8V24
_chemical_formula_sum              "C1 O1 Ga8 V24"
_cell_length_a       6.79194266
_cell_length_b       8.318396935968748
_cell_length_c       101.49294252
_cell_angle_alpha    95.05115251318594
_cell_angle_beta     90.0
_cell_angle_gamma    90.0

_space_group_name_H-M_alt    "P 1"
_space_group_IT_number       1

loop_
  _space_group_symop_operation_xyz
  'x, y, z'

loop_
  _atom_site_type_symbol
  _atom_site_label
  _atom_site_symmetry_multiplicity
  _atom_site_fract_x
  _atom_site_fract_y
  _atom_site_fract_z
  _atom_site_occupancy
  C   C1        1.0  0.21086415500000003  0.6223248950000001  0.5287646596003742  1.0000
  O   O1        1.0  0.30794370500000007  0.670838515  0.5397689378570212  1.0000
  Ga  Ga1       1.0  0.06994265500000003  0.5242745750000001  0.4844730052109926  1.0000
  Ga  Ga2       1.0  0.572135005  0.209985415  0.5028189043389325  1.0000
  Ga  Ga3       1.0  0.055057345000000035  0.9288083750000001  0.5234552815429371  1.0000
  Ga  Ga4       1.0  0.569942655  0.8367745750000001  0.4650794507565819  1.0000
  Ga  Ga5       1.0  0.07895572500000003  0.3866248950000001  0.523972515397658  1.0000
  Ga  Ga6       1.0  0.569942655  0.336774575  0.46507945075658186  1.0000
  Ga  Ga7       1.0  0.06994265500000003  0.02427457500000002  0.48447300521099257  1.0000
  Ga  Ga8       1.0  0.567688155  0.7075102150000001  0.5038457263334662  1.0000
  V   V1        1.0  0.944942655  0.7586495750000001  0.46992783937018456  1.0000
  V   V2        1.0  0.444942655  0.4461495750000001  0.4893213938245953  1.0000
  V   V3        1.0  0.9389727750000001  0.13817511500000002  0.5080733753649983  1.0000
  V   V4        1.0  0.411279445  0.8129039050000001  0.5268303681998723  1.0000
  V   V5        1.0  0.6949426550000002  0.6023995750000001  0.47962461659739  1.0000
  V   V6        1.0  0.20548969500000003  0.289473545  0.4990748871139315  1.0000
  V   V7        1.0  0.6855563350000001  0.975725425  0.5167501292021195  1.0000
  V   V8        1.0  0.19494265500000002  0.9148995750000001  0.46023106214297915  1.0000
  V   V9        1.0  0.319942655  0.5867745750000001  0.46507945075658186  1.0000
  V   V10       1.0  0.8199426550000001  0.274274575  0.48447300521099257  1.0000
  V   V11       1.0  0.32352826500000004  0.9664468850000001  0.5046149646892208  1.0000
  V   V12       1.0  0.8448294350000001  0.6556464850000001  0.5221410501743577  1.0000
  V   V13       1.0  0.319942655  0.7742745750000001  0.4844730052109926  1.0000
  V   V14       1.0  0.8172563650000001  0.465103885  0.5054731434371877  1.0000
  V   V15       1.0  0.35411045500000005  0.148536195  0.5227246099853128  1.0000
  V   V16       1.0  0.8199426550000001  0.08677457500000003  0.46507945075658186  1.0000
  V   V17       1.0  0.944942655  0.4148995750000001  0.46023106214297915  1.0000
  V   V18       1.0  0.444942655  0.10239957500000003  0.47962461659738986  1.0000
  V   V19       1.0  0.937930035  0.7881448950000001  0.4990736924709771  1.0000
  V   V20       1.0  0.466413935  0.4603855750000001  0.5181857766334583  1.0000
  V   V21       1.0  0.19494265500000002  0.258649575  0.4699278393701845  1.0000
  V   V22       1.0  0.6949426550000002  0.9461495750000001  0.4893213938245952  1.0000
  V   V23       1.0  0.19250482500000005  0.640663035  0.5096336131960897  1.0000
  V   V24       1.0  0.7083631450000001  0.2767710650000001  0.5262749492121729  1.0000
