data_image0
_chemical_formula_structural       COPt6Sn24
_chemical_formula_sum              "C1 O1 Pt6 Sn24"
_cell_length_a       6.5855848137846715
_cell_length_b       9.383889481477393
_cell_length_c       30.595753449999997
_cell_angle_alpha    92.05949235338788
_cell_angle_beta     94.79347764866411
_cell_angle_gamma    69.45772096799283

_space_group_name_H-M_alt    "P 1"
_space_group_IT_number       1

loop_
  _space_group_symop_operation_xyz
  'x, y, z'

loop_
  _atom_site_type_symbol
  _atom_site_label
  _atom_site_symmetry_multiplicity
  _atom_site_fract_x
  _atom_site_fract_y
  _atom_site_fract_z
  _atom_site_occupancy
  C   C1        1.0  0.29362133000000007  0.43500161499999995  0.7114039086209842  1.0000
  O   O1        1.0  0.3406224100000001  0.41588518499999994  0.7484007580174498  1.0000
  Pt  Pt1       1.0  0.3363111799999999  0.777777775  0.39469915223771557  1.0000
  Pt  Pt2       1.0  0.6696445199999999  0.22222222500000002  0.5377990624928812  1.0000
  Pt  Pt3       1.0  0.002977850000000054  0.33333333499999995  0.2515992419825501  1.0000
  Pt  Pt4       1.0  0.002977849999999986  0.5000000050000001  0.4662491138047945  1.0000
  Pt  Pt5       1.0  0.32752784  0.954175475  0.6057008048604515  1.0000
  Pt  Pt6       1.0  0.66964452  0.05555555499999998  0.3231491906706369  1.0000
  Sn  Sn1       1.0  0.6837662799999998  0.796676845  0.4544334886107848  1.0000
  Sn  Sn2       1.0  0.9970221499999998  0.25052031499999994  0.6014334152390627  1.0000
  Sn  Sn3       1.0  0.3504329400000001  0.35223240499999997  0.31133357835561937  1.0000
  Sn  Sn4       1.0  0.7962872399999998  0.508163135  0.6662892373494168  1.0000
  Sn  Sn5       1.0  0.09993996000000002  0.573738925  0.38265309611791604  1.0000
  Sn  Sn6       1.0  0.43327329  0.01818337499999997  0.5257530063730816  1.0000
  Sn  Sn7       1.0  0.10070133000000002  0.851516705  0.31110313455083727  1.0000
  Sn  Sn8       1.0  0.43403466  0.295961155  0.45420304480600293  1.0000
  Sn  Sn9       1.0  0.7718587699999999  0.763343395  0.6047343524178956  1.0000
  Sn  Sn10      1.0  0.6830049  0.518899075  0.5259834372988715  1.0000
  Sn  Sn11      1.0  0.038413500000000024  0.9445505350000001  0.6642957368067018  1.0000
  Sn  Sn12      1.0  0.34967157  0.07445462499999997  0.38288352704370604  1.0000
  Sn  Sn13      1.0  0.23934908000000002  0.704038845  0.47829516992459414  1.0000
  Sn  Sn14      1.0  0.5669880099999999  0.14725070499999998  0.6211292320258275  1.0000
  Sn  Sn15      1.0  0.9060157400000001  0.259594405  0.3351952596694285  1.0000
  Sn  Sn16      1.0  0.32218942  0.036656484999999975  0.2634148671765597  1.0000
  Sn  Sn17      1.0  0.6555227599999999  0.481100925  0.4065147774317253  1.0000
  Sn  Sn18      1.0  0.9888560900000003  0.925545375  0.5496146876868908  1.0000
  Sn  Sn19      1.0  0.2385877  0.42626107499999993  0.5498451186126809  1.0000
  Sn  Sn20      1.0  0.57192104  0.537372185  0.26364529810234977  1.0000
  Sn  Sn21      1.0  0.90525437  0.9818166250000001  0.4067452083575154  1.0000
  Sn  Sn22      1.0  0.6562841299999999  0.7588787050000001  0.3349648158646465  1.0000
  Sn  Sn23      1.0  0.9896174600000001  0.20332315499999998  0.47806472611981204  1.0000
  Sn  Sn24      1.0  0.3536321199999998  0.6515086750000001  0.619105568883727  1.0000
