data_image0
_chemical_formula_structural       COOs3Re3V6Os3Re3V6Os3Re3V6Os3Re3V6
_chemical_formula_sum              "C1 O1 Os12 Re12 V24"
_cell_length_a       8.573575
_cell_length_b       8.573574990256203
_cell_length_c       38.49867398
_cell_angle_alpha    90.0
_cell_angle_beta     90.0
_cell_angle_gamma    120.00000003759486

_space_group_name_H-M_alt    "P 1"
_space_group_IT_number       1

loop_
  _space_group_symop_operation_xyz
  'x, y, z'

loop_
  _atom_site_type_symbol
  _atom_site_label
  _atom_site_symmetry_multiplicity
  _atom_site_fract_x
  _atom_site_fract_y
  _atom_site_fract_z
  _atom_site_occupancy
  C   C1        1.0  0.030028415000000072  0.27757884  0.6232422473120167  1.0000
  O   O1        1.0  0.08275185500000008  0.30314178  0.6528076119073699  1.0000
  Os  Os1       1.0  0.1355426950000001  0.08135581000000003  0.4835664645365416  1.0000
  Os  Os2       1.0  0.4671973450000001  0.24566627000000002  0.5717261827257855  1.0000
  Os  Os3       1.0  0.3022093650000002  0.41468914000000007  0.3926504163014153  1.0000
  Re  Re1       1.0  0.29744627500000015  0.4123086700000001  0.5296147988333345  1.0000
  Re  Re2       1.0  0.1355426950000001  0.08135581000000003  0.34719238809263  1.0000
  Re  Re3       1.0  0.4688760250000001  0.24802248000000002  0.43810843632775626  1.0000
  V   V1        1.0  0.3305886550000001  0.42872619000000006  0.5934229078242186  1.0000
  V   V2        1.0  0.1355426950000001  0.08135581000000003  0.415379430405808  1.0000
  V   V3        1.0  0.4688760250000001  0.24802248000000002  0.5062954786409344  1.0000
  V   V4        1.0  0.4688760250000001  0.24802248000000002  0.3699214021970227  1.0000
  V   V5        1.0  0.3022093650000002  0.41468914000000007  0.4608374504321489  1.0000
  V   V6        1.0  0.13528981500000012  0.08135251000000003  0.5546549852772217  1.0000
  Os  Os4       1.0  0.13554269500000007  0.58135581  0.4835664645365416  1.0000
  Os  Os5       1.0  0.4672318850000002  0.7487776500000001  0.571732327741547  1.0000
  Os  Os6       1.0  0.3022093650000002  0.9146891400000001  0.3926504163014153  1.0000
  Re  Re4       1.0  0.3017519050000001  0.91447957  0.5291584393605312  1.0000
  Re  Re5       1.0  0.13554269500000007  0.58135581  0.34719238809263  1.0000
  Re  Re6       1.0  0.4688760250000001  0.74802248  0.43810843632775626  1.0000
  V   V7        1.0  0.30086100500000007  0.9140322100000001  0.5920396164998463  1.0000
  V   V8        1.0  0.13554269500000007  0.58135581  0.415379430405808  1.0000
  V   V9        1.0  0.4688760250000001  0.74802248  0.5062954786409344  1.0000
  V   V10       1.0  0.4688760250000001  0.74802248  0.3699214021970227  1.0000
  V   V11       1.0  0.3022093650000002  0.9146891400000001  0.4608374504321489  1.0000
  V   V12       1.0  0.13540921500000014  0.58107602  0.5546754413882792  1.0000
  Os  Os7       1.0  0.6355426950000002  0.08135581000000003  0.4835664645365416  1.0000
  Os  Os8       1.0  0.9661470550000002  0.24673380000000003  0.5756303951699909  1.0000
  Os  Os9       1.0  0.8022093650000002  0.41468914000000007  0.3926504163014153  1.0000
  Re  Re7       1.0  0.8037125650000002  0.41213243000000005  0.5294331731144776  1.0000
  Re  Re8       1.0  0.6355426950000002  0.08135581000000003  0.34719238809263  1.0000
  Re  Re9       1.0  0.9688760250000003  0.24802248000000002  0.43810843632775626  1.0000
  V   V13       1.0  0.7907112850000002  0.42406645000000004  0.5922901956778558  1.0000
  V   V14       1.0  0.6355426950000002  0.08135581000000003  0.415379430405808  1.0000
  V   V15       1.0  0.9688760250000003  0.24802248000000002  0.5062954786409344  1.0000
  V   V16       1.0  0.9688760250000003  0.24802248000000002  0.3699214021970227  1.0000
  V   V17       1.0  0.8022093650000002  0.41468914000000007  0.4608374504321489  1.0000
  V   V18       1.0  0.6354305550000003  0.08125103000000003  0.5552456432103392  1.0000
  Os  Os10      1.0  0.635542695  0.58135581  0.4835664645365416  1.0000
  Os  Os11      1.0  0.9699715850000001  0.7485658000000001  0.5715287485243032  1.0000
  Os  Os12      1.0  0.8022093650000002  0.9146891400000001  0.3926504163014153  1.0000
  Re  Re10      1.0  0.8037103250000002  0.91874897  0.529423820580502  1.0000
  Re  Re11      1.0  0.635542695  0.58135581  0.34719238809263  1.0000
  Re  Re12      1.0  0.968876025  0.74802248  0.43810843632775626  1.0000
  V   V19       1.0  0.7907285950000001  0.89380262  0.592292347660739  1.0000
  V   V20       1.0  0.635542695  0.58135581  0.415379430405808  1.0000
  V   V21       1.0  0.968876025  0.74802248  0.5062954786409344  1.0000
  V   V22       1.0  0.968876025  0.74802248  0.3699214021970227  1.0000
  V   V23       1.0  0.8022093650000002  0.9146891400000001  0.4608374504321489  1.0000
  V   V24       1.0  0.6342072250000002  0.5807249000000001  0.5542588485953716  1.0000
