data_image0
_chemical_formula_structural       COV6Au2V6Au2
_chemical_formula_sum              "C1 O1 V12 Au4"
_cell_length_a       4.88417048
_cell_length_b       4.88417048
_cell_length_c       35.81080664
_cell_angle_alpha    90.0
_cell_angle_beta     90.0
_cell_angle_gamma    90.0

_space_group_name_H-M_alt    "P 1"
_space_group_IT_number       1

loop_
  _space_group_symop_operation_xyz
  'x, y, z'

loop_
  _atom_site_type_symbol
  _atom_site_label
  _atom_site_symmetry_multiplicity
  _atom_site_fract_x
  _atom_site_fract_y
  _atom_site_fract_z
  _atom_site_occupancy
  C   C1        1.0  0.22941476000000002  0.6250000300000002  0.625761031309729  1.0000
  O   O1        1.0  0.34029040000000005  0.62500048  0.6547469904481356  1.0000
  V   V1        1.0  0.21331218000000005  0.12500002000000002  0.5516439666923783  1.0000
  V   V2        1.0  0.7770161600000001  0.12500004  0.5500278977787085  1.0000
  V   V3        1.0  0.9924459700000001  0.62500019  0.5794230582599764  1.0000
  V   V4        1.0  0.012386760000000024  0.62500011  0.5136034027155654  1.0000
  V   V5        1.0  0.5075540300000001  0.375  0.4816411795089483  1.0000
  V   V6        1.0  0.5075540300000001  0.875  0.4816411795089483  1.0000
  Au  Au1       1.0  0.5045744000000001  0.62500079  0.5521045891041051  1.0000
  Au  Au2       1.0  0.007554030000000023  0.125  0.4816411795089483  1.0000
  V   V7        1.0  0.25755403000000004  0.125  0.41344709453040634  1.0000
  V   V8        1.0  0.7575540300000001  0.125  0.41344709453040634  1.0000
  V   V9        1.0  0.007554030000000023  0.6250000000000001  0.44754414179326335  1.0000
  V   V10       1.0  0.007554030000000023  0.6250000000000001  0.3793500568147214  1.0000
  V   V11       1.0  0.5075540300000001  0.375  0.3452530095518644  1.0000
  V   V12       1.0  0.5075540300000001  0.875  0.3452530095518644  1.0000
  Au  Au3       1.0  0.5075540300000001  0.6250000000000001  0.41344709453040634  1.0000
  Au  Au4       1.0  0.007554030000000023  0.125  0.3452530095518644  1.0000
