data_image0
_chemical_formula_structural       COGa5Co10Ni5Ga5Co10Ni5
_chemical_formula_sum              "C1 O1 Ga10 Co20 Ni10"
_cell_length_a       7.865333712575296
_cell_length_b       5.1421130535474395
_cell_length_c       107.38054006
_cell_angle_alpha    86.9654140400116
_cell_angle_beta     75.37479569704618
_cell_angle_gamma    72.18657735490117

_space_group_name_H-M_alt    "P 1"
_space_group_IT_number       1

loop_
  _space_group_symop_operation_xyz
  'x, y, z'

loop_
  _atom_site_type_symbol
  _atom_site_label
  _atom_site_symmetry_multiplicity
  _atom_site_fract_x
  _atom_site_fract_y
  _atom_site_fract_z
  _atom_site_occupancy
  C   C1        1.0  0.60789741  0.67370195  0.5528252517662272  1.0000
  O   O1        1.0  0.5770600899999999  0.6664950700000001  0.5641368602967817  1.0000
  Ga  Ga1       1.0  0.4499999999999999  0.8137799400000001  0.4416650173194816  1.0000
  Ga  Ga2       1.0  0.8499999999999999  0.61377994  0.45326877951426453  1.0000
  Ga  Ga3       1.0  0.04999999999999991  0.013779939999999996  0.4880800591363573  1.0000
  Ga  Ga4       1.0  0.2499999999999999  0.41377994000000007  0.4648725382279195  1.0000
  Ga  Ga5       1.0  0.6499999999999999  0.21377994000000003  0.4764762969415745  1.0000
  Co  Co1       1.0  0.5499999999999998  0.013779939999999996  0.4590706571305281  1.0000
  Co  Co2       1.0  0.95  0.8137799400000001  0.470674419325311  1.0000
  Co  Co3       1.0  0.1499999999999999  0.21377994000000003  0.4474668984168731  1.0000
  Co  Co4       1.0  0.34999999999999987  0.61377994  0.482278178038966  1.0000
  Co  Co5       1.0  0.7499999999999998  0.41377994000000007  0.4358631397032182  1.0000
  Co  Co6       1.0  0.2499999999999999  0.9137799400000001  0.4648725382279195  1.0000
  Co  Co7       1.0  0.6499999999999998  0.71377994  0.4764762969415745  1.0000
  Co  Co8       1.0  0.85  0.11377994000000001  0.4532687795142646  1.0000
  Co  Co9       1.0  0.04999999999999989  0.51377994  0.48808005913635744  1.0000
  Co  Co10      1.0  0.44999999999999984  0.31377994  0.44166501731948166  1.0000
  Ni  Ni1       1.0  0.5499999999999998  0.51377994  0.4590706571305281  1.0000
  Ni  Ni2       1.0  0.95  0.31377994  0.47067441932531096  1.0000
  Ni  Ni3       1.0  0.1499999999999999  0.71377994  0.44746689841687315  1.0000
  Ni  Ni4       1.0  0.34999999999999987  0.11377994000000001  0.482278178038966  1.0000
  Ni  Ni5       1.0  0.7499999999999999  0.9137799400000001  0.4358631397032182  1.0000
  Ga  Ga6       1.0  0.4499999999999999  0.8137799400000001  0.4996838178500123  1.0000
  Ga  Ga7       1.0  0.8499999999999999  0.61377994  0.5112875765636673  1.0000
  Ga  Ga8       1.0  0.05058252999999993  0.9862200600000001  0.546308792569777  1.0000
  Ga  Ga9       1.0  0.2514945399999999  0.39672444  0.5222091107815444  1.0000
  Ga  Ga10      1.0  0.6497949599999999  0.18839032000000003  0.5349153287963192  1.0000
  Co  Co11      1.0  0.5499999999999998  0.013779939999999996  0.5170894576610587  1.0000
  Co  Co12      1.0  0.94971193  0.79896926  0.5289002912715458  1.0000
  Co  Co13      1.0  0.1499999999999999  0.21377994000000003  0.5054856989474038  1.0000
  Co  Co14      1.0  0.34463587999999984  0.59431029  0.539044451323054  1.0000
  Co  Co15      1.0  0.7499999999999998  0.41377994000000007  0.493881936752621  1.0000
  Co  Co16      1.0  0.24789051999999986  0.89919132  0.5227891398037356  1.0000
  Co  Co17      1.0  0.6397235999999998  0.6903841000000001  0.5362665251337229  1.0000
  Co  Co18      1.0  0.85  0.11377994000000001  0.5112875765636674  1.0000
  Co  Co19      1.0  0.061082619999999914  0.48957406  0.5443500871860486  1.0000
  Co  Co20      1.0  0.44999999999999984  0.31377994  0.4996838178500123  1.0000
  Ni  Ni6       1.0  0.5499999999999998  0.51377994  0.5170894576610588  1.0000
  Ni  Ni7       1.0  0.9468531499999999  0.29343878000000007  0.528869768741573  1.0000
  Ni  Ni8       1.0  0.1499999999999999  0.71377994  0.5054856989474038  1.0000
  Ni  Ni9       1.0  0.34888284999999986  0.08735430999999999  0.5395355862616023  1.0000
  Ni  Ni10      1.0  0.7499999999999999  0.9137799400000001  0.493881936752621  1.0000
