data_image0
_chemical_formula_structural       CORe2Ir6Re2Ir6Re2Ir6Re2Ir6
_chemical_formula_sum              "C1 O1 Re8 Ir24"
_cell_length_a       5.550826705018666
_cell_length_b       8.81486854
_cell_length_c       108.85578695000001
_cell_angle_alpha    90.0
_cell_angle_beta     119.99999997009164
_cell_angle_gamma    90.0

_space_group_name_H-M_alt    "P 1"
_space_group_IT_number       1

loop_
  _space_group_symop_operation_xyz
  'x, y, z'

loop_
  _atom_site_type_symbol
  _atom_site_label
  _atom_site_symmetry_multiplicity
  _atom_site_fract_x
  _atom_site_fract_y
  _atom_site_fract_z
  _atom_site_occupancy
  C   C1        1.0  0.4734231049999999  0.53126977  0.5499444295025886  1.0000
  O   O1        1.0  0.5617555949999999  0.4724291  0.561074616070977  1.0000
  Re  Re1       1.0  0.670367885  0.37671429  0.4389253839290228  1.0000
  Re  Re2       1.0  0.33703454499999996  0.12671428999999998  0.4559228786273182  1.0000
  Ir  Ir1       1.0  0.33855338500000004  0.12671428999999998  0.48145784411028436  1.0000
  Ir  Ir2       1.0  0.8362751250000001  0.12671428999999998  0.4558454281867983  1.0000
  Ir  Ir3       1.0  0.8362751250000001  0.12671428999999998  0.4814578441102843  1.0000
  Ir  Ir4       1.0  0.668849045  0.37671429  0.4643828989714691  1.0000
  Ir  Ir5       1.0  0.17112730500000004  0.37671429  0.4390028343695427  1.0000
  Ir  Ir6       1.0  0.17112730500000004  0.37671429  0.4643828989714691  1.0000
  Re  Re3       1.0  0.670367885  0.37671429  0.4899178644544352  1.0000
  Re  Re4       1.0  0.34597905500000004  0.12782796  0.507586081109864  1.0000
  Ir  Ir7       1.0  0.335880665  0.12506082  0.5309186920233114  1.0000
  Ir  Ir8       1.0  0.832324275  0.12822941000000002  0.506406559231421  1.0000
  Ir  Ir9       1.0  0.812983975  0.12328570999999999  0.5309195058633168  1.0000
  Ir  Ir10      1.0  0.671087085  0.37548934  0.5151021862571532  1.0000
  Ir  Ir11      1.0  0.17112730500000004  0.37671429  0.4899953148949551  1.0000
  Ir  Ir12      1.0  0.16439566500000002  0.37592795999999995  0.515117356520413  1.0000
  Re  Re5       1.0  0.670367885  0.87671429  0.4389253839290228  1.0000
  Re  Re6       1.0  0.33703454499999996  0.62671429  0.4559228786273182  1.0000
  Ir  Ir13      1.0  0.33855338500000004  0.62671429  0.48145784411028436  1.0000
  Ir  Ir14      1.0  0.8362751250000001  0.62671429  0.4558454281867983  1.0000
  Ir  Ir15      1.0  0.8362751250000001  0.62671429  0.4814578441102843  1.0000
  Ir  Ir16      1.0  0.668849045  0.87671429  0.4643828989714691  1.0000
  Ir  Ir17      1.0  0.17112730500000004  0.87671429  0.4390028343695427  1.0000
  Ir  Ir18      1.0  0.17112730500000004  0.87671429  0.4643828989714691  1.0000
  Re  Re7       1.0  0.670367885  0.87671429  0.4899178644544352  1.0000
  Re  Re8       1.0  0.34798134500000005  0.62784965  0.5077129687612421  1.0000
  Ir  Ir19      1.0  0.32822580500000004  0.61886523  0.5319451263133586  1.0000
  Ir  Ir20      1.0  0.835428635  0.62682645  0.5066201601075915  1.0000
  Ir  Ir21      1.0  0.815277405  0.6222315  0.5308946266315709  1.0000
  Ir  Ir22      1.0  0.672266645  0.87579392  0.5150359046998662  1.0000
  Ir  Ir23      1.0  0.17112730500000004  0.87671429  0.4899953148949551  1.0000
  Ir  Ir24      1.0  0.16372487500000002  0.87613646  0.5149238125170087  1.0000
