data_image0
_chemical_formula_structural       CONi20Sb8
_chemical_formula_sum              "C1 O1 Ni20 Sb8"
_cell_length_a       7.107237588128865
_cell_length_b       7.140145593481447
_cell_length_c       103.1355913
_cell_angle_alpha    94.39051801713914
_cell_angle_beta     93.95339598405518
_cell_angle_gamma    108.89764587286267

_space_group_name_H-M_alt    "P 1"
_space_group_IT_number       1

loop_
  _space_group_symop_operation_xyz
  'x, y, z'

loop_
  _atom_site_type_symbol
  _atom_site_label
  _atom_site_symmetry_multiplicity
  _atom_site_fract_x
  _atom_site_fract_y
  _atom_site_fract_z
  _atom_site_occupancy
  C   C1        1.0  0.793309985  0.030074834999999994  0.5319046091969819  1.0000
  O   O1        1.0  0.819492415  0.05938419500000001  0.5435362900705988  1.0000
  Ni  Ni1       1.0  0.6317328249999999  0.623605405  0.49841107501730625  1.0000
  Ni  Ni2       1.0  0.12504001499999995  0.125423115  0.4583839664356274  1.0000
  Ni  Ni3       1.0  0.874208425  0.879090675  0.5188555999649817  1.0000
  Ni  Ni4       1.0  0.3770433549999999  0.377426455  0.47862499147347654  1.0000
  Ni  Ni5       1.0  0.517482535  0.262279965  0.457368208234004  1.0000
  Ni  Ni6       1.0  0.015399164999999966  0.7705995150000001  0.4971548887725516  1.0000
  Ni  Ni7       1.0  0.9846008350000001  0.24056960500000002  0.47964074967509995  1.0000
  Ni  Ni8       1.0  0.494393195  0.7498545050000001  0.5187277008820914  1.0000
  Ni  Ni9       1.0  0.454704495  0.245702765  0.50161582269733  1.0000
  Ni  Ni10      1.0  0.951158185  0.7478737150000001  0.4606103659700746  1.0000
  Ni  Ni11      1.0  0.05824403499999992  0.23645902500000002  0.51474447769448  1.0000
  Ni  Ni12      1.0  0.550925185  0.7549758550000001  0.47639859193902934  1.0000
  Ni  Ni13      1.0  0.8382092149999999  0.38029146499999994  0.4997618530578471  1.0000
  Ni  Ni14      1.0  0.338909625  0.8812722450000001  0.4595435721500806  1.0000
  Ni  Ni15      1.0  0.9104669950000001  0.368870575  0.4571678633117283  1.0000
  Ni  Ni16      1.0  0.409182385  0.869769065  0.4971578509910053  1.0000
  Ni  Ni17      1.0  0.08528749499999992  0.630109915  0.5176817068476393  1.0000
  Ni  Ni18      1.0  0.591616375  0.13397899500000002  0.47984109459737573  1.0000
  Ni  Ni19      1.0  0.6726536049999999  0.119304765  0.5178145665219531  1.0000
  Ni  Ni20      1.0  0.16317374499999998  0.6215773250000001  0.47746538575902325  1.0000
  Sb  Sb1       1.0  0.27399442499999993  0.001312314999999998  0.5186664774169565  1.0000
  Sb  Sb2       1.0  0.7667025949999999  0.513260745  0.4774402550944407  1.0000
  Sb  Sb3       1.0  0.24604118499999988  0.4882916849999999  0.5000400317157631  1.0000
  Sb  Sb4       1.0  0.735380775  0.989588825  0.4595687028146633  1.0000
  Sb  Sb5       1.0  0.712590845  0.499822545  0.5213879401200984  1.0000
  Sb  Sb6       1.0  0.203960555  0.998687685  0.4805452479797029  1.0000
  Sb  Sb7       1.0  0.795651925  0.002318504999999998  0.49612424558383916  1.0000
  Sb  Sb8       1.0  0.298122815  0.504161885  0.45646370992940105  1.0000
