data_image0
_chemical_formula_structural       COV12Si4V12Si4
_chemical_formula_sum              "C1 O1 V24 Si8"
_cell_length_a       4.71230712
_cell_length_b       6.66420864
_cell_length_c       109.98525183999999
_cell_angle_alpha    90.0
_cell_angle_beta     90.0
_cell_angle_gamma    90.0

_space_group_name_H-M_alt    "P 1"
_space_group_IT_number       1

loop_
  _space_group_symop_operation_xyz
  'x, y, z'

loop_
  _atom_site_type_symbol
  _atom_site_label
  _atom_site_symmetry_multiplicity
  _atom_site_fract_x
  _atom_site_fract_y
  _atom_site_fract_z
  _atom_site_occupancy
  C   C1        1.0  0.95057728  0.969577575  0.5589841536360355  1.0000
  O   O1        1.0  0.87288549  0.929747885  0.5687911245068122  1.0000
  V   V1        1.0  0.55372928  0.6554224249999999  0.44635683638259727  1.0000
  V   V2        1.0  0.55372928  0.15542242499999998  0.47665275452590594  1.0000
  V   V3        1.0  0.55372928  0.9054224250000001  0.4312088754931877  1.0000
  V   V4        1.0  0.55372928  0.40542242500000003  0.46150479363649644  1.0000
  V   V5        1.0  0.80372928  0.280422425  0.43878285412013734  1.0000
  V   V6        1.0  0.80372928  0.7804224250000001  0.4690787758989563  1.0000
  V   V7        1.0  0.30372928  0.280422425  0.43878285412013734  1.0000
  V   V8        1.0  0.30372928  0.7804224250000001  0.4690787758989563  1.0000
  V   V9        1.0  0.05372928  0.40542242500000003  0.47665275452590594  1.0000
  V   V10       1.0  0.05372928  0.9054224250000001  0.44635683638259727  1.0000
  V   V11       1.0  0.05372928  0.6554224249999999  0.4312088754931877  1.0000
  V   V12       1.0  0.05372928  0.15542242499999998  0.46150479363649644  1.0000
  Si  Si1       1.0  0.05372928  0.530422425  0.4539308150095468  1.0000
  Si  Si2       1.0  0.05372928  0.030422424999999986  0.48422673315285547  1.0000
  Si  Si3       1.0  0.55372928  0.530422425  0.48422673315285547  1.0000
  Si  Si4       1.0  0.55372928  0.030422424999999986  0.4539308150095468  1.0000
  V   V13       1.0  0.55372928  0.6554224249999999  0.5069486726692145  1.0000
  V   V14       1.0  0.55298466  0.14183180499999998  0.5372701484500911  1.0000
  V   V15       1.0  0.55372928  0.9054224250000001  0.49180071541531534  1.0000
  V   V16       1.0  0.55263761  0.39343169499999997  0.5216466010068078  1.0000
  V   V17       1.0  0.80372928  0.280422425  0.49937469404226503  1.0000
  V   V18       1.0  0.80284492  0.7767106949999999  0.5297837819864063  1.0000
  V   V19       1.0  0.30372928  0.280422425  0.49937469404226503  1.0000
  V   V20       1.0  0.30390415  0.778049965  0.5298744843334453  1.0000
  V   V21       1.0  0.04942272  0.422228615  0.5371531213728061  1.0000
  V   V22       1.0  0.05372928  0.9054224250000001  0.5069486726692145  1.0000
  V   V23       1.0  0.05372928  0.6554224249999999  0.49180071541531534  1.0000
  V   V24       1.0  0.05268241  0.166916675  0.5217800605907511  1.0000
  Si  Si5       1.0  0.05372928  0.530422425  0.5145226549316745  1.0000
  Si  Si6       1.0  0.05867771  0.04195140499999999  0.5434654761235185  1.0000
  Si  Si7       1.0  0.54944356  0.512089745  0.5431373567748609  1.0000
  Si  Si8       1.0  0.55372928  0.030422424999999986  0.5145226549316745  1.0000
