data_image0
_chemical_formula_structural       COPt8V4
_chemical_formula_sum              "C1 O1 Pt8 V4"
_cell_length_a       4.720427157297362
_cell_length_b       4.841635206745147
_cell_length_c       101.31491219
_cell_angle_alpha    91.0433386930285
_cell_angle_beta     92.14063729416763
_cell_angle_gamma    60.82473701022822

_space_group_name_H-M_alt    "P 1"
_space_group_IT_number       1

loop_
  _space_group_symop_operation_xyz
  'x, y, z'

loop_
  _atom_site_type_symbol
  _atom_site_label
  _atom_site_symmetry_multiplicity
  _atom_site_fract_x
  _atom_site_fract_y
  _atom_site_fract_z
  _atom_site_occupancy
  C   C1        1.0  0.21526939500000003  0.49131361500000004  0.5351331674261204  1.0000
  O   O1        1.0  0.22107135499999997  0.47196692500000004  0.5468210902886429  1.0000
  Pt  Pt1       1.0  0.512355285  0.676840375  0.4976316243871152  1.0000
  Pt  Pt2       1.0  0.860139305  0.6793706150000001  0.5204137828761431  1.0000
  Pt  Pt3       1.0  0.5376932449999999  0.336837315  0.5200053796901796  1.0000
  Pt  Pt4       1.0  0.19259640500000003  0.31637943500000004  0.49717265490717244  1.0000
  Pt  Pt5       1.0  0.800175475  0.683160795  0.4531789097113572  1.0000
  Pt  Pt6       1.0  0.15731833499999995  0.683160795  0.47525640402149927  1.0000
  Pt  Pt7       1.0  0.8366887750000002  0.32441991499999995  0.4752564040214992  1.0000
  Pt  Pt8       1.0  0.4795459149999999  0.32441991499999995  0.45317890971135716  1.0000
  V   V1        1.0  0.18058182500000003  0.012070505000000013  0.517738878469077  1.0000
  V   V2        1.0  0.8534977349999999  0.9962096450000001  0.49738410608710587  1.0000
  V   V3        1.0  0.49700355499999993  0.003790355000000014  0.47525640402149927  1.0000
  V   V4        1.0  0.13986069499999998  0.003790355000000014  0.4531789097113572  1.0000
