data_image0
_chemical_formula_structural       COIr10V10Ir10V10
_chemical_formula_sum              "C1 O1 Ir20 V20"
_cell_length_a       8.933815198493
_cell_length_b       7.202321862414012
_cell_length_c       104.8251367
_cell_angle_alpha    87.49145224527044
_cell_angle_beta     89.31802546953533
_cell_angle_gamma    84.61915855879464

_space_group_name_H-M_alt    "P 1"
_space_group_IT_number       1

loop_
  _space_group_symop_operation_xyz
  'x, y, z'

loop_
  _atom_site_type_symbol
  _atom_site_label
  _atom_site_symmetry_multiplicity
  _atom_site_fract_x
  _atom_site_fract_y
  _atom_site_fract_z
  _atom_site_occupancy
  C   C1        1.0  0.31693326999999993  0.855912165  0.5356174505660032  1.0000
  O   O1        1.0  0.21004439999999994  0.876200725  0.544660861499781  1.0000
  Ir  Ir1       1.0  0.14071883999999996  0.587072635  0.48856126231167296  1.0000
  Ir  Ir2       1.0  0.16571884  0.28707263499999996  0.4719502004059459  1.0000
  Ir  Ir3       1.0  0.11625852999999997  0.889247235  0.504980632563008  1.0000
  Ir  Ir4       1.0  0.19071883999999995  0.987072635  0.45533913850021884  1.0000
  Ir  Ir5       1.0  0.08338126999999997  0.20074149499999996  0.5210378285093998  1.0000
  Ir  Ir6       1.0  0.37877229999999995  0.760202415  0.47418191650625463  1.0000
  Ir  Ir7       1.0  0.4037722999999999  0.46020241500000003  0.4575708546005276  1.0000
  Ir  Ir8       1.0  0.35377229999999993  0.06020241499999998  0.49079297841198166  1.0000
  Ir  Ir9       1.0  0.31764198999999993  0.634571445  0.5234941859664969  1.0000
  Ir  Ir10      1.0  0.32330446  0.35431726500000005  0.5070111887036383  1.0000
  V   V1        1.0  0.3803360699999999  0.705334855  0.49950278606729437  1.0000
  V   V2        1.0  0.40533606999999994  0.40533485500000005  0.48289172416156734  1.0000
  V   V3        1.0  0.3430043199999999  0.003083594999999985  0.5175608442200541  1.0000
  V   V4        1.0  0.43033606999999996  0.105334855  0.46628066225584025  1.0000
  V   V5        1.0  0.3384928199999999  0.30673786499999994  0.5301266042532422  1.0000
  V   V6        1.0  0.06966392999999997  0.5538585650000001  0.5151130414598385  1.0000
  V   V7        1.0  0.08915505999999997  0.24194019499999997  0.4964625165620873  1.0000
  V   V8        1.0  0.07997748999999998  0.850137175  0.5302793795118016  1.0000
  V   V9        1.0  0.11415506999999997  0.941940195  0.47985145465636025  1.0000
  V   V10       1.0  0.13915506999999996  0.641940195  0.4632403927506331  1.0000
  Ir  Ir11      1.0  0.64071884  0.587072635  0.48856126231167296  1.0000
  Ir  Ir12      1.0  0.6657188399999999  0.28707263499999996  0.4719502004059459  1.0000
  Ir  Ir13      1.0  0.61452625  0.887183875  0.5053151095833293  1.0000
  Ir  Ir14      1.0  0.69071884  0.987072635  0.4553391385002188  1.0000
  Ir  Ir15      1.0  0.5978931099999999  0.18977853499999997  0.5212367326868714  1.0000
  Ir  Ir16      1.0  0.8787723000000001  0.760202415  0.4741819165062545  1.0000
  Ir  Ir17      1.0  0.9037723000000001  0.46020241500000003  0.45757085460052754  1.0000
  Ir  Ir18      1.0  0.8537722999999999  0.06020241499999998  0.4907929784119816  1.0000
  Ir  Ir19      1.0  0.81073926  0.6748618049999999  0.5232247312868994  1.0000
  Ir  Ir20      1.0  0.82483897  0.360968465  0.5070098066632877  1.0000
  V   V11       1.0  0.8803360699999999  0.705334855  0.49950278606729437  1.0000
  V   V12       1.0  0.9053360699999999  0.40533485500000005  0.48289172416156734  1.0000
  V   V13       1.0  0.8587487399999998  0.996916405  0.516985902145373  1.0000
  V   V14       1.0  0.93033607  0.105334855  0.4662806622558403  1.0000
  V   V15       1.0  0.83428819  0.334530045  0.5299333013258453  1.0000
  V   V16       1.0  0.57262605  0.540539525  0.5145032659883412  1.0000
  V   V17       1.0  0.5891550600000001  0.24194019499999997  0.4964625165620873  1.0000
  V   V18       1.0  0.54132264  0.8518005449999999  0.5293187119686077  1.0000
  V   V19       1.0  0.61415507  0.941940195  0.4798514546563602  1.0000
  V   V20       1.0  0.6391550699999999  0.641940195  0.4632403927506331  1.0000
