data_image0
_chemical_formula_structural       COGa3Co3Ga3Co3Ga3Co3Ga3Co3
_chemical_formula_sum              "C1 O1 Ga12 Co12"
_cell_length_a       6.493318489593561
_cell_length_b       5.80780062
_cell_length_c       102.85388162000001
_cell_angle_alpha    90.0
_cell_angle_beta     108.43494882292202
_cell_angle_gamma    90.0

_space_group_name_H-M_alt    "P 1"
_space_group_IT_number       1

loop_
  _space_group_symop_operation_xyz
  'x, y, z'

loop_
  _atom_site_type_symbol
  _atom_site_label
  _atom_site_symmetry_multiplicity
  _atom_site_fract_x
  _atom_site_fract_y
  _atom_site_fract_z
  _atom_site_occupancy
  C   C1        1.0  0.34210699  0.12212767999999995  0.5395335865892953  1.0000
  O   O1        1.0  0.41235951  0.12212817999999995  0.5516062312962222  1.0000
  Ga  Ga1       1.0  0.15474000999999998  0.36638352999999996  0.5221788599648725  1.0000
  Ga  Ga2       1.0  0.84520477  0.3740681699999999  0.4944516966921638  1.0000
  Ga  Ga3       1.0  0.52118878  0.36935272  0.5103392821519359  1.0000
  Co  Co1       1.0  0.18576163999999998  0.12211925999999995  0.501481932040449  1.0000
  Co  Co2       1.0  0.8328216600000001  0.12212294999999995  0.5126771924082065  1.0000
  Co  Co3       1.0  0.51015585  0.12213013999999996  0.488321626921833  1.0000
  Ga  Ga4       1.0  0.17682251999999998  0.37213013999999994  0.4816669849502333  1.0000
  Ga  Ga5       1.0  0.8434891900000001  0.37213013999999994  0.4550484106753774  1.0000
  Ga  Ga6       1.0  0.51015585  0.37213013999999994  0.46835769781280534  1.0000
  Co  Co4       1.0  0.17682251999999998  0.12213013999999996  0.46170305584120575  1.0000
  Co  Co5       1.0  0.8434891900000001  0.12213013999999996  0.47501233978440494  1.0000
  Co  Co6       1.0  0.51015585  0.12213013999999996  0.4483937687037777  1.0000
  Ga  Ga7       1.0  0.15472006  0.87788074  0.5221841144710139  1.0000
  Ga  Ga8       1.0  0.84527994  0.87015409  0.49445108020603296  1.0000
  Ga  Ga9       1.0  0.5212053099999999  0.87494906  0.5103249208998919  1.0000
  Co  Co7       1.0  0.19486252  0.62211904  0.5022392772666718  1.0000
  Co  Co8       1.0  0.83936617  0.6221491  0.5133429686815064  1.0000
  Co  Co9       1.0  0.51015585  0.62213014  0.488321626921833  1.0000
  Ga  Ga10      1.0  0.17682251999999998  0.8721301399999999  0.4816669849502333  1.0000
  Ga  Ga11      1.0  0.8434891900000001  0.8721301399999999  0.4550484106753774  1.0000
  Ga  Ga12      1.0  0.51015585  0.8721301399999999  0.46835769781280534  1.0000
  Co  Co10      1.0  0.17682251999999998  0.62213014  0.46170305584120575  1.0000
  Co  Co11      1.0  0.8434891900000001  0.62213014  0.47501233978440494  1.0000
  Co  Co12      1.0  0.51015585  0.62213014  0.4483937687037777  1.0000
