data_image0
_chemical_formula_structural       COV18Si6V18Si6
_chemical_formula_sum              "C1 O1 V36 Si12"
_cell_length_a       10.537039052486547
_cell_length_b       4.71230712
_cell_length_c       109.98525183999999
_cell_angle_alpha    90.0
_cell_angle_beta     108.43494882292202
_cell_angle_gamma    90.0

_space_group_name_H-M_alt    "P 1"
_space_group_IT_number       1

loop_
  _space_group_symop_operation_xyz
  'x, y, z'

loop_
  _atom_site_type_symbol
  _atom_site_label
  _atom_site_symmetry_multiplicity
  _atom_site_fract_x
  _atom_site_fract_y
  _atom_site_fract_z
  _atom_site_occupancy
  C   C1        1.0  0.38227252000000006  0.68607116  0.5593844633131693  1.0000
  O   O1        1.0  0.29919546  0.77526318  0.5648349439961883  1.0000
  V   V1        1.0  0.7964307200000001  0.62874971  0.5270540663316896  1.0000
  V   V2        1.0  0.4617203900000001  0.6210135099999999  0.5462642592033442  1.0000
  V   V3        1.0  0.12192293000000003  0.63023381  0.5058555328833686  1.0000
  V   V4        1.0  0.9623638400000001  0.61870745  0.5454528096638256  1.0000
  V   V5        1.0  0.6219229300000002  0.63023381  0.5058555328833686  1.0000
  V   V6        1.0  0.28772018000000005  0.62871995  0.5260240862666786  1.0000
  V   V7        1.0  0.5379572100000001  0.8767212700000001  0.5262013028528648  1.0000
  V   V8        1.0  0.20364760000000004  0.8706144000000001  0.5457325040149857  1.0000
  V   V9        1.0  0.8719229300000001  0.8802338100000001  0.5058555328833686  1.0000
  V   V10       1.0  0.5383094900000002  0.37875869999999995  0.5258692353399971  1.0000
  V   V11       1.0  0.21378056  0.41079856  0.545568229845548  1.0000
  V   V12       1.0  0.8719229300000001  0.38023381  0.5058555328833686  1.0000
  V   V13       1.0  0.61679638  0.11976619  0.5498119392320774  1.0000
  V   V14       1.0  0.2885896  0.13023381  0.5109048531798385  1.0000
  V   V15       1.0  0.9542096000000001  0.13159482  0.5315144266848748  1.0000
  V   V16       1.0  0.7758791600000001  0.12252387000000001  0.5409025395048518  1.0000
  V   V17       1.0  0.45525627  0.13023381  0.5008062125868987  1.0000
  V   V18       1.0  0.12192293000000003  0.13023381  0.5210034937727781  1.0000
  Si  Si1       1.0  0.70525627  0.13023381  0.5159541734763083  1.0000
  Si  Si2       1.0  0.37194837000000003  0.12635418999999998  0.5355591973110403  1.0000
  Si  Si3       1.0  0.03858960000000003  0.13023381  0.4957568922904289  1.0000
  Si  Si4       1.0  0.7051126900000001  0.62061152  0.5463734953820077  1.0000
  Si  Si5       1.0  0.37192293000000004  0.63023381  0.5058555328833686  1.0000
  Si  Si6       1.0  0.03763616000000002  0.6315443799999999  0.52562315855279  1.0000
  V   V19       1.0  0.7885896  0.63023381  0.4654609741471203  1.0000
  V   V20       1.0  0.45525627  0.63023381  0.4856582553329996  1.0000
  V   V21       1.0  0.12192293000000003  0.63023381  0.44526369296124096  1.0000
  V   V22       1.0  0.95525627  0.63023381  0.48565825533299956  1.0000
  V   V23       1.0  0.6219229300000002  0.63023381  0.44526369296124096  1.0000
  V   V24       1.0  0.2885896  0.63023381  0.4654609741471203  1.0000
  V   V25       1.0  0.5385896  0.8802338100000001  0.46546097414712023  1.0000
  V   V26       1.0  0.20525627000000005  0.8802338100000001  0.4856582553329996  1.0000
  V   V27       1.0  0.8719229300000001  0.8802338100000001  0.4452636929612409  1.0000
  V   V28       1.0  0.5385896  0.38023381  0.46546097414712023  1.0000
  V   V29       1.0  0.20525627000000005  0.38023381  0.4856582553329996  1.0000
  V   V30       1.0  0.8719229300000001  0.38023381  0.4452636929612409  1.0000
  V   V31       1.0  0.6219229300000002  0.13023381  0.4907075719939591  1.0000
  V   V32       1.0  0.2885896  0.13023381  0.4503130132577108  1.0000
  V   V33       1.0  0.95525627  0.13023381  0.4705102944435901  1.0000
  V   V34       1.0  0.7885896  0.13023381  0.48060893503652974  1.0000
  V   V35       1.0  0.45525627  0.13023381  0.44021437630028143  1.0000
  V   V36       1.0  0.12192293000000003  0.13023381  0.46041165385065047  1.0000
  Si  Si7       1.0  0.70525627  0.13023381  0.45536233355418065  1.0000
  Si  Si8       1.0  0.37192293000000004  0.13023381  0.4755596147400599  1.0000
  Si  Si9       1.0  0.03858960000000003  0.13023381  0.4351650560038116  1.0000
  Si  Si10      1.0  0.70525627  0.63023381  0.4856582553329996  1.0000
  Si  Si11      1.0  0.37192293000000004  0.63023381  0.44526369296124096  1.0000
  Si  Si12      1.0  0.03858960000000003  0.63023381  0.46546097414712023  1.0000
