data_image0
_chemical_formula_structural       COAl3Pd2Al3Pd2Al3Pd2Al3Pd2Al3Pd2Al3Pd2Al3Pd2Al3Pd2
_chemical_formula_sum              "C1 O1 Al24 Pd16"
_cell_length_a       8.53459964
_cell_length_b       8.534599640546007
_cell_length_c       38.4823006
_cell_angle_alpha    90.0
_cell_angle_beta     90.0
_cell_angle_gamma    119.9999999978837

_space_group_name_H-M_alt    "P 1"
_space_group_IT_number       1

loop_
  _space_group_symop_operation_xyz
  'x, y, z'

loop_
  _atom_site_type_symbol
  _atom_site_label
  _atom_site_symmetry_multiplicity
  _atom_site_fract_x
  _atom_site_fract_y
  _atom_site_fract_z
  _atom_site_occupancy
  C   C1        1.0  0.28054502  0.02888532999999999  0.6362522057730544  1.0000
  O   O1        1.0  0.30624394000000005  0.08007116999999998  0.6648104484227849  1.0000
  Al  Al1       1.0  0.08033375999999999  0.128853  0.47169256525251996  1.0000
  Al  Al2       1.0  0.24701094999999995  0.46312258  0.5191518201654937  1.0000
  Al  Al3       1.0  0.41488226  0.29792997  0.5609540190167067  1.0000
  Pd  Pd1       1.0  0.24787888  0.46503588  0.5819945685532647  1.0000
  Pd  Pd2       1.0  0.41366709  0.29551967  0.49326177457010756  1.0000
  Al  Al4       1.0  0.08033375999999999  0.128853  0.3351895515772149  1.0000
  Al  Al5       1.0  0.24700043  0.46218633  0.3836438233479923  1.0000
  Al  Al6       1.0  0.41366709  0.29551967  0.4232382934817426  1.0000
  Pd  Pd3       1.0  0.24700043  0.46218633  0.4501233477447516  1.0000
  Pd  Pd4       1.0  0.41366709  0.29551967  0.3567587690849833  1.0000
  Al  Al7       1.0  0.08033375999999998  0.628853  0.47169256525251996  1.0000
  Al  Al8       1.0  0.24673662000000007  0.9616127700000001  0.5203612231921675  1.0000
  Al  Al9       1.0  0.41204856  0.7998158800000001  0.561559486311935  1.0000
  Pd  Pd5       1.0  0.25152367000000003  0.9711146700000001  0.585776163336625  1.0000
  Pd  Pd6       1.0  0.41366708999999996  0.79551967  0.49326177457010756  1.0000
  Al  Al10      1.0  0.08033375999999998  0.628853  0.3351895515772149  1.0000
  Al  Al11      1.0  0.24700043000000008  0.9621863300000001  0.3836438233479923  1.0000
  Al  Al12      1.0  0.41366708999999996  0.79551967  0.4232382934817426  1.0000
  Pd  Pd7       1.0  0.24700043000000008  0.9621863300000001  0.4501233477447516  1.0000
  Pd  Pd8       1.0  0.41366708999999996  0.79551967  0.3567587690849833  1.0000
  Al  Al13      1.0  0.58033376  0.128853  0.47169256525251996  1.0000
  Al  Al14      1.0  0.7479615199999999  0.46316202  0.5191553091824533  1.0000
  Al  Al15      1.0  0.9136195799999999  0.29541055  0.5614197044986668  1.0000
  Pd  Pd9       1.0  0.7490198100000001  0.46507124  0.5819956660374728  1.0000
  Pd  Pd10      1.0  0.9136670899999999  0.29551967  0.49326177457010756  1.0000
  Al  Al16      1.0  0.58033376  0.128853  0.3351895515772149  1.0000
  Al  Al17      1.0  0.74700043  0.46218633  0.3836438233479923  1.0000
  Al  Al18      1.0  0.9136670899999999  0.29551967  0.4232382934817426  1.0000
  Pd  Pd11      1.0  0.74700043  0.46218633  0.4501233477447516  1.0000
  Pd  Pd12      1.0  0.9136670899999999  0.29551967  0.3567587690849833  1.0000
  Al  Al19      1.0  0.58033376  0.628853  0.47169256525251996  1.0000
  Al  Al20      1.0  0.7466547  0.9614616  0.5192159656603971  1.0000
  Al  Al21      1.0  0.9196662400000002  0.7999236500000001  0.5615679959096372  1.0000
  Pd  Pd13      1.0  0.74717851  0.96247116  0.58205325119767  1.0000
  Pd  Pd14      1.0  0.9136670899999998  0.79551967  0.49326177457010756  1.0000
  Al  Al22      1.0  0.58033376  0.628853  0.3351895515772149  1.0000
  Al  Al23      1.0  0.7470004300000002  0.9621863300000001  0.3836438233479923  1.0000
  Al  Al24      1.0  0.9136670899999998  0.79551967  0.4232382934817426  1.0000
  Pd  Pd15      1.0  0.7470004300000002  0.9621863300000001  0.4501233477447516  1.0000
  Pd  Pd16      1.0  0.9136670899999998  0.79551967  0.3567587690849833  1.0000
