data_image0
_chemical_formula_structural       COIn6Pd4In6Pd4
_chemical_formula_sum              "C1 O1 In12 Pd8"
_cell_length_a       4.6646096339570615
_cell_length_b       12.19040573587529
_cell_length_c       107.31687708999999
_cell_angle_alpha    112.49767679816628
_cell_angle_beta     120.00000004285435
_cell_angle_gamma    78.96999779509686

_space_group_name_H-M_alt    "P 1"
_space_group_IT_number       1

loop_
  _space_group_symop_operation_xyz
  'x, y, z'

loop_
  _atom_site_type_symbol
  _atom_site_label
  _atom_site_symmetry_multiplicity
  _atom_site_fract_x
  _atom_site_fract_y
  _atom_site_fract_z
  _atom_site_occupancy
  C   C1        1.0  0.027619044999999974  0.5463081399999999  0.5375464764172411  1.0000
  O   O1        1.0  0.22131071499999996  0.5712566600000001  0.5506636326192063  1.0000
  In  In1       1.0  0.250288085  0.01694139999999999  0.4777936161204817  1.0000
  In  In2       1.0  0.250288085  0.5169414  0.4560607360612806  1.0000
  In  In3       1.0  0.916954755  0.33831302  0.46278510474176765  1.0000
  In  In4       1.0  0.916954755  0.8383130200000001  0.4845179848009688  1.0000
  In  In5       1.0  0.5836214149999999  0.19556978000000003  0.4710692474399947  1.0000
  In  In6       1.0  0.5836214149999999  0.69556978  0.44933636738079363  1.0000
  Pd  Pd1       1.0  0.916954755  0.08976334  0.451981703973382  1.0000
  Pd  Pd2       1.0  0.916954755  0.58976334  0.47371458403258315  1.0000
  Pd  Pd3       1.0  0.5836214149999999  0.44411946  0.4818726482083804  1.0000
  Pd  Pd4       1.0  0.5836214149999999  0.94411946  0.46013976814917923  1.0000
  In  In7       1.0  0.284853095  0.9830586000000001  0.5211742563715289  1.0000
  In  In8       1.0  0.250288085  0.5169414  0.49952649617968287  1.0000
  In  In9       1.0  0.9655501049999999  0.33026129  0.5062878455288786  1.0000
  In  In10      1.0  0.972380955  0.82257651  0.5287382792196792  1.0000
  In  In11      1.0  0.631032105  0.18875292000000002  0.5160500674793881  1.0000
  In  In12      1.0  0.5836214149999999  0.69556978  0.49280212749919594  1.0000
  Pd  Pd5       1.0  0.916954755  0.08976334  0.49544746409178436  1.0000
  Pd  Pd6       1.0  0.930790435  0.5784142600000001  0.5181646558455835  1.0000
  Pd  Pd7       1.0  0.6175525350000001  0.43448159  0.5232905346864778  1.0000
  Pd  Pd8       1.0  0.5970639249999999  0.94450739  0.5036960726617994  1.0000
