data_image0
_chemical_formula_structural       COSb8V12
_chemical_formula_sum              "C1 O1 Sb8 V12"
_cell_length_a       5.5441482
_cell_length_b       7.579562465186767
_cell_length_c       37.26179782
_cell_angle_alpha    89.07049698192343
_cell_angle_beta     90.0
_cell_angle_gamma    111.45252089667963

_space_group_name_H-M_alt    "P 1"
_space_group_IT_number       1

loop_
  _space_group_symop_operation_xyz
  'x, y, z'

loop_
  _atom_site_type_symbol
  _atom_site_label
  _atom_site_symmetry_multiplicity
  _atom_site_fract_x
  _atom_site_fract_y
  _atom_site_fract_z
  _atom_site_occupancy
  C   C1        1.0  0.06471929500000007  0.023984850000000033  0.610619248711543  1.0000
  O   O1        1.0  0.07726795500000004  0.048738810000000035  0.642037058122719  1.0000
  Sb  Sb1       1.0  0.9595470850000001  0.8151761599999999  0.41942613534473355  1.0000
  Sb  Sb2       1.0  0.642113055  0.18030810000000005  0.4473158751823218  1.0000
  Sb  Sb3       1.0  0.27355491500000007  0.4431918100000001  0.39183741253007787  1.0000
  Sb  Sb4       1.0  0.3281052350000001  0.5522924400000001  0.4749045892109811  1.0000
  Sb  Sb5       1.0  0.5221142950000001  0.94040417  0.5451386583865584  1.0000
  Sb  Sb6       1.0  0.22994153500000009  0.3570611800000001  0.5712951319967734  1.0000
  Sb  Sb7       1.0  0.852290645  0.60021419  0.5192843527648054  1.0000
  Sb  Sb8       1.0  0.8744459549999999  0.64423422  0.5983552804815307  1.0000
  V   V1        1.0  0.6591056049999999  0.7427621300000001  0.35796294187728056  1.0000
  V   V2        1.0  0.45702086499999994  0.8101237099999999  0.4171468018686139  1.0000
  V   V3        1.0  0.187574555  0.7427621300000001  0.35796294187728056  1.0000
  V   V4        1.0  0.8426570250000001  0.10986498000000003  0.3832648279748842  1.0000
  V   V5        1.0  0.37112597500000005  0.10986498000000003  0.3832648279748842  1.0000
  V   V6        1.0  0.1446392850000001  0.18536054000000005  0.44959519987244506  1.0000
  V   V7        1.0  0.23053417499999998  0.88561928  0.4834771825521711  1.0000
  V   V8        1.0  0.04045291500000008  0.9760151499999999  0.5589566936612075  1.0000
  V   V9        1.0  0.7590031249999999  0.88561928  0.4834771825521711  1.0000
  V   V10       1.0  0.41408559500000003  0.25272212000000005  0.5087790598637782  1.0000
  V   V11       1.0  0.9425545450000001  0.25272212000000005  0.5087790598637782  1.0000
  V   V12       1.0  0.702340745  0.3018147400000001  0.5653174826946691  1.0000
