data_image0
_chemical_formula_structural       COFe3Ni3Pt6Fe3Ni3Pt6Fe3Ni3Pt6Fe3Ni3Pt6
_chemical_formula_sum              "C1 O1 Fe12 Ni12 Pt24"
_cell_length_a       8.254939086026335
_cell_length_b       7.67696956
_cell_length_c       101.79800684
_cell_angle_alpha    90.0
_cell_angle_beta     105.88062910473647
_cell_angle_gamma    90.0

_space_group_name_H-M_alt    "P 1"
_space_group_IT_number       1

loop_
  _space_group_symop_operation_xyz
  'x, y, z'

loop_
  _atom_site_type_symbol
  _atom_site_label
  _atom_site_symmetry_multiplicity
  _atom_site_fract_x
  _atom_site_fract_y
  _atom_site_fract_z
  _atom_site_occupancy
  C   C1        1.0  0.004266094999999999  0.287865825  0.5472271448216565  1.0000
  O   O1        1.0  0.07278480500000001  0.308170055  0.5590328295544081  1.0000
  Fe  Fe1       1.0  0.16240056500000005  0.12254688500000001  0.4930277959644169  1.0000
  Fe  Fe2       1.0  0.4813535250000001  0.123078205  0.5264816846209083  1.0000
  Fe  Fe3       1.0  0.8265189150000001  0.12103541500000001  0.5098299293701707  1.0000
  Ni  Ni1       1.0  0.008499825  0.373847015  0.5297962419352868  1.0000
  Ni  Ni2       1.0  0.32225435500000005  0.3734518949999999  0.5096562613741883  1.0000
  Ni  Ni3       1.0  0.662400565  0.37254688499999994  0.4930277959644169  1.0000
  Pt  Pt1       1.0  0.157238125  0.12254522500000001  0.519496772066284  1.0000
  Pt  Pt2       1.0  0.4957339050000001  0.12254688500000001  0.5017045642811897  1.0000
  Pt  Pt3       1.0  0.835033755  0.123058545  0.5355510566838418  1.0000
  Pt  Pt4       1.0  0.35347609500000005  0.37424047499999996  0.5352880995108179  1.0000
  Pt  Pt5       1.0  0.6551220750000001  0.371194725  0.5194367544959613  1.0000
  Pt  Pt6       1.0  0.995733905  0.37254688499999994  0.5017045642811898  1.0000
  Fe  Fe4       1.0  0.16240056500000005  0.12254688500000001  0.44096717044559186  1.0000
  Fe  Fe5       1.0  0.4957339050000001  0.12254688500000001  0.475674253083596  1.0000
  Fe  Fe6       1.0  0.829067235  0.12254688500000001  0.4583207102027752  1.0000
  Ni  Ni4       1.0  0.995733905  0.37254688499999994  0.475674253083596  1.0000
  Ni  Ni5       1.0  0.329067235  0.37254688499999994  0.4583207102027752  1.0000
  Ni  Ni6       1.0  0.662400565  0.37254688499999994  0.44096717044559186  1.0000
  Pt  Pt7       1.0  0.16240056500000005  0.12254688500000001  0.46699748164318566  1.0000
  Pt  Pt8       1.0  0.4957339050000001  0.12254688500000001  0.44964394188600226  1.0000
  Pt  Pt9       1.0  0.829067235  0.12254688500000001  0.4843510245240064  1.0000
  Pt  Pt10      1.0  0.329067235  0.37254688499999994  0.48435102452400647  1.0000
  Pt  Pt11      1.0  0.662400565  0.37254688499999994  0.46699748164318566  1.0000
  Pt  Pt12      1.0  0.995733905  0.37254688499999994  0.44964394188600226  1.0000
  Fe  Fe7       1.0  0.16240056500000005  0.6225468849999999  0.4930277959644169  1.0000
  Fe  Fe8       1.0  0.4857414350000001  0.624493475  0.5266050526827329  1.0000
  Fe  Fe9       1.0  0.825637725  0.625727375  0.5101010329897128  1.0000
  Ni  Ni7       1.0  0.9876021650000002  0.870794855  0.5270796706542705  1.0000
  Ni  Ni8       1.0  0.32342913500000003  0.8713626449999999  0.5097227979759081  1.0000
  Ni  Ni9       1.0  0.662400565  0.8725468849999999  0.4930277959644169  1.0000
  Pt  Pt13      1.0  0.15615995500000002  0.621555745  0.5198073303506927  1.0000
  Pt  Pt14      1.0  0.4957339050000001  0.6225468849999999  0.5017045642811897  1.0000
  Pt  Pt15      1.0  0.821002385  0.624867605  0.5348545979792803  1.0000
  Pt  Pt16      1.0  0.34815329500000003  0.872348115  0.5353225001302603  1.0000
  Pt  Pt17      1.0  0.656042255  0.8789645849999999  0.5199650584246726  1.0000
  Pt  Pt18      1.0  0.995733905  0.8725468849999999  0.5017045642811898  1.0000
  Fe  Fe10      1.0  0.16240056500000005  0.6225468849999999  0.44096717044559186  1.0000
  Fe  Fe11      1.0  0.4957339050000001  0.6225468849999999  0.475674253083596  1.0000
  Fe  Fe12      1.0  0.829067235  0.6225468849999999  0.4583207102027752  1.0000
  Ni  Ni10      1.0  0.995733905  0.8725468849999999  0.475674253083596  1.0000
  Ni  Ni11      1.0  0.329067235  0.8725468849999999  0.4583207102027752  1.0000
  Ni  Ni12      1.0  0.662400565  0.8725468849999999  0.44096717044559186  1.0000
  Pt  Pt19      1.0  0.16240056500000005  0.6225468849999999  0.46699748164318566  1.0000
  Pt  Pt20      1.0  0.4957339050000001  0.6225468849999999  0.44964394188600226  1.0000
  Pt  Pt21      1.0  0.829067235  0.6225468849999999  0.4843510245240064  1.0000
  Pt  Pt22      1.0  0.329067235  0.8725468849999999  0.48435102452400647  1.0000
  Pt  Pt23      1.0  0.662400565  0.8725468849999999  0.46699748164318566  1.0000
  Pt  Pt24      1.0  0.995733905  0.8725468849999999  0.44964394188600226  1.0000
