data_image0
_chemical_formula_structural       COIn20Pt20
_chemical_formula_sum              "C1 O1 In20 Pt20"
_cell_length_a       13.480173541269364
_cell_length_b       9.00157095199837
_cell_length_c       106.00628381
_cell_angle_alpha    60.13261325392914
_cell_angle_beta     118.30643596312112
_cell_angle_gamma    118.30643598080886

_space_group_name_H-M_alt    "P 1"
_space_group_IT_number       1

loop_
  _space_group_symop_operation_xyz
  'x, y, z'

loop_
  _atom_site_type_symbol
  _atom_site_label
  _atom_site_symmetry_multiplicity
  _atom_site_fract_x
  _atom_site_fract_y
  _atom_site_fract_z
  _atom_site_occupancy
  C   C1        1.0  0.663747475  0.46090534499999997  0.5436537489725899  1.0000
  O   O1        1.0  0.7002591650000001  0.465613395  0.5559354470667202  1.0000
  In  In1       1.0  0.9940373250000002  0.47157028500000003  0.5283634252696391  1.0000
  In  In2       1.0  0.005962675000000004  0.014036934999999995  0.48413837026595846  1.0000
  In  In3       1.0  0.8570558050000001  0.091304995  0.4482418970092436  1.0000
  In  In4       1.0  0.8570558050000001  0.5913049950000001  0.490699620405311  1.0000
  In  In5       1.0  0.15486954500000003  0.436768875  0.47757711672998804  1.0000
  In  In6       1.0  0.161935675  0.9366263450000002  0.5209590632455589  1.0000
  In  In7       1.0  0.633871485  0.135833695  0.45202307316312546  1.0000
  In  In8       1.0  0.633871485  0.635833695  0.4944807965591929  1.0000
  In  In9       1.0  0.378053865  0.39224017499999997  0.47379594397272407  1.0000
  In  In10      1.0  0.3666186150000001  0.8728626550000002  0.516022561488802  1.0000
  In  In11      1.0  0.505962675  0.264036935  0.4629095085679248  1.0000
  In  In12      1.0  0.5090114050000001  0.7481388950000001  0.5079579886591488  1.0000
  In  In13      1.0  0.36065607499999996  0.33782276499999997  0.5123528487469973  1.0000
  In  In14      1.0  0.3570558049999999  0.841304995  0.46947075870727734  1.0000
  In  In15      1.0  0.654869545  0.6867688750000002  0.4563482550319543  1.0000
  In  In16      1.0  0.662756195  0.149883295  0.5023951675499423  1.0000
  In  In17      1.0  0.13480240500000001  0.374750995  0.516478363830857  1.0000
  In  In18      1.0  0.13387148500000004  0.885833695  0.47325193486115913  1.0000
  In  In19      1.0  0.878053865  0.6422401750000001  0.45256708227469034  1.0000
  In  In20      1.0  0.878053865  0.142240175  0.49502480567075774  1.0000
  Pt  Pt1       1.0  0.0059626750000000206  0.514036935  0.4841383702659584  1.0000
  Pt  Pt2       1.0  0.010633735000000004  0.024973864999999998  0.5232613417882555  1.0000
  Pt  Pt3       1.0  0.24704872500000005  0.6323245550000002  0.4517250946704782  1.0000
  Pt  Pt4       1.0  0.24704872500000002  0.13232455499999998  0.4941828180665456  1.0000
  Pt  Pt5       1.0  0.7561108950000002  0.40428473499999995  0.5143123440107013  1.0000
  Pt  Pt6       1.0  0.764876625  0.895749315  0.4740939258619891  1.0000
  Pt  Pt7       1.0  0.897088255  0.29211080500000003  0.46529341463131346  1.0000
  Pt  Pt8       1.0  0.9066376150000003  0.7718500850000001  0.5093665389175936  1.0000
  Pt  Pt9       1.0  0.114837095  0.235963065  0.460525602504536  1.0000
  Pt  Pt10      1.0  0.115335225  0.723664105  0.5049158757947312  1.0000
  Pt  Pt11      1.0  0.505962675  0.7640369350000001  0.4629095085679247  1.0000
  Pt  Pt12      1.0  0.5046074349999999  0.269928395  0.5039647310819766  1.0000
  Pt  Pt13      1.0  0.7470487250000002  0.382324555  0.472953956368512  1.0000
  Pt  Pt14      1.0  0.7499685550000001  0.857054875  0.5133960146311314  1.0000
  Pt  Pt15      1.0  0.264876625  0.145749315  0.45286506416395544  1.0000
  Pt  Pt16      1.0  0.26487662500000003  0.6457493150000001  0.4953227875600228  1.0000
  Pt  Pt17      1.0  0.39708825499999995  0.542110805  0.44406455293327984  1.0000
  Pt  Pt18      1.0  0.39708825499999995  0.042110804999999994  0.48652227632934725  1.0000
  Pt  Pt19      1.0  0.605460175  0.45229669499999997  0.5239256285352745  1.0000
  Pt  Pt20      1.0  0.6148370950000001  0.9859630650000001  0.48175446420256973  1.0000
