data_image0
_chemical_formula_structural       COPt4Rh12Pt4Rh12
_chemical_formula_sum              "C1 O1 Pt8 Rh24"
_cell_length_a       8.66959199646905
_cell_length_b       5.49615841
_cell_length_c       102.97695044
_cell_angle_alpha    90.0
_cell_angle_beta     71.5196701946169
_cell_angle_gamma    71.51967019461691

_space_group_name_H-M_alt    "P 1"
_space_group_IT_number       1

loop_
  _space_group_symop_operation_xyz
  'x, y, z'

loop_
  _atom_site_type_symbol
  _atom_site_label
  _atom_site_symmetry_multiplicity
  _atom_site_fract_x
  _atom_site_fract_y
  _atom_site_fract_z
  _atom_site_occupancy
  C   C1        1.0  0.11874250499999997  0.4525763300000001  0.5510577536706828  1.0000
  O   O1        1.0  0.10975404499999997  0.46278244  0.5628191561730047  1.0000
  Pt  Pt1       1.0  0.3902459549999999  0.3120386900000002  0.490553546779805  1.0000
  Pt  Pt2       1.0  0.393712475  0.8125436200000001  0.5180311411369566  1.0000
  Pt  Pt3       1.0  0.890245955  0.062038689999999994  0.5038967241191887  1.0000
  Pt  Pt4       1.0  0.8863948349999999  0.5661096499999999  0.5304096388555027  1.0000
  Rh  Rh1       1.0  0.644961425  0.93796131  0.5236089997884523  1.0000
  Rh  Rh2       1.0  0.640245955  0.4370386900000002  0.49722513705067795  1.0000
  Rh  Rh3       1.0  0.6450689649999999  0.4343161000000001  0.5235960270187537  1.0000
  Rh  Rh4       1.0  0.640245955  0.9370386900000001  0.49722513705067795  1.0000
  Rh  Rh5       1.0  0.889941815  0.06476385000000008  0.5299564181255257  1.0000
  Rh  Rh6       1.0  0.890245955  0.56203869  0.5038967241191887  1.0000
  Rh  Rh7       1.0  0.14422822499999996  0.1860747700000001  0.5101705233492264  1.0000
  Rh  Rh8       1.0  0.135703165  0.69660975  0.5366705165536388  1.0000
  Rh  Rh9       1.0  0.144283115  0.68534479  0.5101526925959106  1.0000
  Rh  Rh10      1.0  0.13623446499999997  0.1913712100000001  0.536752605908972  1.0000
  Rh  Rh11      1.0  0.39449705500000004  0.31146256000000005  0.5173970926146884  1.0000
  Rh  Rh12      1.0  0.3902459549999999  0.8120386900000001  0.490553546779805  1.0000
  Pt  Pt5       1.0  0.3902459549999999  0.3120386900000002  0.4371808438269953  1.0000
  Pt  Pt6       1.0  0.3902459549999999  0.8120386900000001  0.4638671953034002  1.0000
  Pt  Pt7       1.0  0.890245955  0.062038689999999994  0.4505240179640166  1.0000
  Pt  Pt8       1.0  0.890245955  0.56203869  0.4772103726427838  1.0000
  Rh  Rh13      1.0  0.640245955  0.9370386900000001  0.47053878237191077  1.0000
  Rh  Rh14      1.0  0.640245955  0.4370386900000002  0.4438524308955059  1.0000
  Rh  Rh15      1.0  0.640245955  0.4370386900000002  0.47053878237191077  1.0000
  Rh  Rh16      1.0  0.640245955  0.9370386900000001  0.4438524308955059  1.0000
  Rh  Rh17      1.0  0.890245955  0.062038689999999994  0.4772103726427838  1.0000
  Rh  Rh18      1.0  0.890245955  0.56203869  0.4505240179640166  1.0000
  Rh  Rh19      1.0  0.14024595499999998  0.18703869000000006  0.4571956082348895  1.0000
  Rh  Rh20      1.0  0.14024595499999998  0.6870386900000001  0.4838819597112944  1.0000
  Rh  Rh21      1.0  0.14024595499999998  0.6870386900000001  0.4571956082348895  1.0000
  Rh  Rh22      1.0  0.14024595499999998  0.18703869000000006  0.4838819597112944  1.0000
  Rh  Rh23      1.0  0.3902459549999999  0.3120386900000002  0.4638671953034002  1.0000
  Rh  Rh24      1.0  0.3902459549999999  0.8120386900000001  0.4371808438269953  1.0000
