data_image0
_chemical_formula_structural       COAl12Fe4Al12Fe4
_chemical_formula_sum              "C1 O1 Al24 Fe8"
_cell_length_a       5.4040064946032125
_cell_length_b       6.967141166109659
_cell_length_c       111.80284699
_cell_angle_alpha    84.40077126566285
_cell_angle_beta     67.18102016557802
_cell_angle_gamma    67.18102021759215

_space_group_name_H-M_alt    "P 1"
_space_group_IT_number       1

loop_
  _space_group_symop_operation_xyz
  'x, y, z'

loop_
  _atom_site_type_symbol
  _atom_site_label
  _atom_site_symmetry_multiplicity
  _atom_site_fract_x
  _atom_site_fract_y
  _atom_site_fract_z
  _atom_site_occupancy
  C   C1        1.0  0.23864132  0.258893355  0.557267238082727  1.0000
  O   O1        1.0  0.16138290000000002  0.22636425500000001  0.5683808177648052  1.0000
  Al  Al1       1.0  0.13195497000000003  0.024954885000000024  0.4316191822351948  1.0000
  Al  Al2       1.0  0.6319549700000002  0.5249548849999999  0.46277733729960707  1.0000
  Al  Al3       1.0  0.37500000000000006  0.7819098649999999  0.4467648504362818  1.0000
  Al  Al4       1.0  0.8750000000000002  0.281909865  0.47792300923967274  1.0000
  Al  Al5       1.0  0.61804503  0.024954885000000024  0.4316191822351948  1.0000
  Al  Al6       1.0  0.11804503000000013  0.5249548849999999  0.46277733729960707  1.0000
  Al  Al7       1.0  0.8680450300000001  0.9462582049999999  0.46768142670541196  1.0000
  Al  Al8       1.0  0.36804503000000005  0.446258205  0.4365232679020209  1.0000
  Al  Al9       1.0  0.625  0.18930322499999996  0.45253575476534624  1.0000
  Al  Al10      1.0  0.125  0.689303225  0.48369391356873725  1.0000
  Al  Al11      1.0  0.38195497000000017  0.9462582049999999  0.4676814267054119  1.0000
  Al  Al12      1.0  0.8819549700000001  0.446258205  0.4365232679020209  1.0000
  Fe  Fe1       1.0  0.12500000000000006  0.193939875  0.4522468177039192  1.0000
  Fe  Fe2       1.0  0.6250000000000001  0.693939875  0.4834049727683315  1.0000
  Fe  Fe3       1.0  0.8750000000000002  0.7772732149999999  0.4470537912366875  1.0000
  Fe  Fe4       1.0  0.37500000000000006  0.277273215  0.4782119463010997  1.0000
  Al  Al13      1.0  0.13195497000000003  0.024954885000000024  0.4939354961029981  1.0000
  Al  Al14      1.0  0.6349608400000003  0.527070595  0.5243734490791814  1.0000
  Al  Al15      1.0  0.37500000000000006  0.7819098649999999  0.509081164304085  1.0000
  Al  Al16      1.0  0.8373553000000001  0.32004193499999994  0.5423949752253093  1.0000
  Al  Al17      1.0  0.61804503  0.024954885000000024  0.49393549610299803  1.0000
  Al  Al18      1.0  0.12272853000000013  0.5264086549999999  0.5243346010898932  1.0000
  Al  Al19      1.0  0.8394953500000002  0.9750451149999999  0.5322378562211757  1.0000
  Al  Al20      1.0  0.36804503000000005  0.446258205  0.4988395817698242  1.0000
  Al  Al21      1.0  0.625  0.18930322499999996  0.5148520686331496  1.0000
  Al  Al22      1.0  0.12458138999999994  0.683826665  0.5462055591647789  1.0000
  Al  Al23      1.0  0.3445353300000001  0.9744325449999999  0.5322964086285149  1.0000
  Al  Al24      1.0  0.8819549700000001  0.446258205  0.49883958176982407  1.0000
  Fe  Fe5       1.0  0.12500000000000006  0.193939875  0.5145631278327438  1.0000
  Fe  Fe6       1.0  0.66070835  0.6957060350000001  0.5411355525766193  1.0000
  Fe  Fe7       1.0  0.8750000000000002  0.7772732149999999  0.5093701051044907  1.0000
  Fe  Fe8       1.0  0.35662724  0.30540954499999995  0.5404019948562693  1.0000
