data_image0
_chemical_formula_structural       COCo10Sb20
_chemical_formula_sum              "C1 O1 Co10 Sb20"
_cell_length_a       8.884034043333598
_cell_length_b       9.415460780919236
_cell_length_c       32.98995346
_cell_angle_alpha    102.1883682133565
_cell_angle_beta     96.05297588646597
_cell_angle_gamma    55.947196372532616

_space_group_name_H-M_alt    "P 1"
_space_group_IT_number       1

loop_
  _space_group_symop_operation_xyz
  'x, y, z'

loop_
  _atom_site_type_symbol
  _atom_site_label
  _atom_site_symmetry_multiplicity
  _atom_site_fract_x
  _atom_site_fract_y
  _atom_site_fract_z
  _atom_site_occupancy
  C   C1        1.0  0.817773095  0.789178375  0.6251013641547738  1.0000
  O   O1        1.0  0.8148807650000002  0.760731615  0.6579422567710599  1.0000
  Co  Co1       1.0  0.8246356750000001  0.8382430249999999  0.5770726219444706  1.0000
  Co  Co2       1.0  0.610144455  0.633158155  0.5168315455999563  1.0000
  Co  Co3       1.0  0.4101444550000001  0.433158155  0.46073864055103836  1.0000
  Co  Co4       1.0  0.010144454999999997  0.03315815500000003  0.34855283045320246  1.0000
  Co  Co5       1.0  0.21014445500000006  0.233158155  0.4046457355021205  1.0000
  Co  Co6       1.0  0.8101444550000001  0.833158155  0.4326921880265794  1.0000
  Co  Co7       1.0  0.610144455  0.633158155  0.37659928297766143  1.0000
  Co  Co8       1.0  0.4440543250000001  0.427384305  0.5958709474648664  1.0000
  Co  Co9       1.0  0.010144454999999997  0.03315815500000003  0.4887850930754973  1.0000
  Co  Co10      1.0  0.221330765  0.21941122500000002  0.541785270930219  1.0000
  Sb  Sb1       1.0  0.7880399149999999  0.9668418449999999  0.510336458375694  1.0000
  Sb  Sb2       1.0  0.5880399150000001  0.766841845  0.454243553326776  1.0000
  Sb  Sb3       1.0  0.388039915  0.5668418450000001  0.3981506482778582  1.0000
  Sb  Sb4       1.0  0.9898555450000002  0.173827685  0.5669550549121493  1.0000
  Sb  Sb5       1.0  0.18803991499999997  0.366841845  0.3420577432289403  1.0000
  Sb  Sb6       1.0  0.032248995000000114  0.899474465  0.4111408227263827  1.0000
  Sb  Sb7       1.0  0.8322489950000002  0.699474465  0.3550479176774649  1.0000
  Sb  Sb8       1.0  0.6406475150000001  0.515966915  0.5818252391662933  1.0000
  Sb  Sb9       1.0  0.23224899499999996  0.09947446500000003  0.46723372777530064  1.0000
  Sb  Sb10      1.0  0.429224585  0.303558115  0.5241696306570367  1.0000
  Sb  Sb11      1.0  0.07351351500000002  0.5386314449999999  0.4501694134472631  1.0000
  Sb  Sb12      1.0  0.8735135150000002  0.33863144500000003  0.3940765083983451  1.0000
  Sb  Sb13      1.0  0.724985155  0.151224095  0.6120067447170483  1.0000
  Sb  Sb14      1.0  0.27351351500000004  0.738631445  0.506262318496181  1.0000
  Sb  Sb15      1.0  0.4946409550000001  0.936980725  0.5568558414783599  1.0000
  Sb  Sb16      1.0  0.546775395  0.127684865  0.4152149626058957  1.0000
  Sb  Sb17      1.0  0.34677539500000004  0.9276848649999999  0.35912205755697785  1.0000
  Sb  Sb18      1.0  0.16500820500000007  0.716415805  0.5840434330964528  1.0000
  Sb  Sb19      1.0  0.746775395  0.327684865  0.47130786765481353  1.0000
  Sb  Sb20      1.0  0.9542935550000001  0.527547995  0.5299914459605777  1.0000
