data_image0
_chemical_formula_structural       COPd4Sn16
_chemical_formula_sum              "C1 O1 Pd4 Sn16"
_cell_length_a       9.31866632043086
_cell_length_b       6.731076879205144
_cell_length_c       104.95131664
_cell_angle_alpha    90.8173222922139
_cell_angle_beta     97.39915412842018
_cell_angle_gamma    69.6480686437117

_space_group_name_H-M_alt    "P 1"
_space_group_IT_number       1

loop_
  _space_group_symop_operation_xyz
  'x, y, z'

loop_
  _atom_site_type_symbol
  _atom_site_label
  _atom_site_symmetry_multiplicity
  _atom_site_fract_x
  _atom_site_fract_y
  _atom_site_fract_z
  _atom_site_occupancy
  C   C1        1.0  0.52661175  0.11957540000000003  0.538951678049495  1.0000
  O   O1        1.0  0.5320737099999999  0.13509791000000013  0.5500799310902111  1.0000
  Pd  Pd1       1.0  0.7340957  0.6071866  0.5171941919146046  1.0000
  Pd  Pd2       1.0  0.24256607  0.3894076800000001  0.4796812528611052  1.0000
  Pd  Pd3       1.0  0.25351213  0.6290709299999999  0.5180459143438343  1.0000
  Pd  Pd4       1.0  0.7425660700000001  0.3894076800000001  0.4796812528611052  1.0000
  Sn  Sn1       1.0  0.9443876499999999  0.7686684100000003  0.5107792188183717  1.0000
  Sn  Sn2       1.0  0.42896095999999995  0.5714433900000001  0.4678144289859651  1.0000
  Sn  Sn3       1.0  0.92951979  0.65065183  0.48100358828206347  1.0000
  Sn  Sn4       1.0  0.44317128  0.8633795699999998  0.5208773817276541  1.0000
  Sn  Sn5       1.0  0.72668333  0.04262804000000006  0.464116229777213  1.0000
  Sn  Sn6       1.0  0.23393724999999999  0.2786497600000001  0.505694423860399  1.0000
  Sn  Sn7       1.0  0.89166687  0.24873884000000002  0.5052062271967577  1.0000
  Sn  Sn8       1.0  0.3851002  0.04290745000000002  0.4641627565727226  1.0000
  Sn  Sn9       1.0  0.05561235000000003  0.12816353  0.4783589207703878  1.0000
  Sn  Sn10      1.0  0.5579290499999999  0.36016159  0.5199591577180415  1.0000
  Sn  Sn11      1.0  0.55617118  0.20737196000000002  0.49154808006648615  1.0000
  Sn  Sn12      1.0  0.05617118000000004  0.9573719599999998  0.4499200689097888  1.0000
  Sn  Sn13      1.0  0.5945009000000001  0.7466484199999999  0.49327130655584694  1.0000
  Sn  Sn14      1.0  0.10003194000000004  0.48590790000000006  0.45357174132303124  1.0000
  Sn  Sn15      1.0  0.26108939  0.7402976600000001  0.4938869681896501  1.0000
  Sn  Sn16      1.0  0.75844881  0.4861873200000001  0.4536182647882999  1.0000
