data_image0
_chemical_formula_structural       COPt18Rh6Pt18Rh6
_chemical_formula_sum              "C1 O1 Pt36 Rh12"
_cell_length_a       8.834466347434038
_cell_length_b       8.856128607954785
_cell_length_c       109.1118498
_cell_angle_alpha    108.3882396592574
_cell_angle_beta     71.56505115656908
_cell_angle_gamma    78.4916468066224

_space_group_name_H-M_alt    "P 1"
_space_group_IT_number       1

loop_
  _space_group_symop_operation_xyz
  'x, y, z'

loop_
  _atom_site_type_symbol
  _atom_site_label
  _atom_site_symmetry_multiplicity
  _atom_site_fract_x
  _atom_site_fract_y
  _atom_site_fract_z
  _atom_site_occupancy
  C   C1        1.0  0.8508255349999999  0.19591545999999999  0.5480555685042927  1.0000
  O   O1        1.0  0.7891617449999999  0.25117436  0.5606387244729422  1.0000
  Pt  Pt1       1.0  0.7916666649999999  0.2526882  0.45643063265584405  1.0000
  Pt  Pt2       1.0  0.12499999499999999  0.2526882  0.47349998620006556  1.0000
  Pt  Pt3       1.0  0.458333335  0.2526882  0.4393612755270577  1.0000
  Pt  Pt4       1.0  0.12499999499999999  0.2526882  0.44789595229916845  1.0000
  Pt  Pt5       1.0  0.458333335  0.2526882  0.4649653094279547  1.0000
  Pt  Pt6       1.0  0.7916666649999999  0.2526882  0.4820346665567411  1.0000
  Pt  Pt7       1.0  0.874999995  0.5026881999999999  0.4478959522991685  1.0000
  Pt  Pt8       1.0  0.20833333500000004  0.5026881999999999  0.4649653094279547  1.0000
  Pt  Pt9       1.0  0.5416666649999999  0.5026881999999999  0.482034666556741  1.0000
  Pt  Pt10      1.0  0.9583333350000001  0.7526882  0.4649653094279547  1.0000
  Pt  Pt11      1.0  0.2916666649999998  0.7526882  0.4820346665567411  1.0000
  Pt  Pt12      1.0  0.6249999949999999  0.7526882  0.44789595229916845  1.0000
  Pt  Pt13      1.0  0.6249999949999999  0.7526882  0.47349998620006556  1.0000
  Pt  Pt14      1.0  0.9583333350000001  0.7526882  0.4393612755270577  1.0000
  Pt  Pt15      1.0  0.2916666649999998  0.7526882  0.45643063265584405  1.0000
  Pt  Pt16      1.0  0.041666665  0.002688199999999949  0.45643063265584405  1.0000
  Pt  Pt17      1.0  0.374999995  0.002688199999999949  0.4734999862000655  1.0000
  Pt  Pt18      1.0  0.708333335  0.002688199999999949  0.43936127552705767  1.0000
  Rh  Rh1       1.0  0.041666665  0.002688199999999949  0.482034666556741  1.0000
  Rh  Rh2       1.0  0.374999995  0.002688199999999949  0.4478959522991685  1.0000
  Rh  Rh3       1.0  0.708333335  0.002688199999999949  0.4649653094279548  1.0000
  Rh  Rh4       1.0  0.874999995  0.5026881999999999  0.4734999862000655  1.0000
  Rh  Rh5       1.0  0.20833333500000004  0.5026881999999999  0.43936127552705767  1.0000
  Rh  Rh6       1.0  0.5416666649999999  0.5026881999999999  0.45643063265584405  1.0000
  Pt  Pt19      1.0  0.7926723549999999  0.24526509999999996  0.5074769326319749  1.0000
  Pt  Pt20      1.0  0.13517975499999996  0.25697875  0.5245730951364688  1.0000
  Pt  Pt21      1.0  0.458333335  0.2526882  0.49056934332885177  1.0000
  Pt  Pt22      1.0  0.12499999499999999  0.2526882  0.4991040236855274  1.0000
  Pt  Pt23      1.0  0.4557471449999999  0.2574067099999999  0.5174778039515172  1.0000
  Pt  Pt24      1.0  0.8022848349999999  0.25771090999999996  0.5329053228567989  1.0000
  Pt  Pt25      1.0  0.874999995  0.5026881999999999  0.49910402368552736  1.0000
  Pt  Pt26      1.0  0.20119887499999997  0.51033317  0.5177440044885828  1.0000
  Pt  Pt27      1.0  0.5608210650000001  0.5035918599999999  0.5317337293534844  1.0000
  Pt  Pt28      1.0  0.952910495  0.75992399  0.5176536591169145  1.0000
  Pt  Pt29      1.0  0.31366860499999993  0.74993807  0.5314044906595327  1.0000
  Pt  Pt30      1.0  0.6249999949999999  0.7526882  0.4991040236855274  1.0000
  Pt  Pt31      1.0  0.6324883449999998  0.75879253  0.5248957884150631  1.0000
  Pt  Pt32      1.0  0.9583333350000001  0.7526882  0.49056934332885177  1.0000
  Pt  Pt33      1.0  0.28870951499999997  0.74792294  0.5073675173754759  1.0000
  Pt  Pt34      1.0  0.04221003499999998  0.9976813400000001  0.5072261887384037  1.0000
  Pt  Pt35      1.0  0.381053895  0.007772369999999949  0.5247626146629516  1.0000
  Pt  Pt36      1.0  0.708333335  0.002688199999999949  0.49056934332885177  1.0000
  Rh  Rh7       1.0  0.05243351499999999  0.010790269999999947  0.5321668021365137  1.0000
  Rh  Rh8       1.0  0.374999995  0.002688199999999949  0.49910402368552736  1.0000
  Rh  Rh9       1.0  0.7071777549999999  0.0023186599999999486  0.5166823926030085  1.0000
  Rh  Rh10      1.0  0.8835531449999999  0.5036469399999999  0.5239230809061004  1.0000
  Rh  Rh11      1.0  0.20833333500000004  0.5026881999999999  0.49056934332885177  1.0000
  Rh  Rh12      1.0  0.543419065  0.49492944999999994  0.5069856393471744  1.0000
