data_image0
_chemical_formula_structural       COV8Ir8V8Ir8
_chemical_formula_sum              "C1 O1 V16 Ir16"
_cell_length_a       8.1400874
_cell_length_b       7.8174126
_cell_length_c       98.21177784
_cell_angle_alpha    90.0
_cell_angle_beta     90.0
_cell_angle_gamma    90.0

_space_group_name_H-M_alt    "P 1"
_space_group_IT_number       1

loop_
  _space_group_symop_operation_xyz
  'x, y, z'

loop_
  _atom_site_type_symbol
  _atom_site_label
  _atom_site_symmetry_multiplicity
  _atom_site_fract_x
  _atom_site_fract_y
  _atom_site_fract_z
  _atom_site_occupancy
  C   C1        1.0  0.061140070000000026  0.047789549999999965  0.5291700825446275  1.0000
  O   O1        1.0  0.06113129000000002  0.047787649999999966  0.5413078014188576  1.0000
  V   V1        1.0  0.4361374600000001  0.4541269  0.45869219858114224  1.0000
  V   V2        1.0  0.4361374600000001  0.8800844600000001  0.45869219858114224  1.0000
  V   V3        1.0  0.18613746000000003  0.6414603  0.45869219858114224  1.0000
  V   V4        1.0  0.18613746000000003  0.21550274  0.45869219858114224  1.0000
  V   V5        1.0  0.43612545  0.9522123500000002  0.49463040856803664  1.0000
  V   V6        1.0  0.43559621000000004  0.38366700000000004  0.49589710336784576  1.0000
  V   V7        1.0  0.18369859000000002  0.14534667999999998  0.4948604563563983  1.0000
  V   V8        1.0  0.18340402000000003  0.7050361500000001  0.4955047682616182  1.0000
  Ir  Ir1       1.0  0.4361374600000001  0.17181206999999998  0.47445434571122325  1.0000
  Ir  Ir2       1.0  0.43914178000000004  0.17060392999999996  0.512776561453246  1.0000
  Ir  Ir3       1.0  0.18818352000000002  0.9274480100000001  0.513713801162901  1.0000
  Ir  Ir4       1.0  0.18613746000000003  0.9237751300000001  0.47445434571122325  1.0000
  Ir  Ir5       1.0  0.43397338  0.67421086  0.5093639977741651  1.0000
  Ir  Ir6       1.0  0.4361374600000001  0.6718120700000001  0.4788368702631886  1.0000
  Ir  Ir7       1.0  0.18613746000000003  0.42377513000000006  0.4788368702631886  1.0000
  Ir  Ir8       1.0  0.18572240000000004  0.42594955  0.5097393762456333  1.0000
  V   V9        1.0  0.9361374600000001  0.4541269  0.45869219858114224  1.0000
  V   V10       1.0  0.9361374600000001  0.8800844600000001  0.45869219858114224  1.0000
  V   V11       1.0  0.68613746  0.6414603  0.45869219858114224  1.0000
  V   V12       1.0  0.68613746  0.21550274  0.45869219858114224  1.0000
  V   V13       1.0  0.9385757100000001  0.9502373800000001  0.49486114289471905  1.0000
  V   V14       1.0  0.93886871  0.39055274  0.495504182262382  1.0000
  V   V15       1.0  0.6861551900000001  0.14337169  0.4946305320874834  1.0000
  V   V16       1.0  0.6866796700000001  0.71190759  0.4958973331714678  1.0000
  Ir  Ir9       1.0  0.9361374600000001  0.17181206999999998  0.47445434571122325  1.0000
  Ir  Ir10      1.0  0.9341121200000001  0.16814984  0.5137135598690978  1.0000
  Ir  Ir11      1.0  0.68312867  0.9249810300000001  0.5127755847878525  1.0000
  Ir  Ir12      1.0  0.68613746  0.9237751300000001  0.47445434571122325  1.0000
  Ir  Ir13      1.0  0.93656316  0.6696300000000001  0.509739769784336  1.0000
  Ir  Ir14      1.0  0.9361374600000001  0.6718120700000001  0.4788368702631886  1.0000
  Ir  Ir15      1.0  0.68613746  0.42377513000000006  0.4788368702631886  1.0000
  Ir  Ir16      1.0  0.6882923100000001  0.42137944000000005  0.5093638857448993  1.0000
