data_image0
_chemical_formula_structural       COCo40
_chemical_formula_sum              "C1 O1 Co40"
_cell_length_a       8.561571899296128
_cell_length_b       4.690155113480034
_cell_length_c       105.09579830999999
_cell_angle_alpha    75.80684689072471
_cell_angle_beta     68.53560666956545
_cell_angle_gamma    90.00000000079334

_space_group_name_H-M_alt    "P 1"
_space_group_IT_number       1

loop_
  _space_group_symop_operation_xyz
  'x, y, z'

loop_
  _atom_site_type_symbol
  _atom_site_label
  _atom_site_symmetry_multiplicity
  _atom_site_fract_x
  _atom_site_fract_y
  _atom_site_fract_z
  _atom_site_occupancy
  C   C1        1.0  0.10242487999999998  0.08036065500000004  0.5512258999411973  1.0000
  O   O1        1.0  0.06287044  0.012920495000000039  0.563735063477651  1.0000
  Co  Co1       1.0  0.19166666  0.887079505  0.4807904050275482  1.0000
  Co  Co2       1.0  0.29166666999999996  0.28707950500000007  0.45852767244465376  1.0000
  Co  Co3       1.0  0.49166666  0.08707950500000004  0.4696590387361009  1.0000
  Co  Co4       1.0  0.39166667  0.6870795050000001  0.436264936522349  1.0000
  Co  Co5       1.0  0.09166666  0.48707950500000013  0.4473963028137963  1.0000
  Co  Co6       1.0  0.20833332999999998  0.7870795050000001  0.45852767244465376  1.0000
  Co  Co7       1.0  0.30833334  0.18707950500000003  0.4362649365223489  1.0000
  Co  Co8       1.0  0.008333340000000003  0.987079505  0.4473963028137963  1.0000
  Co  Co9       1.0  0.40833334000000004  0.5870795050000002  0.46965903873610104  1.0000
  Co  Co10      1.0  0.10833332999999999  0.387079505  0.4807904050275482  1.0000
  Co  Co11      1.0  0.19839903999999997  0.8977239050000002  0.5359397129193398  1.0000
  Co  Co12      1.0  0.29184302  0.28898037500000007  0.5141190848556533  1.0000
  Co  Co13      1.0  0.49019846  0.08073452500000006  0.5257265742382334  1.0000
  Co  Co14      1.0  0.39166667  0.6870795050000001  0.49192177465840564  1.0000
  Co  Co15      1.0  0.09166666  0.48707950500000013  0.503053140949853  1.0000
  Co  Co16      1.0  0.20875201999999998  0.7898022350000001  0.5139726016262925  1.0000
  Co  Co17      1.0  0.30833334  0.18707950500000003  0.4919217746584056  1.0000
  Co  Co18      1.0  0.008333340000000003  0.987079505  0.503053140949853  1.0000
  Co  Co19      1.0  0.40653332  0.5852047450000001  0.5257956365810217  1.0000
  Co  Co20      1.0  0.11217136  0.38615256500000006  0.5355258798470661  1.0000
  Co  Co21      1.0  0.69166666  0.887079505  0.4807904050275482  1.0000
  Co  Co22      1.0  0.7916666699999999  0.28707950500000007  0.4585276724446538  1.0000
  Co  Co23      1.0  0.9916666599999999  0.08707950500000004  0.469659038736101  1.0000
  Co  Co24      1.0  0.89166667  0.6870795050000001  0.43626493652234904  1.0000
  Co  Co25      1.0  0.59166666  0.48707950500000013  0.4473963028137963  1.0000
  Co  Co26      1.0  0.7083333299999999  0.7870795050000001  0.45852767244465376  1.0000
  Co  Co27      1.0  0.8083333399999999  0.18707950500000003  0.436264936522349  1.0000
  Co  Co28      1.0  0.5083333399999999  0.987079505  0.44739630281379633  1.0000
  Co  Co29      1.0  0.9083333399999999  0.5870795050000002  0.469659038736101  1.0000
  Co  Co30      1.0  0.6083333299999999  0.387079505  0.4807904050275483  1.0000
  Co  Co31      1.0  0.6976915599999999  0.890062325  0.5350648575689543  1.0000
  Co  Co32      1.0  0.79315466  0.2891369450000001  0.5140434438747288  1.0000
  Co  Co33      1.0  0.9875348899999999  0.07600011500000005  0.5256564766782765  1.0000
  Co  Co34      1.0  0.89166667  0.6870795050000001  0.4919217746584057  1.0000
  Co  Co35      1.0  0.59166666  0.48707950500000013  0.503053140949853  1.0000
  Co  Co36      1.0  0.7077340499999999  0.7887614350000002  0.5140429195873241  1.0000
  Co  Co37      1.0  0.8083333399999999  0.18707950500000003  0.49192177465840564  1.0000
  Co  Co38      1.0  0.5083333399999999  0.987079505  0.503053140949853  1.0000
  Co  Co39      1.0  0.9076334699999999  0.5778372650000001  0.525728150439858  1.0000
  Co  Co40      1.0  0.61442513  0.3910355850000001  0.535091659675391  1.0000
