data_image0
_chemical_formula_structural       Co8Sb16CO
_chemical_formula_sum              "Co8 Sb16 C1 O1"
_cell_length_a       6.623195739215013
_cell_length_b       9.218398023440814
_cell_length_c       106.8735921
_cell_angle_alpha    91.09426225187667
_cell_angle_beta     109.04216034114535
_cell_angle_gamma    70.9578396636496

_space_group_name_H-M_alt    "P 1"
_space_group_IT_number       1

loop_
  _space_group_symop_operation_xyz
  'x, y, z'

loop_
  _atom_site_type_symbol
  _atom_site_label
  _atom_site_symmetry_multiplicity
  _atom_site_fract_x
  _atom_site_fract_y
  _atom_site_fract_z
  _atom_site_occupancy
  Co  Co1       1.0  0.69836847  0.58340583  0.47619990030891113  1.0000
  Co  Co2       1.0  0.70768851  0.09095241000000001  0.5187178011749742  1.0000
  Co  Co3       1.0  0.76521903  0.5703165  0.5213414207097994  1.0000
  Co  Co4       1.0  0.76368523  0.06285728000000002  0.4779723194930943  1.0000
  Co  Co5       1.0  0.26368523  0.31360177  0.49960032294832435  1.0000
  Co  Co6       1.0  0.26368523  0.81360177  0.4564727465102906  1.0000
  Co  Co7       1.0  0.19836847  0.33415032000000006  0.45470033077631355  1.0000
  Co  Co8       1.0  0.19836846999999996  0.83415032  0.49782790721434744  1.0000
  Sb  Sb1       1.0  0.89624406  0.2828307500000001  0.529639435532554  1.0000
  Sb  Sb2       1.0  0.81464513  0.8006013  0.48820386087457396  1.0000
  Sb  Sb3       1.0  0.64740857  0.7020253  0.45357897238645134  1.0000
  Sb  Sb4       1.0  0.64740857  0.20202530000000005  0.49670654882448523  1.0000
  Sb  Sb5       1.0  0.15444803  0.61061831  0.5312758682929188  1.0000
  Sb  Sb6       1.0  0.14740857  0.0964063  0.48759636583286775  1.0000
  Sb  Sb7       1.0  0.33405481000000004  0.1769928  0.5227398375511119  1.0000
  Sb  Sb8       1.0  0.31464512999999994  0.6949823  0.47909367788295654  1.0000
  Sb  Sb9       1.0  0.61083334  0.34215734000000003  0.4660470201766484  1.0000
  Sb  Sb10      1.0  0.6098919700000001  0.84773638  0.5096197353072328  1.0000
  Sb  Sb11      1.0  0.85122036  0.44514974000000007  0.5002909714076091  1.0000
  Sb  Sb12      1.0  0.85122036  0.94514974  0.45716339496957525  1.0000
  Sb  Sb13      1.0  0.3535055099999999  0.54998528  0.5105468815948794  1.0000
  Sb  Sb14      1.0  0.35122036000000006  0.05485026000000003  0.4666256300927595  1.0000
  Sb  Sb15      1.0  0.11083334000000007  0.45185786000000006  0.4755092552998325  1.0000
  Sb  Sb16      1.0  0.10375593999999992  0.9249841000000001  0.5188495852477444  1.0000
  C   C1        1.0  0.72743856  0.6335078  0.5362159907154449  1.0000
  O   O1        1.0  0.71074715  0.67480679  0.5464210276135488  1.0000
