data_image0
_chemical_formula_structural       COSi15Pd30
_chemical_formula_sum              "C1 O1 Si15 Pd30"
_cell_length_a       11.39043548
_cell_length_b       9.656530106715184
_cell_length_c       40.13426082
_cell_angle_alpha    92.68454930037848
_cell_angle_beta     90.0
_cell_angle_gamma    53.858679891938436

_space_group_name_H-M_alt    "P 1"
_space_group_IT_number       1

loop_
  _space_group_symop_operation_xyz
  'x, y, z'

loop_
  _atom_site_type_symbol
  _atom_site_label
  _atom_site_symmetry_multiplicity
  _atom_site_fract_x
  _atom_site_fract_y
  _atom_site_fract_z
  _atom_site_occupancy
  C   C1        1.0  0.53007996  0.90917407  0.597842841634505  1.0000
  O   O1        1.0  0.53508174  0.89868793  0.6265591429299056  1.0000
  Si  Si1       1.0  0.7119154  0.2164509500000001  0.47449773112476706  1.0000
  Si  Si2       1.0  0.5140042799999999  0.6082948500000002  0.43714867696642556  1.0000
  Si  Si3       1.0  0.9129561999999999  0.8245866300000002  0.5113644151321274  1.0000
  Si  Si4       1.0  0.31400427999999997  0.008294850000000045  0.3999413900128347  1.0000
  Si  Si5       1.0  0.11588621999999997  0.3972819800000001  0.5427149104878108  1.0000
  Si  Si6       1.0  0.04130326999999996  0.21631763000000004  0.47457043416347433  1.0000
  Si  Si7       1.0  0.84733762  0.6082948500000002  0.43714867696642556  1.0000
  Si  Si8       1.0  0.2323121799999998  0.82474705  0.5113548156520933  1.0000
  Si  Si9       1.0  0.64733762  0.008294850000000045  0.3999413900128347  1.0000
  Si  Si10      1.0  0.4573226799999999  0.39651446  0.5427014935401354  1.0000
  Si  Si11      1.0  0.6770524400000001  0.61549709  0.5319907509081234  1.0000
  Si  Si12      1.0  0.48888044999999997  0.99170515  0.4917040251741908  1.0000
  Si  Si13      1.0  0.88067095  0.2082948500000001  0.38133774653603925  1.0000
  Si  Si14      1.0  0.2806709499999999  0.4082948500000001  0.45575232044322106  1.0000
  Si  Si15      1.0  0.08067094999999988  0.8082948500000002  0.41854503348963007  1.0000
  Pd  Pd1       1.0  0.9276001300000001  0.11443650000000005  0.439433814584882  1.0000
  Pd  Pd2       1.0  0.7276001300000001  0.5144365000000001  0.40222652763129124  1.0000
  Pd  Pd3       1.0  0.12453777999999992  0.72084479  0.47508457933751386  1.0000
  Pd  Pd4       1.0  0.52652341  0.9164673300000001  0.5491816336992911  1.0000
  Pd  Pd5       1.0  0.34393586999999987  0.2819982800000001  0.515196951724782  1.0000
  Pd  Pd6       1.0  0.6704574600000001  0.37153213000000007  0.5290509882830055  1.0000
  Pd  Pd7       1.0  0.47349917  0.7456752900000001  0.49373848241752616  1.0000
  Pd  Pd8       1.0  0.8745293000000002  0.9552240300000001  0.38019517028535366  1.0000
  Pd  Pd9       1.0  0.27452929999999987  0.15522403000000004  0.4546097441925354  1.0000
  Pd  Pd10      1.0  0.0745293  0.55522403  0.4174024572389444  1.0000
  Pd  Pd11      1.0  0.9277337400000002  0.3724295100000001  0.529059776644184  1.0000
  Pd  Pd12      1.0  0.7506972400000002  0.7456815099999999  0.49370454193036706  1.0000
  Pd  Pd13      1.0  0.13988341999999984  0.9552240300000001  0.38019517028535366  1.0000
  Pd  Pd14      1.0  0.5398834199999999  0.15522403000000004  0.4546097441925354  1.0000
  Pd  Pd15      1.0  0.33988342000000005  0.55522403  0.4174024572389444  1.0000
  Pd  Pd16      1.0  0.75944691  0.4507429300000001  0.4715460919336535  1.0000
  Pd  Pd17      1.0  0.5594469099999999  0.8507429300000002  0.4343388049800625  1.0000
  Pd  Pd18      1.0  0.9617771300000001  0.04685176000000005  0.5122061630263358  1.0000
  Pd  Pd19      1.0  0.35944690999999984  0.2507429300000001  0.39713151802647173  1.0000
  Pd  Pd20      1.0  0.17351954  0.6233426599999999  0.5399405789019459  1.0000
  Pd  Pd21      1.0  0.43101642999999995  0.48606642000000005  0.485444219126917  1.0000
  Pd  Pd22      1.0  0.23822286999999992  0.88707081  0.4478554309772761  1.0000
  Pd  Pd23      1.0  0.6621616500000002  0.08150186000000005  0.5192508047016939  1.0000
  Pd  Pd24      1.0  0.03822286999999999  0.28707081  0.41064814402368527  1.0000
  Pd  Pd25      1.0  0.8382228700000001  0.6870708099999999  0.37344085707009433  1.0000
  Pd  Pd26      1.0  0.05289766999999995  0.48607894000000007  0.48541655178833837  1.0000
  Pd  Pd27      1.0  0.8443430600000001  0.88707081  0.4478554309772761  1.0000
  Pd  Pd28      1.0  0.22614766  0.08142212000000004  0.5192608283447993  1.0000
  Pd  Pd29      1.0  0.6443430600000001  0.28707081  0.41064814402368527  1.0000
  Pd  Pd30      1.0  0.44434306  0.6870708099999999  0.37344085707009433  1.0000
