data_image0
_chemical_formula_structural       CONi30Sb10
_chemical_formula_sum              "C1 O1 Ni30 Sb10"
_cell_length_a       9.774419417441768
_cell_length_b       10.138971862227027
_cell_length_c       103.13578595999999
_cell_angle_alpha    95.72945384302524
_cell_angle_beta     101.14018368169596
_cell_angle_gamma    41.58804753162033

_space_group_name_H-M_alt    "P 1"
_space_group_IT_number       1

loop_
  _space_group_symop_operation_xyz
  'x, y, z'

loop_
  _atom_site_type_symbol
  _atom_site_label
  _atom_site_symmetry_multiplicity
  _atom_site_fract_x
  _atom_site_fract_y
  _atom_site_fract_z
  _atom_site_occupancy
  C   C1        1.0  0.29022742499999993  0.06900593499999996  0.540330239756914  1.0000
  O   O1        1.0  0.28292728499999986  0.10880370499999997  0.5513881103963818  1.0000
  Ni  Ni1       1.0  0.06271856499999987  0.8248614150000001  0.4962597553777818  1.0000
  Ni  Ni2       1.0  0.861551905  0.6260597649999999  0.5122778773827702  1.0000
  Ni  Ni3       1.0  0.6605470649999999  0.42640889499999995  0.4487814339130566  1.0000
  Ni  Ni4       1.0  0.2605470649999999  0.026408894999999964  0.48090974481074183  1.0000
  Ni  Ni5       1.0  0.46054706499999987  0.22640889499999997  0.4648455893618991  1.0000
  Ni  Ni6       1.0  0.9437182049999999  0.570961455  0.4773312485633223  1.0000
  Ni  Ni7       1.0  0.7437182049999999  0.370961455  0.49339540401216503  1.0000
  Ni  Ni8       1.0  0.5341233049999998  0.17972280499999996  0.509551086593093  1.0000
  Ni  Ni9       1.0  0.14371820499999985  0.7709614550000001  0.4612670931144797  1.0000
  Ni  Ni10      1.0  0.28693490499999996  0.014941074999999958  0.5237695509016408  1.0000
  Ni  Ni11      1.0  0.6532206849999999  0.18124933499999996  0.48854247726919814  1.0000
  Ni  Ni12      1.0  0.45401350499999976  0.9850589250000001  0.5047442607634332  1.0000
  Ni  Ni13      1.0  0.24166894500000002  0.780109065  0.5188513908362273  1.0000
  Ni  Ni14      1.0  0.8532206849999999  0.381249335  0.47247832182035543  1.0000
  Ni  Ni15      1.0  0.053220684999999955  0.581249335  0.4564141663715129  1.0000
  Ni  Ni16      1.0  0.9385161149999998  0.823216085  0.5160554663471605  1.0000
  Ni  Ni17      1.0  0.7510445849999999  0.6161210149999999  0.4536343606560234  1.0000
  Ni  Ni18      1.0  0.5510445849999999  0.41612101500000004  0.469698516104866  1.0000
  Ni  Ni19      1.0  0.14752616499999993  0.01677808499999996  0.5012524852527888  1.0000
  Ni  Ni20      1.0  0.35104458499999985  0.21612101499999997  0.4857626715537086  1.0000
  Ni  Ni21      1.0  0.853115535  0.881407045  0.4724867683532905  1.0000
  Ni  Ni22      1.0  0.6531155349999999  0.6814070449999999  0.48855092380213316  1.0000
  Ni  Ni23      1.0  0.463049665  0.477202185  0.5052012088780067  1.0000
  Ni  Ni24      1.0  0.053115534999999915  0.08140704499999998  0.4564226129044479  1.0000
  Ni  Ni25      1.0  0.2439572249999999  0.2814202349999999  0.5191286292437945  1.0000
  Ni  Ni26      1.0  0.15171279499999984  0.515899075  0.5013884297746901  1.0000
  Ni  Ni27      1.0  0.927052635  0.33344867499999997  0.5159668018475762  1.0000
  Ni  Ni28      1.0  0.7511497349999999  0.11596330499999996  0.4536259141230884  1.0000
  Ni  Ni29      1.0  0.35114973499999985  0.7159633049999999  0.4857542250207736  1.0000
  Ni  Ni30      1.0  0.5511497349999999  0.915963305  0.46969006957193105  1.0000
  Sb  Sb1       1.0  0.7468844649999998  0.8688506250000001  0.4935649483216032  1.0000
  Sb  Sb2       1.0  0.5460051149999998  0.680865715  0.511174028941103  1.0000
  Sb  Sb3       1.0  0.31474303499999984  0.48513806500000006  0.5253775696492388  1.0000
  Sb  Sb4       1.0  0.946884465  0.06885062499999996  0.4775007928727605  1.0000
  Sb  Sb5       1.0  0.14688446499999988  0.26885062499999995  0.46143663742391794  1.0000
  Sb  Sb6       1.0  0.2573808049999999  0.528519725  0.4807402005013036  1.0000
  Sb  Sb7       1.0  0.054573964999999836  0.33062567500000006  0.4961247522153897  1.0000
  Sb  Sb8       1.0  0.8530165149999998  0.130480985  0.5135754177723463  1.0000
  Sb  Sb9       1.0  0.45738080499999995  0.728519725  0.4646760450524611  1.0000
  Sb  Sb10      1.0  0.6573808049999998  0.9285197250000001  0.4486118896036184  1.0000
