data_image0
_chemical_formula_structural       COSn12Pd24
_chemical_formula_sum              "C1 O1 Sn12 Pd24"
_cell_length_a       12.120055037926933
_cell_length_b       5.77695051
_cell_length_c       107.65082583
_cell_angle_alpha    90.0
_cell_angle_beta     105.40366763635826
_cell_angle_gamma    90.0

_space_group_name_H-M_alt    "P 1"
_space_group_IT_number       1

loop_
  _space_group_symop_operation_xyz
  'x, y, z'

loop_
  _atom_site_type_symbol
  _atom_site_label
  _atom_site_symmetry_multiplicity
  _atom_site_fract_x
  _atom_site_fract_y
  _atom_site_fract_z
  _atom_site_occupancy
  C   C1        1.0  0.20245514  0.63317655  0.541461915021341  1.0000
  O   O1        1.0  0.24278872000000004  0.62381492  0.5527408477420128  1.0000
  Sn  Sn1       1.0  0.62105371  0.29633974  0.4487914714050658  1.0000
  Sn  Sn2       1.0  0.95438704  0.29633974  0.4779372679744945  1.0000
  Sn  Sn3       1.0  0.28890965  0.31306353  0.5079080537372996  1.0000
  Sn  Sn4       1.0  0.71314942  0.70366026  0.4764049488274159  1.0000
  Sn  Sn5       1.0  0.045612960000000036  0.70080444  0.5053098693974505  1.0000
  Sn  Sn6       1.0  0.37981609000000005  0.70366026  0.44725915225798724  1.0000
  Sn  Sn7       1.0  0.7028134599999999  0.78974172  0.520836870412351  1.0000
  Sn  Sn8       1.0  0.04648276000000004  0.79633974  0.4618320505427015  1.0000
  Sn  Sn9       1.0  0.37981609000000005  0.79633974  0.49097784361463487  1.0000
  Sn  Sn10      1.0  0.62105371  0.20366026  0.4925101627617135  1.0000
  Sn  Sn11      1.0  0.94964011  0.1715744  0.5233168044358186  1.0000
  Sn  Sn12      1.0  0.28772038  0.20366026  0.4633643696897802  1.0000
  Pd  Pd1       1.0  0.48661674000000005  0.95104661  0.47230110674722514  1.0000
  Pd  Pd2       1.0  0.81995007  0.95104661  0.5014468998191584  1.0000
  Pd  Pd3       1.0  0.14864309000000003  0.90250833  0.5290389306002765  1.0000
  Pd  Pd4       1.0  0.8475864  0.048953390000000006  0.4528953134852566  1.0000
  Pd  Pd5       1.0  0.18091973000000003  0.048953390000000006  0.4820411065571899  1.0000
  Pd  Pd6       1.0  0.5108577800000002  0.05207580000000001  0.5112074194340983  1.0000
  Pd  Pd7       1.0  0.51425306  0.45104661  0.4674682117699709  1.0000
  Pd  Pd8       1.0  0.8475864  0.45104661  0.49661400484190427  1.0000
  Pd  Pd9       1.0  0.15649026000000005  0.41405559000000003  0.5263453905483357  1.0000
  Pd  Pd10      1.0  0.81995007  0.54895339  0.4577282084625108  1.0000
  Pd  Pd11      1.0  0.15328340000000004  0.54895339  0.4868740050319394  1.0000
  Pd  Pd12      1.0  0.49011164000000007  0.54510528  0.514275303403902  1.0000
  Pd  Pd13      1.0  0.6038794800000001  0.82797293  0.4517948125964458  1.0000
  Pd  Pd14      1.0  0.93721281  0.82797293  0.48094060566837915  1.0000
  Pd  Pd15      1.0  0.27262393  0.8223247  0.5096239704031043  1.0000
  Pd  Pd16      1.0  0.73032366  0.17202707  0.4734016076360359  1.0000
  Pd  Pd17      1.0  0.06365699000000002  0.17202707  0.5025474007079692  1.0000
  Pd  Pd18      1.0  0.36035262  0.12118006  0.5297125097242513  1.0000
  Pd  Pd19      1.0  0.72615612  0.31506944  0.5170519194619063  1.0000
  Pd  Pd20      1.0  0.06365699000000002  0.32797293  0.4588287093513216  1.0000
  Pd  Pd21      1.0  0.39699032  0.32797293  0.48797450592075015  1.0000
  Pd  Pd22      1.0  0.6038794800000001  0.67202707  0.49551350395309346  1.0000
  Pd  Pd23      1.0  0.92083518  0.65022617  0.5231649571795034  1.0000
  Pd  Pd24      1.0  0.27054614  0.67202707  0.46636771088116014  1.0000
