data_image0
_chemical_formula_structural       COFe4Ni12Fe4Ni12
_chemical_formula_sum              "C1 O1 Fe8 Ni24"
_cell_length_a       7.888373363980494
_cell_length_b       4.98269024
_cell_length_c       104.87883171
_cell_angle_alpha    90.0
_cell_angle_beta     71.5893775766724
_cell_angle_gamma    71.5893775766724

_space_group_name_H-M_alt    "P 1"
_space_group_IT_number       1

loop_
  _space_group_symop_operation_xyz
  'x, y, z'

loop_
  _atom_site_type_symbol
  _atom_site_label
  _atom_site_symmetry_multiplicity
  _atom_site_fract_x
  _atom_site_fract_y
  _atom_site_fract_z
  _atom_site_occupancy
  C   C1        1.0  0.9505804949999999  0.08831453500000006  0.5457559565459149  1.0000
  O   O1        1.0  0.909274525  0.10881419500000003  0.5576872405347737  1.0000
  Fe  Fe1       1.0  0.247633485  0.43990463500000004  0.48982177595016885  1.0000
  Fe  Fe2       1.0  0.25372993499999996  0.9368667050000001  0.5134494678973103  1.0000
  Fe  Fe3       1.0  0.7476334849999999  0.189904635  0.5016990284085888  1.0000
  Fe  Fe4       1.0  0.756412165  0.6855852750000002  0.5243553167787594  1.0000
  Ni  Ni1       1.0  0.24924989499999997  0.43909246500000004  0.5141550637477238  1.0000
  Ni  Ni2       1.0  0.247633485  0.9399046350000002  0.48982177595016885  1.0000
  Ni  Ni3       1.0  0.49980554499999996  0.5675125750000002  0.5196111442124766  1.0000
  Ni  Ni4       1.0  0.497633485  0.06490463499999999  0.49576040217937883  1.0000
  Ni  Ni5       1.0  0.499756675  0.0600953650000001  0.5196141505830998  1.0000
  Ni  Ni6       1.0  0.497633485  0.564904635  0.49576040217937883  1.0000
  Ni  Ni7       1.0  0.747446195  0.18997165499999993  0.5250662436160193  1.0000
  Ni  Ni8       1.0  0.7476334849999999  0.6899046350000002  0.5016990284085888  1.0000
  Ni  Ni9       1.0  0.0013637349999999762  0.8122766450000001  0.5075118526599913  1.0000
  Ni  Ni10      1.0  0.998630135  0.308186285  0.5311775632232452  1.0000
  Ni  Ni11      1.0  0.0013568149999999759  0.3137345250000001  0.5075152946883045  1.0000
  Ni  Ni12      1.0  0.9986431849999999  0.8205372750000002  0.5311723519591227  1.0000
  Fe  Fe5       1.0  0.247633485  0.43990463500000004  0.4423127594652262  1.0000
  Fe  Fe6       1.0  0.247633485  0.9399046350000002  0.4660672677076975  1.0000
  Fe  Fe7       1.0  0.7476334849999999  0.189904635  0.4541900119236463  1.0000
  Fe  Fe8       1.0  0.7476334849999999  0.6899046350000002  0.47794452016611755  1.0000
  Ni  Ni13      1.0  0.247633485  0.43990463500000004  0.4660672677076975  1.0000
  Ni  Ni14      1.0  0.247633485  0.9399046350000002  0.4423127594652262  1.0000
  Ni  Ni15      1.0  0.497633485  0.564904635  0.47200589393690756  1.0000
  Ni  Ni16      1.0  0.497633485  0.06490463499999999  0.44825138569443623  1.0000
  Ni  Ni17      1.0  0.497633485  0.06490463499999999  0.47200589393690756  1.0000
  Ni  Ni18      1.0  0.497633485  0.564904635  0.44825138569443623  1.0000
  Ni  Ni19      1.0  0.7476334849999999  0.189904635  0.47794452016611755  1.0000
  Ni  Ni20      1.0  0.7476334849999999  0.6899046350000002  0.4541900119236463  1.0000
  Ni  Ni21      1.0  0.997633485  0.814904635  0.4601286381528563  1.0000
  Ni  Ni22      1.0  0.997633485  0.31490463500000015  0.4838831497209588  1.0000
  Ni  Ni23      1.0  0.997633485  0.31490463500000015  0.4601286381528563  1.0000
  Ni  Ni24      1.0  0.997633485  0.814904635  0.4838831497209588  1.0000
