data_image0
_chemical_formula_structural       COFe8Si4Fe8Si4
_chemical_formula_sum              "C1 O1 Fe16 Si8"
_cell_length_a       6.2260860271943885
_cell_length_b       6.7973162
_cell_length_c       101.39545871
_cell_angle_alpha    90.0
_cell_angle_beta     71.62949878711761
_cell_angle_gamma    56.915594230937096

_space_group_name_H-M_alt    "P 1"
_space_group_IT_number       1

loop_
  _space_group_symop_operation_xyz
  'x, y, z'

loop_
  _atom_site_type_symbol
  _atom_site_label
  _atom_site_symmetry_multiplicity
  _atom_site_fract_x
  _atom_site_fract_y
  _atom_site_fract_z
  _atom_site_occupancy
  C   C1        1.0  0.6310999800000001  0.17771028499999997  0.53782889810468  1.0000
  O   O1        1.0  0.590045  0.19524271500000004  0.5500528711015367  1.0000
  Fe  Fe1       1.0  0.91151638  0.20577413500000002  0.49484625262863813  1.0000
  Fe  Fe2       1.0  0.9399697599999999  0.6978167250000001  0.5133641142262492  1.0000
  Fe  Fe3       1.0  0.57451154  0.048344555000000046  0.5011312640290457  1.0000
  Fe  Fe4       1.0  0.5986372400000001  0.5299549149999999  0.51970067345762  1.0000
  Fe  Fe5       1.0  0.7035677600000001  0.148046055  0.5193754589104224  1.0000
  Fe  Fe6       1.0  0.73236086  0.629033145  0.4992959562691888  1.0000
  Fe  Fe7       1.0  0.24134862000000004  0.37564797499999997  0.4886513508496083  1.0000
  Fe  Fe8       1.0  0.2260711000000001  0.890279755  0.5078863831019474  1.0000
  Si  Si1       1.0  0.060030240000000054  0.7996404949999998  0.4921602446483215  1.0000
  Si  Si2       1.0  0.06833794000000006  0.29702670499999995  0.5113863315808833  1.0000
  Si  Si3       1.0  0.4167580700000001  0.4564964049999999  0.5054847861298789  1.0000
  Si  Si4       1.0  0.4609671500000001  0.929638885  0.5220607361550285  1.0000
  Fe  Fe9       1.0  0.9203875000000001  0.20279519499999996  0.45615840411154723  1.0000
  Fe  Fe10      1.0  0.9203875000000001  0.7027951949999999  0.4755105150871197  1.0000
  Fe  Fe11      1.0  0.5623097400000001  0.048500745  0.4630879646609517  1.0000
  Fe  Fe12      1.0  0.5623097400000001  0.548500745  0.48244007563652425  1.0000
  Fe  Fe13      1.0  0.74134862  0.12564797500000005  0.478975295361822  1.0000
  Fe  Fe14      1.0  0.74134862  0.625647975  0.4596231843862495  1.0000
  Fe  Fe15      1.0  0.24134862000000004  0.37564797499999997  0.4499471288984633  1.0000
  Fe  Fe16      1.0  0.24134862000000004  0.875647975  0.4692992398740358  1.0000
  Si  Si5       1.0  0.060030240000000054  0.7996404949999998  0.45345602269717655  1.0000
  Si  Si6       1.0  0.060030240000000054  0.299640495  0.472808133672749  1.0000
  Si  Si7       1.0  0.42266700000000007  0.45165544499999993  0.46579034917166023  1.0000
  Si  Si8       1.0  0.42266700000000007  0.9516554449999999  0.4851424601472327  1.0000
