data_image0
_chemical_formula_structural       COAl30W6
_chemical_formula_sum              "C1 O1 Al30 W6"
_cell_length_a       13.297533358809014
_cell_length_b       4.9350801035506935
_cell_length_c       110.74493275
_cell_angle_alpha    75.98105911810714
_cell_angle_beta     103.09738452131211
_cell_angle_gamma    68.21483101939256

_space_group_name_H-M_alt    "P 1"
_space_group_IT_number       1

loop_
  _space_group_symop_operation_xyz
  'x, y, z'

loop_
  _atom_site_type_symbol
  _atom_site_label
  _atom_site_symmetry_multiplicity
  _atom_site_fract_x
  _atom_site_fract_y
  _atom_site_fract_z
  _atom_site_occupancy
  C   C1        1.0  0.858417465  0.1708199650000001  0.5436173049944744  1.0000
  O   O1        1.0  0.8583867050000001  0.11966884500000004  0.5546984065772603  1.0000
  Al  Al1       1.0  0.9307868750000001  0.18372820500000014  0.46574141935815494  1.0000
  Al  Al2       1.0  0.26412021500000005  0.18372820500000014  0.49640116378003124  1.0000
  Al  Al3       1.0  0.588446435  0.17761344500000004  0.5256703920188245  1.0000
  Al  Al4       1.0  0.7641202149999999  0.18372820500000014  0.49640116378003124  1.0000
  Al  Al5       1.0  0.09316625500000003  0.18237711500000012  0.5259668852139522  1.0000
  Al  Al6       1.0  0.43078687500000007  0.18372820500000006  0.46574141935815494  1.0000
  Al  Al7       1.0  0.8196757650000001  0.8503948750000001  0.45552150823003196  1.0000
  Al  Al8       1.0  0.15300910500000003  0.8503948750000001  0.48618124897273923  1.0000
  Al  Al9       1.0  0.47088614500000003  0.8803311550000001  0.5161584965008763  1.0000
  Al  Al10      1.0  0.5418979850000001  0.5170615350000002  0.475961334165447  1.0000
  Al  Al11      1.0  0.8715962050000001  0.5078000450000002  0.5071560849527358  1.0000
  Al  Al12      1.0  0.20856465500000004  0.5170615350000002  0.4453015934227397  1.0000
  Al  Al13      1.0  0.568280675  0.5212468250000002  0.5013827991260296  1.0000
  Al  Al14      1.0  0.918089585  0.5147200150000001  0.5324147025334339  1.0000
  Al  Al15      1.0  0.23494733500000006  0.5212468250000001  0.4707230583833222  1.0000
  Al  Al16      1.0  0.8474535450000001  0.521246825  0.48107129156909306  1.0000
  Al  Al17      1.0  0.19339407500000003  0.5076907250000001  0.5136054438440438  1.0000
  Al  Al18      1.0  0.514120215  0.5212468250000002  0.4504115508263858  1.0000
  Al  Al19      1.0  0.7349473350000001  0.18372820500000014  0.47072305838332235  1.0000
  Al  Al20      1.0  0.06828067500000004  0.18372820500000012  0.5013827991260296  1.0000
  Al  Al21      1.0  0.414110085  0.1551671650000001  0.5341805601832614  1.0000
  Al  Al22      1.0  0.4599597550000001  0.18372820500000014  0.491419524754864  1.0000
  Al  Al23      1.0  0.807713615  0.14641184500000026  0.524887391264521  1.0000
  Al  Al24      1.0  0.12662641500000005  0.1837282050000001  0.46075978401215667  1.0000
  Al  Al25      1.0  0.6855297350000001  0.8057246450000002  0.5129177924344848  1.0000
  Al  Al26      1.0  0.014120215000000033  0.8462095850000001  0.45041155082638573  1.0000
  Al  Al27      1.0  0.3474535450000001  0.8462095850000001  0.4810712915690931  1.0000
  Al  Al28      1.0  0.626626415  0.846209585  0.4607597840121566  1.0000
  Al  Al29      1.0  0.959959755  0.846209585  0.4914195247548639  1.0000
  Al  Al30      1.0  0.312798055  0.787041545  0.5259025990933811  1.0000
  W   W1        1.0  0.6530091050000001  0.8503948750000001  0.48618124897273923  1.0000
  W   W2        1.0  0.985879785  0.8520526949999999  0.516096811552814  1.0000
  W   W3        1.0  0.31967576500000006  0.8503948750000001  0.45552150823003185  1.0000
  W   W4        1.0  0.7085646550000001  0.517061535  0.4453015934227397  1.0000
  W   W5        1.0  0.04189798500000003  0.5170615350000002  0.47596133416544706  1.0000
  W   W6        1.0  0.37154499500000004  0.5426115850000001  0.5055579201484134  1.0000
