data_image0
_chemical_formula_structural       COAl3Ni6V3Al3Ni6V3Al3Ni6V3Al3Ni6V3
_chemical_formula_sum              "C1 O1 Al12 Ni24 V12"
_cell_length_a       8.256424826250228
_cell_length_b       8.25642482
_cell_length_c       100.3360419
_cell_angle_alpha    90.0
_cell_angle_beta     90.0
_cell_angle_gamma    120.00000005508907

_space_group_name_H-M_alt    "P 1"
_space_group_IT_number       1

loop_
  _space_group_symop_operation_xyz
  'x, y, z'

loop_
  _atom_site_type_symbol
  _atom_site_label
  _atom_site_symmetry_multiplicity
  _atom_site_fract_x
  _atom_site_fract_y
  _atom_site_fract_z
  _atom_site_occupancy
  C   C1        1.0  0.468186335  0.350337595  0.5456992268199765  1.0000
  O   O1        1.0  0.48568306499999997  0.385374675  0.557291229608581  1.0000
  Al  Al1       1.0  0.08575680499999996  0.082297755  0.5095681379967582  1.0000
  Al  Al2       1.0  0.24965045499999994  0.413188925  0.44270877039141876  1.0000
  Al  Al3       1.0  0.416317115  0.24652226499999996  0.4763025939535929  1.0000
  Ni  Ni1       1.0  0.24965045499999994  0.413188925  0.4679041373071884  1.0000
  Ni  Ni2       1.0  0.416317115  0.24652226499999996  0.5014979638928067  1.0000
  Ni  Ni3       1.0  0.08132621499999997  0.08201132500000002  0.5329611028695637  1.0000
  Ni  Ni4       1.0  0.08298378499999996  0.07985559500000002  0.4847010505999975  1.0000
  Ni  Ni5       1.0  0.252765855  0.41636926500000004  0.5218768754323143  1.0000
  Ni  Ni6       1.0  0.416317115  0.24652226499999996  0.4511072270378234  1.0000
  V   V1        1.0  0.24965045499999994  0.413188925  0.49309950724640206  1.0000
  V   V2        1.0  0.41806596500000004  0.250005875  0.5271612450722469  1.0000
  V   V3        1.0  0.08298378499999996  0.07985559500000002  0.45950568368422795  1.0000
  Al  Al4       1.0  0.08310952499999996  0.580107055  0.5093802460600049  1.0000
  Al  Al5       1.0  0.24965045499999994  0.9131889249999999  0.44270877039141876  1.0000
  Al  Al6       1.0  0.416317115  0.7465222650000001  0.4763025939535929  1.0000
  Ni  Ni7       1.0  0.24965045499999994  0.9131889249999999  0.4679041373071884  1.0000
  Ni  Ni8       1.0  0.416317115  0.7465222650000001  0.5014979638928067  1.0000
  Ni  Ni9       1.0  0.08531314499999997  0.584484115  0.5324771069064546  1.0000
  Ni  Ni10      1.0  0.08298378499999996  0.5798555950000001  0.4847010505999975  1.0000
  Ni  Ni11      1.0  0.25312745499999995  0.9201444049999999  0.5218122886183644  1.0000
  Ni  Ni12      1.0  0.416317115  0.7465222650000001  0.4511072270378234  1.0000
  V   V4        1.0  0.24965045499999994  0.9131889249999999  0.49309950724640206  1.0000
  V   V5        1.0  0.418137095  0.750689085  0.525178518773239  1.0000
  V   V6        1.0  0.08298378499999996  0.5798555950000001  0.45950568368422795  1.0000
  Al  Al7       1.0  0.582658715  0.08230064500000002  0.509567412370162  1.0000
  Al  Al8       1.0  0.749650455  0.41318892500000004  0.44270877039141876  1.0000
  Al  Al9       1.0  0.916317115  0.2465222649999999  0.4763025939535929  1.0000
  Ni  Ni13      1.0  0.749650455  0.41318892500000004  0.4679041373071884  1.0000
  Ni  Ni14      1.0  0.916317115  0.2465222649999999  0.5014979638928067  1.0000
  Ni  Ni15      1.0  0.586800815  0.081991805  0.5329590318103203  1.0000
  Ni  Ni16      1.0  0.582983785  0.07985559500000003  0.4847010505999975  1.0000
  Ni  Ni17      1.0  0.749733015  0.416381325  0.5218785746079272  1.0000
  Ni  Ni18      1.0  0.916317115  0.2465222649999999  0.4511072270378234  1.0000
  V   V7        1.0  0.749650455  0.41318892500000004  0.49309950724640206  1.0000
  V   V8        1.0  0.917153065  0.24818776500000003  0.5251790690400744  1.0000
  V   V9        1.0  0.582983785  0.07985559500000003  0.45950568368422795  1.0000
  Al  Al10      1.0  0.5821710750000001  0.578220865  0.5096994975747793  1.0000
  Al  Al11      1.0  0.749650455  0.9131889249999999  0.44270877039141876  1.0000
  Al  Al12      1.0  0.916317115  0.7465222650000001  0.4763025939535929  1.0000
  Ni  Ni19      1.0  0.749650455  0.9131889249999999  0.4679041373071884  1.0000
  Ni  Ni20      1.0  0.916317115  0.7465222650000001  0.5014979638928067  1.0000
  Ni  Ni21      1.0  0.587285275  0.588472865  0.5333298783995286  1.0000
  Ni  Ni22      1.0  0.582983785  0.5798555950000001  0.4847010505999975  1.0000
  Ni  Ni23      1.0  0.7500333349999999  0.9139303350000001  0.5218339364784843  1.0000
  Ni  Ni24      1.0  0.916317115  0.7465222650000001  0.4511072270378234  1.0000
  V   V10       1.0  0.749650455  0.9131889249999999  0.49309950724640206  1.0000
  V   V11       1.0  0.9186737850000001  0.7506874250000001  0.5251795225566971  1.0000
  V   V12       1.0  0.582983785  0.5798555950000001  0.45950568368422795  1.0000
