data_image0
_chemical_formula_structural       CONi6V3Ni6V3Ni6V3Ni6V3
_chemical_formula_sum              "C1 O1 Ni24 V12"
_cell_length_a       5.08168934
_cell_length_b       8.830714767384357
_cell_length_c       102.63384585
_cell_angle_alpha    92.63336779641833
_cell_angle_beta     90.0
_cell_angle_gamma    106.7219886408775

_space_group_name_H-M_alt    "P 1"
_space_group_IT_number       1

loop_
  _space_group_symop_operation_xyz
  'x, y, z'

loop_
  _atom_site_type_symbol
  _atom_site_label
  _atom_site_symmetry_multiplicity
  _atom_site_fract_x
  _atom_site_fract_y
  _atom_site_fract_z
  _atom_site_occupancy
  C   C1        1.0  0.19753584999999996  0.39446749  0.5451050592168081  1.0000
  O   O1        1.0  0.22725957999999993  0.45329738999999997  0.5557889825336605  1.0000
  Ni  Ni1       1.0  0.21715583999999993  0.43528629  0.44421101746633945  1.0000
  Ni  Ni2       1.0  0.08284414999999995  0.16666293000000001  0.4548875799216246  1.0000
  Ni  Ni3       1.0  0.31715584  0.1352863  0.47600739572706896  1.0000
  Ni  Ni4       1.0  0.18284414999999996  0.36666294  0.48668395818235416  1.0000
  Ni  Ni5       1.0  0.42206463  0.33670624  0.5076929445317329  1.0000
  Ni  Ni6       1.0  0.28771479999999994  0.06473905  0.519494106730446  1.0000
  V   V1        1.0  0.45  0.40097460999999995  0.46544748782434675  1.0000
  V   V2        1.0  0.049999999999999954  0.10097461000000002  0.49724386608507626  1.0000
  V   V3        1.0  0.14512413999999998  0.290924  0.52747951593924  1.0000
  Ni  Ni7       1.0  0.21715583999999993  0.93528629  0.44421101746633956  1.0000
  Ni  Ni8       1.0  0.08284414999999994  0.66666293  0.4548875799216247  1.0000
  Ni  Ni9       1.0  0.31715583999999997  0.6352863  0.47600739572706896  1.0000
  Ni  Ni10      1.0  0.18284415  0.8666629400000001  0.48668395818235416  1.0000
  Ni  Ni11      1.0  0.4168387599999999  0.8343592  0.5076009957650784  1.0000
  Ni  Ni12      1.0  0.28082910999999994  0.56311219  0.5197119627957373  1.0000
  V   V4        1.0  0.45  0.90097461  0.46544748782434686  1.0000
  V   V5        1.0  0.049999999999999954  0.60097461  0.49724386608507626  1.0000
  V   V6        1.0  0.15084969  0.8042694800000001  0.5274736813038292  1.0000
  Ni  Ni13      1.0  0.7171558399999999  0.43528629  0.44421101746633945  1.0000
  Ni  Ni14      1.0  0.5828441499999999  0.16666293000000001  0.4548875799216246  1.0000
  Ni  Ni15      1.0  0.8171558400000001  0.1352863  0.47600739572706896  1.0000
  Ni  Ni16      1.0  0.6828441500000001  0.36666294  0.48668395818235416  1.0000
  Ni  Ni17      1.0  0.9135239799999998  0.33661916999999997  0.5076995486394975  1.0000
  Ni  Ni18      1.0  0.77637621  0.06471371000000001  0.519484402475801  1.0000
  V   V7        1.0  0.95  0.40097460999999995  0.46544748782434675  1.0000
  V   V8        1.0  0.5499999999999999  0.10097461000000002  0.49724386608507626  1.0000
  V   V9        1.0  0.6590727399999999  0.31938673  0.5284124693719773  1.0000
  Ni  Ni19      1.0  0.71715584  0.93528629  0.44421101746633956  1.0000
  Ni  Ni20      1.0  0.58284415  0.66666293  0.4548875799216247  1.0000
  Ni  Ni21      1.0  0.81715584  0.6352863  0.47600739572706896  1.0000
  Ni  Ni22      1.0  0.6828441500000001  0.8666629400000001  0.48668395818235416  1.0000
  Ni  Ni23      1.0  0.9190339200000001  0.8385535500000001  0.5076758380802285  1.0000
  Ni  Ni24      1.0  0.7839625699999999  0.5694145  0.518868900903981  1.0000
  V   V10       1.0  0.9500000000000001  0.90097461  0.46544748782434686  1.0000
  V   V11       1.0  0.5499999999999999  0.60097461  0.49724386608507626  1.0000
  V   V12       1.0  0.6523749899999999  0.80425772  0.5274713220125622  1.0000
