data_image0
_chemical_formula_structural       COSn8Rh8
_chemical_formula_sum              "C1 O1 Sn8 Rh8"
_cell_length_a       5.2317866
_cell_length_b       7.39886357
_cell_length_c       40.40454574
_cell_angle_alpha    90.0
_cell_angle_beta     90.0
_cell_angle_gamma    90.0

_space_group_name_H-M_alt    "P 1"
_space_group_IT_number       1

loop_
  _space_group_symop_operation_xyz
  'x, y, z'

loop_
  _atom_site_type_symbol
  _atom_site_label
  _atom_site_symmetry_multiplicity
  _atom_site_fract_x
  _atom_site_fract_y
  _atom_site_fract_z
  _atom_site_occupancy
  C   C1        1.0  0.04933388000000002  0.029930755000000007  0.580062928773512  1.0000
  O   O1        1.0  0.95066612  0.9654599850000001  0.6040050011926515  1.0000
  Sn  Sn1       1.0  0.7369886999999999  0.495155815  0.41243743800609983  1.0000
  Sn  Sn2       1.0  0.7357851599999999  0.9895634550000001  0.5053226636696356  1.0000
  Sn  Sn3       1.0  0.2369887  0.24515581500000003  0.4253324553449031  1.0000
  Sn  Sn4       1.0  0.21056378000000003  0.7372227950000002  0.5216068728991557  1.0000
  Sn  Sn5       1.0  0.4165701  0.8349465150000002  0.4417748945436544  1.0000
  Sn  Sn6       1.0  0.43346308  0.3444652650000001  0.538667267442514  1.0000
  Sn  Sn7       1.0  0.9240914  0.400654615  0.4861388364167946  1.0000
  Sn  Sn8       1.0  0.9165700999999999  0.905365115  0.39599499880734856  1.0000
  Rh  Rh1       1.0  0.43325672  0.495155815  0.4680567078484351  1.0000
  Rh  Rh2       1.0  0.3824985000000001  0.010436545000000007  0.5565053635298574  1.0000
  Rh  Rh3       1.0  0.9332567199999999  0.745155815  0.4612729769751795  1.0000
  Rh  Rh4       1.0  0.93509594  0.22918664500000002  0.548373367116076  1.0000
  Rh  Rh5       1.0  0.72030208  0.13867849500000004  0.4417748945436544  1.0000
  Rh  Rh6       1.0  0.7093133699999999  0.6348026550000001  0.526843448390457  1.0000
  Rh  Rh7       1.0  0.22030208000000004  0.601633135  0.39599499880734856  1.0000
  Rh  Rh8       1.0  0.23076952000000006  0.10286632500000001  0.4865644502762593  1.0000
