data_image0
_chemical_formula_structural       CORe2Rh6Re2Rh6Re2Rh6Re2Rh6
_chemical_formula_sum              "C1 O1 Re8 Rh24"
_cell_length_a       5.511938679149506
_cell_length_b       8.73263268
_cell_length_c       108.58357074
_cell_angle_alpha    90.0
_cell_angle_beta     120.00000000510423
_cell_angle_gamma    90.0

_space_group_name_H-M_alt    "P 1"
_space_group_IT_number       1

loop_
  _space_group_symop_operation_xyz
  'x, y, z'

loop_
  _atom_site_type_symbol
  _atom_site_label
  _atom_site_symmetry_multiplicity
  _atom_site_fract_x
  _atom_site_fract_y
  _atom_site_fract_z
  _atom_site_occupancy
  C   C1        1.0  0.36286992  0.377900175  0.5462237048504308  1.0000
  O   O1        1.0  0.46677515999999997  0.37789963500000007  0.5586248910179724  1.0000
  Re  Re1       1.0  0.6830716000000001  0.377899995  0.4754492583253686  1.0000
  Re  Re2       1.0  0.34973825999999997  0.12789999500000002  0.44160780382676884  1.0000
  Rh  Rh1       1.0  0.35432226  0.12789999500000002  0.46710524034641304  1.0000
  Rh  Rh2       1.0  0.84744627  0.12789999500000002  0.4413751089820276  1.0000
  Rh  Rh3       1.0  0.84744627  0.12789999500000002  0.46710524034641304  1.0000
  Rh  Rh4       1.0  0.6784876  0.377899995  0.4499518218057244  1.0000
  Rh  Rh5       1.0  0.18536359000000002  0.377899995  0.4756819496167573  1.0000
  Rh  Rh6       1.0  0.18536359000000002  0.377899995  0.44995182180572446  1.0000
  Re  Re3       1.0  0.6612929100000001  0.37790005499999996  0.5242037781187582  1.0000
  Re  Re4       1.0  0.34973825999999997  0.12789999500000002  0.4923699820213159  1.0000
  Rh  Rh7       1.0  0.35414779999999996  0.122099005  0.5181426754424816  1.0000
  Rh  Rh8       1.0  0.84744627  0.12789999500000002  0.4921372907299272  1.0000
  Rh  Rh9       1.0  0.84407465  0.130879485  0.5180713489968521  1.0000
  Rh  Rh10      1.0  0.6735629599999999  0.37789979500000004  0.5005217529675463  1.0000
  Rh  Rh11      1.0  0.1940075  0.377900525  0.5266698865118784  1.0000
  Rh  Rh12      1.0  0.1934771  0.377899895  0.5008012632320639  1.0000
  Re  Re5       1.0  0.6830716000000001  0.8778999949999999  0.4754492583253686  1.0000
  Re  Re6       1.0  0.34973825999999997  0.627899995  0.44160780382676884  1.0000
  Rh  Rh13      1.0  0.35432226  0.627899995  0.46710524034641304  1.0000
  Rh  Rh14      1.0  0.84744627  0.627899995  0.4413751089820276  1.0000
  Rh  Rh15      1.0  0.84744627  0.627899995  0.46710524034641304  1.0000
  Rh  Rh16      1.0  0.6784876  0.8778999949999999  0.4499518218057244  1.0000
  Rh  Rh17      1.0  0.18536359000000002  0.8778999949999999  0.4756819496167573  1.0000
  Rh  Rh18      1.0  0.18536359000000002  0.8778999949999999  0.44995182180572446  1.0000
  Re  Re7       1.0  0.6758522700000001  0.8779003350000001  0.5244417887789063  1.0000
  Re  Re8       1.0  0.34973825999999997  0.627899995  0.4923699820213159  1.0000
  Rh  Rh19      1.0  0.35414803000000006  0.633701555  0.5181425368617323  1.0000
  Rh  Rh20      1.0  0.84744627  0.627899995  0.4921372907299272  1.0000
  Rh  Rh21      1.0  0.84407298  0.6249202049999999  0.518071231736218  1.0000
  Rh  Rh22      1.0  0.6753283700000001  0.877900295  0.5005346267638158  1.0000
  Rh  Rh23      1.0  0.15255373  0.8778989549999999  0.5255331157325454  1.0000
  Rh  Rh24      1.0  0.18250799  0.877900995  0.5003851336689082  1.0000
