data_image0
_chemical_formula_structural       CONi12Sb4Ni12Sb4
_chemical_formula_sum              "C1 O1 Ni24 Sb8"
_cell_length_a       6.962678462611468
_cell_length_b       5.405869654269943
_cell_length_c       111.77607078
_cell_angle_alpha    67.15724982975442
_cell_angle_beta     78.13452761528092
_cell_angle_gamma    67.15724979237173

_space_group_name_H-M_alt    "P 1"
_space_group_IT_number       1

loop_
  _space_group_symop_operation_xyz
  'x, y, z'

loop_
  _atom_site_type_symbol
  _atom_site_label
  _atom_site_symmetry_multiplicity
  _atom_site_fract_x
  _atom_site_fract_y
  _atom_site_fract_z
  _atom_site_occupancy
  C   C1        1.0  0.11465647  0.4555860399999998  0.5570189278792185  1.0000
  O   O1        1.0  0.14915517  0.3481800899999999  0.5682128416802754  1.0000
  Ni  Ni1       1.0  0.78583273  0.33627630999999986  0.530242047974847  1.0000
  Ni  Ni2       1.0  0.28734638  0.33727210999999985  0.499000301008416  1.0000
  Ni  Ni3       1.0  0.04504151000000001  0.3584204799999999  0.5443832778490206  1.0000
  Ni  Ni4       1.0  0.54382681  0.3372721099999998  0.5149768049541406  1.0000
  Ni  Ni5       1.0  0.95617319  0.17492572999999983  0.5095167444313298  1.0000
  Ni  Ni6       1.0  0.445347  0.2085456499999999  0.5386266259493898  1.0000
  Ni  Ni7       1.0  0.20765069  0.6767631099999999  0.5238835461079709  1.0000
  Ni  Ni8       1.0  0.71265362  0.6619648799999999  0.4943475882560626  1.0000
  Ni  Ni9       1.0  0.95617319  0.6619648799999996  0.5095167444313299  1.0000
  Ni  Ni10      1.0  0.4465351000000001  0.6690200499999999  0.5386115115846556  1.0000
  Ni  Ni11      1.0  0.04667771  0.8246039399999997  0.5444395044818259  1.0000
  Ni  Ni12      1.0  0.54382681  0.8243112699999997  0.5149768049541407  1.0000
  Sb  Sb1       1.0  0.20673762  0.16837315999999986  0.5249580974585356  1.0000
  Sb  Sb2       1.0  0.7083333300000001  0.16628515999999982  0.49407847482422945  1.0000
  Sb  Sb3       1.0  0.77111753  0.8337148400000001  0.5316308839274178  1.0000
  Sb  Sb4       1.0  0.29166667  0.83295183  0.499269418177728  1.0000
  Ni  Ni13      1.0  0.78734638  0.33727210999999985  0.46785464462490306  1.0000
  Ni  Ni14      1.0  0.28734638  0.33727210999999985  0.43670898450391127  1.0000
  Ni  Ni15      1.0  0.043826809999999994  0.3372721099999999  0.4838311448331487  1.0000
  Ni  Ni16      1.0  0.54382681  0.3372721099999998  0.45268548844963585  1.0000
  Ni  Ni17      1.0  0.95617319  0.17492572999999983  0.44722542792682507  1.0000
  Ni  Ni18      1.0  0.45617319  0.17492572999999986  0.4783710880478169  1.0000
  Ni  Ni19      1.0  0.21265362  0.6619648799999999  0.46320193187254965  1.0000
  Ni  Ni20      1.0  0.71265362  0.6619648799999999  0.4320562754890368  1.0000
  Ni  Ni21      1.0  0.95617319  0.6619648799999996  0.4472254279268251  1.0000
  Ni  Ni22      1.0  0.45617319  0.6619648799999998  0.478371088047817  1.0000
  Ni  Ni23      1.0  0.043826809999999994  0.8243112699999997  0.48383114483314876  1.0000
  Ni  Ni24      1.0  0.54382681  0.8243112699999997  0.45268548844963585  1.0000
  Sb  Sb5       1.0  0.20833333  0.16628515999999985  0.46293281470323766  1.0000
  Sb  Sb6       1.0  0.7083333300000001  0.16628515999999982  0.4317871583197247  1.0000
  Sb  Sb7       1.0  0.79166667  0.8329518299999997  0.4681237580567362  1.0000
  Sb  Sb8       1.0  0.29166667  0.83295183  0.4369781016732233  1.0000
