data_image0
_chemical_formula_structural       COSi12Rh12Si12Rh12
_chemical_formula_sum              "C1 O1 Si24 Rh24"
_cell_length_a       5.60942055
_cell_length_b       8.975349614610947
_cell_length_c       105.84078413
_cell_angle_alpha    69.80693411539461
_cell_angle_beta     90.0
_cell_angle_gamma    90.0

_space_group_name_H-M_alt    "P 1"
_space_group_IT_number       1

loop_
  _space_group_symop_operation_xyz
  'x, y, z'

loop_
  _atom_site_type_symbol
  _atom_site_label
  _atom_site_symmetry_multiplicity
  _atom_site_fract_x
  _atom_site_fract_y
  _atom_site_fract_z
  _atom_site_occupancy
  C   C1        1.0  0.9595889149999999  0.6544515949999999  0.5634080506155766  1.0000
  O   O1        1.0  0.006403184999999945  0.6250917349999999  0.5750790664755099  1.0000
  Si  Si1       1.0  0.6876663349999999  0.606999015  0.44789673772294125  1.0000
  Si  Si2       1.0  0.6876663349999999  0.9403323450000001  0.42532145741517896  1.0000
  Si  Si3       1.0  0.6876663349999999  0.273665675  0.47047202141699584  1.0000
  Si  Si4       1.0  0.3180987149999999  0.736187095  0.43153256104444354  1.0000
  Si  Si5       1.0  0.3180987149999999  0.069520425  0.4766831250462604  1.0000
  Si  Si6       1.0  0.3180987149999999  0.4028537549999999  0.4541078413522058  1.0000
  Si  Si7       1.0  0.18766633499999993  0.736187095  0.4653954848923793  1.0000
  Si  Si8       1.0  0.18766633499999993  0.069520425  0.44282020119832466  1.0000
  Si  Si9       1.0  0.18766633499999993  0.4028537549999999  0.4879707652001416  1.0000
  Si  Si10      1.0  0.8180987149999999  0.606999015  0.4817596615708771  1.0000
  Si  Si11      1.0  0.8180987149999999  0.9403323450000001  0.4591843812631147  1.0000
  Si  Si12      1.0  0.8180987149999999  0.273665675  0.43660909756906013  1.0000
  Rh  Rh1       1.0  0.5057602849999998  0.822477375  0.47708364893694905  1.0000
  Rh  Rh2       1.0  0.5057602849999998  0.155810715  0.4545083652428944  1.0000
  Rh  Rh3       1.0  0.5057602849999998  0.48914404499999997  0.4319330849351321  1.0000
  Rh  Rh4       1.0  0.5000047649999999  0.520708725  0.4700714975263072  1.0000
  Rh  Rh5       1.0  0.5000047649999999  0.854042055  0.44749621383225263  1.0000
  Rh  Rh6       1.0  0.5000047649999999  0.187375395  0.4249209335244904  1.0000
  Rh  Rh7       1.0  0.005760284999999947  0.854042055  0.48135913768018845  1.0000
  Rh  Rh8       1.0  0.005760284999999947  0.187375395  0.4587838573724262  1.0000
  Rh  Rh9       1.0  0.005760284999999947  0.520708725  0.43620857367837146  1.0000
  Rh  Rh10      1.0  4.7649999999066495e-06  0.48914404499999997  0.46579600878306787  1.0000
  Rh  Rh11      1.0  4.7649999999066495e-06  0.822477375  0.4432207250890133  1.0000
  Rh  Rh12      1.0  4.7649999999066495e-06  0.155810715  0.48837128909083016  1.0000
  Si  Si13      1.0  0.6876663349999999  0.606999015  0.5156225854188128  1.0000
  Si  Si14      1.0  0.6876663349999999  0.9403323450000001  0.49304730511105055  1.0000
  Si  Si15      1.0  0.6854193449999999  0.25944751499999996  0.5390136709701653  1.0000
  Si  Si16      1.0  0.3180987149999999  0.736187095  0.49925840874031513  1.0000
  Si  Si17      1.0  0.333726865  0.059667654999999986  0.5449142515877443  1.0000
  Si  Si18      1.0  0.3180987149999999  0.4028537549999999  0.5218336890480774  1.0000
  Si  Si19      1.0  0.19228659499999995  0.724043695  0.5333781625478832  1.0000
  Si  Si20      1.0  0.18766633499999993  0.069520425  0.5105460488941962  1.0000
  Si  Si21      1.0  0.27971393499999997  0.311834045  0.5533844524556761  1.0000
  Si  Si22      1.0  0.8130110249999999  0.612936735  0.5487801377904113  1.0000
  Si  Si23      1.0  0.8170505949999999  0.939533655  0.5267753529333  1.0000
  Si  Si24      1.0  0.8180987149999999  0.273665675  0.5043349452649317  1.0000
  Rh  Rh13      1.0  0.5167372949999999  0.823209875  0.5432516666841203  1.0000
  Rh  Rh14      1.0  0.5057602849999998  0.155810715  0.5222342129387659  1.0000
  Rh  Rh15      1.0  0.5057602849999998  0.48914404499999997  0.49965893263100364  1.0000
  Rh  Rh16      1.0  0.4998755849999999  0.5145679049999999  0.5379932998036098  1.0000
  Rh  Rh17      1.0  0.5000047649999999  0.854042055  0.5152220615281242  1.0000
  Rh  Rh18      1.0  0.5000047649999999  0.187375395  0.492646781220362  1.0000
  Rh  Rh19      1.0  0.026347274999999944  0.860275535  0.5477526994316487  1.0000
  Rh  Rh20      1.0  0.007479904999999946  0.18826521499999999  0.526120630232162  1.0000
  Rh  Rh21      1.0  0.005760284999999947  0.520708725  0.503934421374243  1.0000
  Rh  Rh22      1.0  0.999995235  0.474200335  0.5351484383219284  1.0000
  Rh  Rh23      1.0  4.7649999999066495e-06  0.822477375  0.5109465727848848  1.0000
  Rh  Rh24      1.0  0.990218745  0.133759225  0.5545605592090083  1.0000
