data_image0
_chemical_formula_structural       COAl8Au32
_chemical_formula_sum              "C1 O1 Al8 Au32"
_cell_length_a       7.09336999
_cell_length_b       10.03154004
_cell_length_c       100.09462013
_cell_angle_alpha    90.0
_cell_angle_beta     90.0
_cell_angle_gamma    90.0

_space_group_name_H-M_alt    "P 1"
_space_group_IT_number       1

loop_
  _space_group_symop_operation_xyz
  'x, y, z'

loop_
  _atom_site_type_symbol
  _atom_site_label
  _atom_site_symmetry_multiplicity
  _atom_site_fract_x
  _atom_site_fract_y
  _atom_site_fract_z
  _atom_site_occupancy
  C   C1        1.0  0.03342529  0.986038465  0.5479596219859001  1.0000
  O   O1        1.0  0.09545503  0.9716695249999998  0.5585849949602727  1.0000
  Al  Al1       1.0  0.9539471100000001  0.5188893049999999  0.4820120815827716  1.0000
  Al  Al2       1.0  0.9228191  0.012626864999999937  0.5295849609016228  1.0000
  Al  Al3       1.0  0.44799306  0.2630252249999999  0.5195867923172489  1.0000
  Al  Al4       1.0  0.45394711  0.7688893049999999  0.4696662200513612  1.0000
  Al  Al5       1.0  0.052884450000000006  0.5657694249999999  0.5336529169094109  1.0000
  Al  Al6       1.0  0.08076021000000001  0.08229585499999995  0.4883667232690472  1.0000
  Al  Al7       1.0  0.56544971  0.710729795  0.5138755727138681  1.0000
  Al  Al8       1.0  0.58076021  0.20548275499999993  0.46331157836508563  1.0000
  Au  Au1       1.0  0.35087219  0.512630525  0.5211365681592434  1.0000
  Au  Au2       1.0  0.33479791  0.018889304999999936  0.47007088065330327  1.0000
  Au  Au3       1.0  0.8219991  0.7624470049999998  0.531892247920808  1.0000
  Au  Au4       1.0  0.8347979099999999  0.2688893049999999  0.4816074209808295  1.0000
  Au  Au5       1.0  0.7129097600000001  0.2140571349999999  0.536473607859545  1.0000
  Au  Au6       1.0  0.69990941  0.701445055  0.4883667232690472  1.0000
  Au  Au7       1.0  0.19990940999999998  0.5863335549999998  0.46331157836508563  1.0000
  Au  Au8       1.0  0.21162108999999998  0.07193360499999993  0.5147494880805586  1.0000
  Au  Au9       1.0  0.63116495  0.43683350499999996  0.5016794978421513  1.0000
  Au  Au10      1.0  0.63116495  0.936833505  0.4515692110408453  1.0000
  Au  Au11      1.0  0.09156938  0.3093452349999999  0.5303388310654473  1.0000
  Au  Au12      1.0  0.06813261000000001  0.819428935  0.47978292151017576  1.0000
  Au  Au13      1.0  0.23044372  0.7866394649999998  0.5242840332941021  1.0000
  Au  Au14      1.0  0.23224421  0.3004054749999999  0.47155924333343385  1.0000
  Au  Au15      1.0  0.71727811  0.4862354449999999  0.5318699117620159  1.0000
  Au  Au16      1.0  0.73224421  0.9873731350000001  0.4801190583006989  1.0000
  Au  Au17      1.0  0.9659639400000001  0.6081271549999998  0.5072818267922848  1.0000
  Au  Au18      1.0  0.96657471  0.10453838499999993  0.4582464687603298  1.0000
  Au  Au19      1.0  0.30246311  0.10118442499999994  0.44141500503972736  1.0000
  Au  Au20      1.0  0.30246311  0.6011844249999999  0.4915252918410332  1.0000
  Au  Au21      1.0  0.56813261  0.4683496749999999  0.47189538012395704  1.0000
  Au  Au22      1.0  0.55496083  0.965416105  0.5254293650105892  1.0000
  Au  Au23      1.0  0.46657471  0.6832402249999998  0.4433215460724971  1.0000
  Au  Au24      1.0  0.46657471  0.18324022499999995  0.493431832873803  1.0000
  Au  Au25      1.0  0.8024631099999999  0.6865941849999998  0.4601530097930996  1.0000
  Au  Au26      1.0  0.81641819  0.1811274649999999  0.5087136801031198  1.0000
  Au  Au27      1.0  0.40354237  0.3860545549999999  0.4464801146444832  1.0000
  Au  Au28      1.0  0.40354237  0.886054555  0.49659040144578903  1.0000
  Au  Au29      1.0  0.9035423699999999  0.40172405499999997  0.4550879001883438  1.0000
  Au  Au30      1.0  0.9035423699999999  0.901724055  0.5051981869896497  1.0000
  Au  Au31      1.0  0.13116495  0.8509451050000001  0.4499988037919816  1.0000
  Au  Au32      1.0  0.13116495  0.3509451049999999  0.5001090905932875  1.0000
