data_image0
_chemical_formula_structural       COPd9V3Pd9V3
_chemical_formula_sum              "C1 O1 Pd18 V6"
_cell_length_a       7.79033128
_cell_length_b       4.80472756428212
_cell_length_c       101.48700431
_cell_angle_alpha    93.37027178964124
_cell_angle_beta     90.0
_cell_angle_gamma    113.91288572047691

_space_group_name_H-M_alt    "P 1"
_space_group_IT_number       1

loop_
  _space_group_symop_operation_xyz
  'x, y, z'

loop_
  _atom_site_type_symbol
  _atom_site_label
  _atom_site_symmetry_multiplicity
  _atom_site_fract_x
  _atom_site_fract_y
  _atom_site_fract_z
  _atom_site_occupancy
  C   C1        1.0  0.35909778  0.438252565  0.5512533168089555  1.0000
  O   O1        1.0  0.3950711099999999  0.569841605  0.5615832795642731  1.0000
  Pd  Pd1       1.0  0.06301099999999997  0.279341535  0.4642714321161672  1.0000
  Pd  Pd2       1.0  0.25745545  0.05711931499999999  0.4470349576625401  1.0000
  Pd  Pd3       1.0  0.10467766999999996  0.44600820499999994  0.4384167204357266  1.0000
  Pd  Pd4       1.0  0.17412211999999996  0.723785985  0.4987443779208564  1.0000
  Pd  Pd5       1.0  0.36856655999999993  0.501563755  0.48150790346722927  1.0000
  Pd  Pd6       1.0  0.21578877999999999  0.8904526449999999  0.4728896662404157  1.0000
  Pd  Pd7       1.0  0.30738108  0.25072795499999995  0.5337869515851533  1.0000
  Pd  Pd8       1.0  0.4761664  0.942880685  0.517447186717306  1.0000
  Pd  Pd9       1.0  0.3239358899999999  0.33129220499999995  0.5074801868541599  1.0000
  V   V1        1.0  0.41023322999999984  0.6682304249999999  0.45565319488935363  1.0000
  V   V2        1.0  0.021344339999999965  0.112674875  0.49012614069404287  1.0000
  V   V3        1.0  0.13141185999999996  0.554391565  0.5225277488484221  1.0000
  Pd  Pd10      1.0  0.5630109999999999  0.279341535  0.4642714321161672  1.0000
  Pd  Pd11      1.0  0.7574554499999999  0.05711931499999999  0.4470349576625401  1.0000
  Pd  Pd12      1.0  0.60467767  0.44600820499999994  0.4384167204357266  1.0000
  Pd  Pd13      1.0  0.6741221199999999  0.723785985  0.4987443779208564  1.0000
  Pd  Pd14      1.0  0.8685665599999999  0.501563755  0.48150790346722927  1.0000
  Pd  Pd15      1.0  0.7157887799999998  0.8904526449999999  0.4728896662404157  1.0000
  Pd  Pd16      1.0  0.8043245099999999  0.24620375499999997  0.5331261579510767  1.0000
  Pd  Pd17      1.0  0.9786556599999999  0.9318834949999998  0.5178926871502547  1.0000
  Pd  Pd18      1.0  0.82637929  0.327359205  0.50725424254686  1.0000
  V   V4        1.0  0.9102332299999999  0.6682304249999999  0.45565319488935363  1.0000
  V   V5        1.0  0.52134434  0.112674875  0.49012614069404287  1.0000
  V   V6        1.0  0.63357771  0.562852005  0.5224208096327131  1.0000
