data_image0
_chemical_formula_structural       COVPt3VPt3VPt3VPt3VPt3VPt3VPt3VPt3
_chemical_formula_sum              "C1 O1 V8 Pt24"
_cell_length_a       7.85816092
_cell_length_b       7.85816092
_cell_length_c       101.43264368
_cell_angle_alpha    90.0
_cell_angle_beta     90.0
_cell_angle_gamma    90.0

_space_group_name_H-M_alt    "P 1"
_space_group_IT_number       1

loop_
  _space_group_symop_operation_xyz
  'x, y, z'

loop_
  _atom_site_type_symbol
  _atom_site_label
  _atom_site_symmetry_multiplicity
  _atom_site_fract_x
  _atom_site_fract_y
  _atom_site_fract_z
  _atom_site_occupancy
  C   C1        1.0  0.3763291900000001  0.37590719000000006  0.5289377991912543  1.0000
  O   O1        1.0  0.37619404000000006  0.37592757  0.5408722271065747  1.0000
  V   V1        1.0  0.12406628000000003  0.12409477000000001  0.4999251716193717  1.0000
  Pt  Pt1       1.0  0.12742855000000006  0.37593113000000006  0.5169944992150677  1.0000
  Pt  Pt2       1.0  0.3759524800000001  0.12748937  0.5169944031501404  1.0000
  Pt  Pt3       1.0  0.3758891700000001  0.37592477  0.49729677013224755  1.0000
  V   V2        1.0  0.12585865000000002  0.12592966000000003  0.4591277728934252  1.0000
  Pt  Pt4       1.0  0.12585865000000002  0.37592966  0.47849570178422435  1.0000
  Pt  Pt5       1.0  0.37585865000000007  0.12592966000000003  0.47849570178422435  1.0000
  Pt  Pt6       1.0  0.37585865000000007  0.37592966  0.4591277728934252  1.0000
  V   V3        1.0  0.12406634000000005  0.6277710700000001  0.4999260455003233  1.0000
  Pt  Pt7       1.0  0.12557549  0.8759316800000002  0.5166593937599647  1.0000
  Pt  Pt8       1.0  0.3759497600000001  0.6243805600000001  0.5169935199725829  1.0000
  Pt  Pt9       1.0  0.3759387400000001  0.8759368900000001  0.4979171884214265  1.0000
  V   V4        1.0  0.12585865000000002  0.6259296600000002  0.4591277728934252  1.0000
  Pt  Pt10      1.0  0.12585865000000002  0.8759296600000002  0.47849570178422435  1.0000
  Pt  Pt11      1.0  0.37585865000000007  0.6259296600000002  0.47849570178422435  1.0000
  Pt  Pt12      1.0  0.37585865000000007  0.8759296600000002  0.4591277728934252  1.0000
  V   V5        1.0  0.6277724700000001  0.12405673000000002  0.49992896773343437  1.0000
  Pt  Pt13      1.0  0.6243666600000001  0.37591713000000004  0.5169980660128523  1.0000
  Pt  Pt14      1.0  0.87593372  0.12559076  0.5166612468834011  1.0000
  Pt  Pt15      1.0  0.8758308500000002  0.37592304000000004  0.4979161038174087  1.0000
  V   V6        1.0  0.62585865  0.12592966000000003  0.4591277728934252  1.0000
  Pt  Pt16      1.0  0.62585865  0.37592966  0.47849570178422435  1.0000
  Pt  Pt17      1.0  0.8758586500000001  0.12592966000000003  0.47849570178422435  1.0000
  Pt  Pt18      1.0  0.8758586500000001  0.37592966  0.4591277728934252  1.0000
  V   V7        1.0  0.6277644900000001  0.6277985100000001  0.4999259680286078  1.0000
  Pt  Pt19      1.0  0.6263000799999999  0.87594327  0.5166612344879266  1.0000
  Pt  Pt20      1.0  0.8759330000000001  0.62627034  0.5166612220924521  1.0000
  Pt  Pt21      1.0  0.8759134000000001  0.8759348100000001  0.4977278661418018  1.0000
  V   V8        1.0  0.62585865  0.6259296600000002  0.4591277728934252  1.0000
  Pt  Pt22      1.0  0.62585865  0.8759296600000002  0.47849570178422435  1.0000
  Pt  Pt23      1.0  0.8758586500000001  0.6259296600000002  0.47849570178422435  1.0000
  Pt  Pt24      1.0  0.8758586500000001  0.8759296600000002  0.4591277728934252  1.0000
