data_image0
_chemical_formula_structural       COV8Ir8V8Ir8V8Ir8
_chemical_formula_sum              "C1 O1 V24 Ir24"
_cell_length_a       6.77793715
_cell_length_b       11.977918501376646
_cell_length_c       101.0738692
_cell_angle_alpha    76.3587343705625
_cell_angle_beta     90.0
_cell_angle_gamma    90.0

_space_group_name_H-M_alt    "P 1"
_space_group_IT_number       1

loop_
  _space_group_symop_operation_xyz
  'x, y, z'

loop_
  _atom_site_type_symbol
  _atom_site_label
  _atom_site_symmetry_multiplicity
  _atom_site_fract_x
  _atom_site_fract_y
  _atom_site_fract_z
  _atom_site_occupancy
  C   C1        1.0  0.4999999699999999  0.5925547250000001  0.53765687195936  1.0000
  O   O1        1.0  0.4999999599999999  0.572639655  0.5497952219680879  1.0000
  V   V1        1.0  2.999999997731641e-08  0.14934823500000002  0.4740205896921447  1.0000
  V   V2        1.0  2.999999997731641e-08  0.649348235  0.46004616927641917  1.0000
  V   V3        1.0  2.999999997731641e-08  0.35359155500000006  0.4683122245444837  1.0000
  V   V4        1.0  2.999999997731641e-08  0.853591555  0.45433780720313016  1.0000
  V   V5        1.0  0.5000000299999999  0.399348235  0.4670333779470958  1.0000
  V   V6        1.0  0.5000000299999999  0.899348235  0.4530589606057424  1.0000
  V   V7        1.0  0.5000000299999999  0.10359155500000003  0.47529943628953253  1.0000
  V   V8        1.0  0.5000000299999999  0.6035915550000001  0.4613250158738069  1.0000
  Ir  Ir1       1.0  0.2835878  0.25146989500000005  0.45719198670258854  1.0000
  Ir  Ir2       1.0  0.2835878  0.751469895  0.4711664071183142  1.0000
  Ir  Ir3       1.0  0.7164122599999999  0.25146989500000005  0.45719198670258854  1.0000
  Ir  Ir4       1.0  0.7164122599999999  0.751469895  0.4711664071183142  1.0000
  Ir  Ir5       1.0  0.7835878  0.501469895  0.4502047780319119  1.0000
  Ir  Ir6       1.0  0.7835878  0.0014698950000000275  0.46417919844763744  1.0000
  Ir  Ir7       1.0  0.21641225999999997  0.501469895  0.4502047780319119  1.0000
  Ir  Ir8       1.0  0.21641225999999997  0.0014698950000000275  0.46417919844763744  1.0000
  V   V9        1.0  6.999999997731641e-08  0.14536788500000003  0.5027129520644408  1.0000
  V   V10       1.0  2.999999997731641e-08  0.649348235  0.4879950070334982  1.0000
  V   V11       1.0  2.999999997731641e-08  0.35359155500000006  0.49626106230156275  1.0000
  V   V12       1.0  2.999999997731641e-08  0.853591555  0.48228664496020923  1.0000
  V   V13       1.0  0.5000000299999999  0.399348235  0.49498221877854703  1.0000
  V   V14       1.0  0.5000000299999999  0.899348235  0.4810077983628214  1.0000
  V   V15       1.0  0.5000000099999999  0.10344746500000004  0.5035121627830271  1.0000
  V   V16       1.0  0.5000000299999999  0.6035915550000001  0.489273853630886  1.0000
  Ir  Ir9       1.0  0.2835878  0.25146989500000005  0.48514082753403975  1.0000
  Ir  Ir10      1.0  0.28256418  0.7508133950000001  0.49901019665223734  1.0000
  Ir  Ir11      1.0  0.7164122599999999  0.25146989500000005  0.48514082753403975  1.0000
  Ir  Ir12      1.0  0.7174359399999999  0.750813375  0.499010190503493  1.0000
  Ir  Ir13      1.0  0.7835878  0.501469895  0.47815361578899096  1.0000
  Ir  Ir14      1.0  0.7835878  0.0014698950000000275  0.49212803620471646  1.0000
  Ir  Ir15      1.0  0.21641225999999997  0.501469895  0.47815361578899096  1.0000
  Ir  Ir16      1.0  0.21641225999999997  0.0014698950000000275  0.49212803620471646  1.0000
  V   V17       1.0  1.6999999997731642e-07  0.13572585500000003  0.5279737770642358  1.0000
  V   V18       1.0  4.99999999773164e-08  0.6463022150000001  0.5164528409237361  1.0000
  V   V19       1.0  5.99999999773164e-08  0.3503972450000001  0.5216534427614841  1.0000
  V   V20       1.0  0.99999997  0.849453415  0.5104413980174297  1.0000
  V   V21       1.0  0.49999999999999994  0.4076191350000001  0.5207956591040478  1.0000
  V   V22       1.0  0.5000000699999999  0.8990741050000001  0.509271027568183  1.0000
  V   V23       1.0  0.49999999999999994  0.08370376500000003  0.5284040047076678  1.0000
  V   V24       1.0  0.5000001  0.6176969550000001  0.517760540504071  1.0000
  Ir  Ir17      1.0  0.28310057  0.25118471500000006  0.5136787672659047  1.0000
  Ir  Ir18      1.0  0.2673806099999999  0.7601129750000001  0.525646932328014  1.0000
  Ir  Ir19      1.0  0.7168995599999999  0.251184695  0.5136787672659047  1.0000
  Ir  Ir20      1.0  0.7326192199999999  0.760112965  0.5256469292536418  1.0000
  Ir  Ir21      1.0  0.7798702799999999  0.502677315  0.5063166419817586  1.0000
  Ir  Ir22      1.0  0.7798861699999999  0.998530105  0.5200907332316012  1.0000
  Ir  Ir23      1.0  0.22012978999999996  0.5026773750000001  0.5063166358330141  1.0000
  Ir  Ir24      1.0  0.22011404999999995  0.9985300250000001  0.5200907424547176  1.0000
