data_image0
_chemical_formula_structural       CORe4Rh12Re4Rh12
_chemical_formula_sum              "C1 O1 Re8 Rh24"
_cell_length_a       11.857090300397
_cell_length_b       5.51193868
_cell_length_c       104.93053075
_cell_angle_alpha    90.0
_cell_angle_beta     111.6074335670742
_cell_angle_gamma    62.29855606050977

_space_group_name_H-M_alt    "P 1"
_space_group_IT_number       1

loop_
  _space_group_symop_operation_xyz
  'x, y, z'

loop_
  _atom_site_type_symbol
  _atom_site_label
  _atom_site_symmetry_multiplicity
  _atom_site_fract_x
  _atom_site_fract_y
  _atom_site_fract_z
  _atom_site_occupancy
  C   C1        1.0  0.66194839  0.7862487349999999  0.5418610915783988  1.0000
  O   O1        1.0  0.73576143  0.777180125  0.5533560043194329  1.0000
  Re  Re1       1.0  0.33463802  0.663454115  0.5149179709274695  1.0000
  Re  Re2       1.0  0.83333333  0.6635759649999998  0.49519073971712013  1.0000
  Re  Re3       1.0  0.16666666999999996  0.3302426249999999  0.488255491520161  1.0000
  Re  Re4       1.0  0.6764982  0.30907299499999985  0.5102800135217423  1.0000
  Rh  Rh1       1.0  0.41600831  0.3310433849999999  0.49857836488261814  1.0000
  Rh  Rh2       1.0  0.8968537400000001  0.3517506349999998  0.5181871531312097  1.0000
  Rh  Rh3       1.0  0.16895865999999998  0.8279506349999999  0.4883508650686254  1.0000
  Rh  Rh4       1.0  0.66270211  0.8414195049999998  0.50829708260144  1.0000
  Rh  Rh5       1.0  0.41369429  0.8280562049999998  0.49799579728302457  1.0000
  Rh  Rh6       1.0  0.90374481  0.8337899049999998  0.5182290941900963  1.0000
  Rh  Rh7       1.0  0.09160152999999999  0.6560468349999998  0.5060025381689334  1.0000
  Rh  Rh8       1.0  0.57992769  0.6704628549999999  0.5252875656774553  1.0000
  Rh  Rh9       1.0  0.32606494  0.16388077499999995  0.5149749320718944  1.0000
  Rh  Rh10      1.0  0.83104134  0.16586795499999996  0.49509536616865585  1.0000
  Rh  Rh11      1.0  0.08777435999999997  0.15858049499999996  0.5058849207792531  1.0000
  Rh  Rh12      1.0  0.57421632  0.18818321499999996  0.525930922679091  1.0000
  Re  Re5       1.0  0.33333333  0.6635759649999998  0.4743849917973232  1.0000
  Re  Re6       1.0  0.83333333  0.6635759649999998  0.4535792438775263  1.0000
  Re  Re7       1.0  0.16666666999999996  0.3302426249999999  0.4466439956805672  1.0000
  Re  Re8       1.0  0.66666667  0.33024262499999985  0.4674497436003641  1.0000
  Rh  Rh13      1.0  0.41552067  0.3348266249999999  0.4569991828662335  1.0000
  Rh  Rh14      1.0  0.91552067  0.3348266249999999  0.4778049307860304  1.0000
  Rh  Rh15      1.0  0.16895865999999998  0.8279506349999999  0.44673936922903157  1.0000
  Rh  Rh16      1.0  0.66895866  0.8279506349999999  0.4675451171488285  1.0000
  Rh  Rh17      1.0  0.41552067  0.8279506349999999  0.4569991828662335  1.0000
  Rh  Rh18      1.0  0.91552067  0.827950635  0.4778049307860304  1.0000
  Rh  Rh19      1.0  0.08447932999999999  0.6589919649999999  0.46402980461165694  1.0000
  Rh  Rh20      1.0  0.58447933  0.6589919649999997  0.4848355525314539  1.0000
  Rh  Rh21      1.0  0.33104134  0.16586795499999987  0.47428961824885885  1.0000
  Rh  Rh22      1.0  0.83104134  0.16586795499999996  0.453483870329062  1.0000
  Rh  Rh23      1.0  0.08447932999999999  0.16586795499999996  0.46402980461165694  1.0000
  Rh  Rh24      1.0  0.58447933  0.1658679549999998  0.4848355525314539  1.0000
