data_image0
_chemical_formula_structural       COAg8Au24
_chemical_formula_sum              "C1 O1 Ag8 Au24"
_cell_length_a       7.6717142533710465
_cell_length_b       11.341396340615372
_cell_length_c       98.78338764
_cell_angle_alpha    90.7706613192847
_cell_angle_beta     91.13933961353412
_cell_angle_gamma    109.02289483787506

_space_group_name_H-M_alt    "P 1"
_space_group_IT_number       1

loop_
  _space_group_symop_operation_xyz
  'x, y, z'

loop_
  _atom_site_type_symbol
  _atom_site_label
  _atom_site_symmetry_multiplicity
  _atom_site_fract_x
  _atom_site_fract_y
  _atom_site_fract_z
  _atom_site_occupancy
  C   C1        1.0  0.45075767999999994  0.19674021000000003  0.5318897211858441  1.0000
  O   O1        1.0  0.4718653299999999  0.18328833000000005  0.5435678290989114  1.0000
  Ag  Ag1       1.0  0.48012216999999996  0.32865016  0.49274728524082384  1.0000
  Ag  Ag2       1.0  0.92309382  0.015580690000000027  0.4746433476027425  1.0000
  Ag  Ag3       1.0  0.36059382  0.7030806900000002  0.4564321709010888  1.0000
  Ag  Ag4       1.0  0.03989540999999992  0.63967819  0.5116711191918965  1.0000
  Ag  Ag5       1.0  0.5707448199999999  0.71195213  0.494991517019793  1.0000
  Ag  Ag6       1.0  0.01684381999999997  0.4009973500000001  0.47767854177715935  1.0000
  Ag  Ag7       1.0  0.45434381999999995  0.08849735000000003  0.45946736507550556  1.0000
  Ag  Ag8       1.0  0.11756222999999993  0.016094430000000028  0.5141723500102675  1.0000
  Au  Au1       1.0  0.7979941300000001  0.5570147400000001  0.4868325427201298  1.0000
  Au  Au2       1.0  0.23549412999999994  0.24451474  0.46862136601847615  1.0000
  Au  Au3       1.0  0.9267491600000001  0.19057922000000005  0.5213552081525105  1.0000
  Au  Au4       1.0  0.34732391999999995  0.8723595900000001  0.5056899335572299  1.0000
  Au  Au5       1.0  0.8411605799999999  0.37140891000000004  0.5052431478325021  1.0000
  Au  Au6       1.0  0.29779474999999994  0.05761289000000004  0.48677444760955746  1.0000
  Au  Au7       1.0  0.73529475  0.7451128900000001  0.46856327090790373  1.0000
  Au  Au8       1.0  0.41683649999999994  0.6818941800000001  0.5210840306193755  1.0000
  Au  Au9       1.0  0.6277164799999999  0.52277658  0.5141189548401783  1.0000
  Au  Au10      1.0  0.07668326999999997  0.21387163000000003  0.49532978161410846  1.0000
  Au  Au11      1.0  0.51724258  0.90086443  0.47763981170344433  1.0000
  Au  Au12      1.0  0.9547425800000001  0.5883644300000002  0.4594286350017906  1.0000
  Au  Au13      1.0  0.24323762000000002  0.4741873200000001  0.5035835734979395  1.0000
  Au  Au14      1.0  0.7044435099999999  0.17206330000000003  0.4837005233614257  1.0000
  Au  Au15      1.0  0.14194350999999997  0.8595633  0.46548934665977193  1.0000
  Au  Au16      1.0  0.80833421  0.7874042600000001  0.5185705414937429  1.0000
  Au  Au17      1.0  0.20464288999999997  0.6714651500000001  0.4837586184719982  1.0000
  Au  Au18      1.0  0.6421428899999999  0.35896515000000007  0.46554744177034435  1.0000
  Au  Au19      1.0  0.3164811699999999  0.29656397000000007  0.5201798005324202  1.0000
  Au  Au20      1.0  0.7499472499999998  0.9844193099999999  0.5024138652477098  1.0000
  Au  Au21      1.0  0.42269506  0.5157136100000002  0.4746820776764575  1.0000
  Au  Au22      1.0  0.8601950599999999  0.20321361000000002  0.45647090097480364  1.0000
  Au  Au23      1.0  0.54795672  0.12774001000000001  0.5142433677718274  1.0000
  Au  Au24      1.0  0.98315618  0.82857738  0.49284538666437444  1.0000
