data_image0
_chemical_formula_structural       COV3Pt3V3Pt3V3Pt3V3Pt3
_chemical_formula_sum              "C1 O1 V12 Pt12"
_cell_length_a       5.42031076
_cell_length_b       6.692980023890232
_cell_length_c       103.39605664999999
_cell_angle_alpha    88.69660348790421
_cell_angle_beta     90.0
_cell_angle_gamma    90.0

_space_group_name_H-M_alt    "P 1"
_space_group_IT_number       1

loop_
  _space_group_symop_operation_xyz
  'x, y, z'

loop_
  _atom_site_type_symbol
  _atom_site_label
  _atom_site_symmetry_multiplicity
  _atom_site_fract_x
  _atom_site_fract_y
  _atom_site_fract_z
  _atom_site_occupancy
  C   C1        1.0  0.08294582499999999  0.560130135  0.5412010897305681  1.0000
  O   O1        1.0  0.17523075500000002  0.497013045  0.5508521365530796  1.0000
  V   V1        1.0  0.401569715  0.6843320649999999  0.47990896548434303  1.0000
  V   V2        1.0  0.401569715  0.017665395000000014  0.46452841608058953  1.0000
  V   V3        1.0  0.401569715  0.3509987249999999  0.4491478634469202  1.0000
  Pt  Pt1       1.0  0.151569715  0.6843320649999999  0.4568381381487969  1.0000
  Pt  Pt2       1.0  0.151569715  0.017665395000000014  0.4875992434161357  1.0000
  Pt  Pt3       1.0  0.151569715  0.3509987249999999  0.47221869078246625  1.0000
  V   V4        1.0  0.402044595  0.675403285  0.5251768148597079  1.0000
  V   V5        1.0  0.4043826749999999  0.013271915000000016  0.5107900556672219  1.0000
  V   V6        1.0  0.401569715  0.3509987249999999  0.4952895181180124  1.0000
  Pt  Pt4       1.0  0.151569715  0.6843320649999999  0.502979796049805  1.0000
  Pt  Pt5       1.0  0.15511480500000002  0.9867280849999999  0.5322286611565401  1.0000
  Pt  Pt6       1.0  0.153085775  0.33944712499999996  0.5176342958902072  1.0000
  V   V7        1.0  0.901569715  0.6843320649999999  0.47990896548434303  1.0000
  V   V8        1.0  0.901569715  0.017665395000000014  0.46452841608058953  1.0000
  V   V9        1.0  0.901569715  0.3509987249999999  0.4491478634469202  1.0000
  Pt  Pt7       1.0  0.6515697149999999  0.6843320649999999  0.4568381381487969  1.0000
  Pt  Pt8       1.0  0.6515697149999999  0.017665395000000014  0.4875992434161357  1.0000
  Pt  Pt9       1.0  0.6515697149999999  0.3509987249999999  0.47221869078246625  1.0000
  V   V10       1.0  0.9170541750000001  0.6674687149999998  0.5257230743848705  1.0000
  V   V11       1.0  0.8999898050000001  0.021805635000000018  0.5105264686911423  1.0000
  V   V12       1.0  0.901569715  0.3509987249999999  0.4952895181180124  1.0000
  Pt  Pt10      1.0  0.6515697149999999  0.6843320649999999  0.502979796049805  1.0000
  Pt  Pt11      1.0  0.657274555  0.9735540849999998  0.5321660718463932  1.0000
  Pt  Pt12      1.0  0.6523682350000001  0.34458674499999997  0.5177798132908703  1.0000
