data_image0
_chemical_formula_structural       COAl8V24
_chemical_formula_sum              "C1 O1 Al8 V24"
_cell_length_a       6.81729693
_cell_length_b       8.349449458553643
_cell_length_c       101.61050546
_cell_angle_alpha    95.051152498324
_cell_angle_beta     90.0
_cell_angle_gamma    90.0

_space_group_name_H-M_alt    "P 1"
_space_group_IT_number       1

loop_
  _space_group_symop_operation_xyz
  'x, y, z'

loop_
  _atom_site_type_symbol
  _atom_site_label
  _atom_site_symmetry_multiplicity
  _atom_site_fract_x
  _atom_site_fract_y
  _atom_site_fract_z
  _atom_site_occupancy
  C   C1        1.0  0.977512705  0.414266235  0.5404953074895842  1.0000
  O   O1        1.0  0.9939354949999999  0.425467355  0.55201640057062  1.0000
  Al  Al1       1.0  0.9714563149999998  0.396860875  0.5209353771414166  1.0000
  Al  Al2       1.0  0.506064505  0.337465305  0.46256617075632606  1.0000
  Al  Al3       1.0  0.006064504999999988  0.02496530500000002  0.4820095991922543  1.0000
  Al  Al4       1.0  0.498010455  0.7159069149999999  0.5011346749302411  1.0000
  Al  Al5       1.0  0.006064504999999988  0.524965305  0.4820095991922543  1.0000
  Al  Al6       1.0  0.5143413749999999  0.214629755  0.5011937425103551  1.0000
  Al  Al7       1.0  0.03522702499999999  0.8971809350000001  0.5213279539608064  1.0000
  Al  Al8       1.0  0.506064505  0.837465305  0.46256617075632606  1.0000
  V   V1        1.0  0.25606450499999994  0.587465305  0.46256617075632606  1.0000
  V   V2        1.0  0.7560645049999999  0.274965305  0.4820095991922543  1.0000
  V   V3        1.0  0.262621525  0.9750346949999998  0.5017823775292473  1.0000
  V   V4        1.0  0.7688346049999999  0.675554465  0.5184710268039391  1.0000
  V   V5        1.0  0.25606450499999994  0.7749653049999999  0.4820095991922543  1.0000
  V   V6        1.0  0.748007615  0.476781545  0.501472576828869  1.0000
  V   V7        1.0  0.24178492499999998  0.16499659500000002  0.5184901124732918  1.0000
  V   V8        1.0  0.7560645049999999  0.08746530500000001  0.46256617075632606  1.0000
  V   V9        1.0  0.881064505  0.415590305  0.45770531364734407  1.0000
  V   V10       1.0  0.38106450499999994  0.10309030500000002  0.4771487420832722  1.0000
  V   V11       1.0  0.8851450749999998  0.779827785  0.4975617505208549  1.0000
  V   V12       1.0  0.35716074499999995  0.472530925  0.5139192828757057  1.0000
  V   V13       1.0  0.13106450499999997  0.259340305  0.4674270278653081  1.0000
  V   V14       1.0  0.631064505  0.9468403049999999  0.48687045630123627  1.0000
  V   V15       1.0  0.12976159499999998  0.618502435  0.5061871042509166  1.0000
  V   V16       1.0  0.631064505  0.571840305  0.4479835994293799  1.0000
  V   V17       1.0  0.631064505  0.603090305  0.4771487420832722  1.0000
  V   V18       1.0  0.12738428499999999  0.280852655  0.49774720660769955  1.0000
  V   V19       1.0  0.661147935  0.974132755  0.5144020678701926  1.0000
  V   V20       1.0  0.13106450499999997  0.915590305  0.45770531364734407  1.0000
  V   V21       1.0  0.881064505  0.759340305  0.46742702786530815  1.0000
  V   V22       1.0  0.38106450499999994  0.446840305  0.4868704563012364  1.0000
  V   V23       1.0  0.8792278549999999  0.11584802500000002  0.5059897736734575  1.0000
  V   V24       1.0  0.38106450499999994  0.07184030500000002  0.44798359942938  1.0000
