data_image0
_chemical_formula_structural       COV6Si12V6Si12
_chemical_formula_sum              "C1 O1 V12 Si24"
_cell_length_a       13.59001596162896
_cell_length_b       4.582751873659919
_cell_length_c       106.66201497
_cell_angle_alpha    120.0000000457647
_cell_angle_beta     80.29314541483595
_cell_angle_gamma    80.29314545551317

_space_group_name_H-M_alt    "P 1"
_space_group_IT_number       1

loop_
  _space_group_symop_operation_xyz
  'x, y, z'

loop_
  _atom_site_type_symbol
  _atom_site_label
  _atom_site_symmetry_multiplicity
  _atom_site_fract_x
  _atom_site_fract_y
  _atom_site_fract_z
  _atom_site_occupancy
  C   C1        1.0  0.78988921  0.5455306150000001  0.5370723684683301  1.0000
  O   O1        1.0  0.7539902900000001  0.7652618749999998  0.5503872754227864  1.0000
  V   V1        1.0  0.41391802  0.17055900499999999  0.5268108760202104  1.0000
  V   V2        1.0  0.91552248  0.6662084049999999  0.5062068450598011  1.0000
  V   V3        1.0  0.58168462  0.5150386949999999  0.4997387580024094  1.0000
  V   V4        1.0  0.09126664999999999  0.988786095  0.5202210497244805  1.0000
  V   V5        1.0  0.24989892  0.3455427150000001  0.5138916095601052  1.0000
  V   V6        1.0  0.7483512899999999  0.8483720250000001  0.4925778970665854  1.0000
  Si  Si1       1.0  0.24835128999999997  0.6855301550000001  0.499574424810672  1.0000
  Si  Si2       1.0  0.74185316  0.1263401850000001  0.5220826240948173  1.0000
  Si  Si3       1.0  0.58015012  0.19644915499999996  0.5143891909413115  1.0000
  Si  Si4       1.0  0.08168461999999999  0.689354945  0.49274222682110896  1.0000
  Si  Si5       1.0  0.41501794999999997  0.8445472350000001  0.4994100916189348  1.0000
  Si  Si6       1.0  0.9205362199999999  0.30094075500000017  0.5203529528040229  1.0000
  Si  Si7       1.0  0.24695876  0.034858525  0.528630251716735  1.0000
  Si  Si8       1.0  0.74745612  0.4977919849999998  0.5065257497560861  1.0000
  Si  Si9       1.0  0.57595261  0.884888575  0.5283834185193904  1.0000
  Si  Si10      1.0  0.07946377999999998  0.36540453500000003  0.5087481593938437  1.0000
  Si  Si11      1.0  0.4119862099999999  0.544403605  0.5158475148259458  1.0000
  Si  Si12      1.0  0.91501795  0.018863485000000048  0.4929065600128462  1.0000
  V   V7        1.0  0.41501794999999997  0.18170536500000006  0.4854170326935476  1.0000
  V   V8        1.0  0.91501795  0.6817053649999999  0.46393444644886167  1.0000
  V   V9        1.0  0.58168462  0.5150386949999999  0.45677358551303765  1.0000
  V   V10       1.0  0.08168461999999999  0.015038695000000008  0.4782561717577235  1.0000
  V   V11       1.0  0.24835128999999997  0.34837202500000003  0.47109531082189954  1.0000
  V   V12       1.0  0.7483512899999999  0.8483720250000001  0.4496127245772137  1.0000
  Si  Si13      1.0  0.24835128999999997  0.6855301550000001  0.4566092523213003  1.0000
  Si  Si14      1.0  0.7483512899999999  0.18553015500000017  0.47809183856598614  1.0000
  Si  Si15      1.0  0.58168462  0.189354945  0.4712596405764231  1.0000
  Si  Si16      1.0  0.08168461999999999  0.689354945  0.44977705433173726  1.0000
  Si  Si17      1.0  0.41501794999999997  0.8445472350000001  0.456444919129563  1.0000
  Si  Si18      1.0  0.91501795  0.3445472349999999  0.4779275053742489  1.0000
  Si  Si19      1.0  0.24835128999999997  0.011213904999999968  0.48558136588528494  1.0000
  Si  Si20      1.0  0.7483512899999999  0.511213905  0.46409877964059904  1.0000
  Si  Si21      1.0  0.58168462  0.8407224450000002  0.48525269950181027  1.0000
  Si  Si22      1.0  0.08168461999999999  0.34072244500000004  0.46377011325712436  1.0000
  Si  Si23      1.0  0.41501794999999997  0.5188634850000001  0.4714239737681605  1.0000
  Si  Si24      1.0  0.91501795  0.018863485000000048  0.44994138752347457  1.0000
