data_image0
_chemical_formula_structural       COFe16W8
_chemical_formula_sum              "C1 O1 Fe16 W8"
_cell_length_a       9.05959725971097
_cell_length_b       4.66309676258136
_cell_length_c       106.23838905
_cell_angle_alpha    75.08672220315914
_cell_angle_beta     118.04339009729256
_cell_angle_gamma    75.08672217877309

_space_group_name_H-M_alt    "P 1"
_space_group_IT_number       1

loop_
  _space_group_symop_operation_xyz
  'x, y, z'

loop_
  _atom_site_type_symbol
  _atom_site_label
  _atom_site_symmetry_multiplicity
  _atom_site_fract_x
  _atom_site_fract_y
  _atom_site_fract_z
  _atom_site_occupancy
  C   C1        1.0  0.704175095  0.42201536  0.5394592683017557  1.0000
  O   O1        1.0  0.689416135  0.37878652999999995  0.5502674566819787  1.0000
  Fe  Fe1       1.0  0.019883594999999997  0.74440472  0.45390766540262967  1.0000
  Fe  Fe2       1.0  0.519883595  0.74440472  0.49654572375193406  1.0000
  Fe  Fe3       1.0  0.244507315  0.7662876000000001  0.5161201434317642  1.0000
  Fe  Fe4       1.0  0.769883595  0.74440472  0.4752266945772819  1.0000
  Fe  Fe5       1.0  0.050882685  0.5806730300000001  0.5213539548610072  1.0000
  Fe  Fe6       1.0  0.559650785  0.5739391  0.47861788355421414  1.0000
  Fe  Fe7       1.0  0.22441797500000002  0.9148703399999999  0.4926685905295172  1.0000
  Fe  Fe8       1.0  0.7244179749999999  0.9148703399999999  0.4500305321802128  1.0000
  Fe  Fe9       1.0  0.980116405  0.4034734799999999  0.4718355021893049  1.0000
  Fe  Fe10      1.0  0.47948641500000005  0.39664822000000005  0.5144861131829873  1.0000
  Fe  Fe11      1.0  0.050258245  0.0844611  0.5213376125460032  1.0000
  Fe  Fe12      1.0  0.559650785  0.08533596000000004  0.47861788355421414  1.0000
  Fe  Fe13      1.0  0.825377145  0.57016548  0.5001679803057175  1.0000
  Fe  Fe14      1.0  0.31534921499999996  0.5739391000000001  0.4577847952140019  1.0000
  Fe  Fe15      1.0  0.980116405  0.9148703399999999  0.471835502189305  1.0000
  Fe  Fe16      1.0  0.48013359499999997  0.92226195  0.514535928079318  1.0000
  W   W1        1.0  0.31884361499999997  0.4110713900000001  0.48526425974612303  1.0000
  W   W2        1.0  0.783684425  0.4507477599999999  0.5242723082371137  1.0000
  W   W3        1.0  0.902176945  0.07773805000000018  0.49237060166732544  1.0000
  W   W4        1.0  0.40217694500000006  0.07773804999999998  0.4497325433180211  1.0000
  W   W5        1.0  0.717447445  0.08156062000000008  0.5073929447162925  1.0000
  W   W6        1.0  0.22092357500000004  0.07773805  0.4651891259973961  1.0000
  W   W7        1.0  0.137879145  0.40668105000000004  0.5013894924565317  1.0000
  W   W8        1.0  0.637590245  0.41107138999999987  0.45808278407619357  1.0000
