data_image0
_chemical_formula_structural       COCu9Pt9
_chemical_formula_sum              "C1 O1 Cu9 Pt9"
_cell_length_a       4.606788261603728
_cell_length_b       7.201792915765026
_cell_length_c       99.90914924
_cell_angle_alpha    87.41062767899909
_cell_angle_beta     85.95003989559618
_cell_angle_gamma    72.94365481809892

_space_group_name_H-M_alt    "P 1"
_space_group_IT_number       1

loop_
  _space_group_symop_operation_xyz
  'x, y, z'

loop_
  _atom_site_type_symbol
  _atom_site_label
  _atom_site_symmetry_multiplicity
  _atom_site_fract_x
  _atom_site_fract_y
  _atom_site_fract_z
  _atom_site_occupancy
  C   C1        1.0  0.8894047249999999  0.9726983200000001  0.5395775102264351  1.0000
  O   O1        1.0  0.8762641449999997  0.9401837900000001  0.5511333651249941  1.0000
  Cu  Cu1       1.0  0.08225281499999994  0.5275930200000001  0.47154568662869717  1.0000
  Cu  Cu2       1.0  0.41558614499999996  0.25486575  0.4534024464231979  1.0000
  Cu  Cu3       1.0  0.7489194849999999  0.8912293900000001  0.4624740665259475  1.0000
  Cu  Cu4       1.0  0.08226283499999991  0.43787944000000006  0.49807340001074607  1.0000
  Cu  Cu5       1.0  0.4155861449999999  0.16395666  0.48061730673144676  1.0000
  Cu  Cu6       1.0  0.7489194849999998  0.8003203000000001  0.4896889268341965  1.0000
  Cu  Cu7       1.0  0.0840378349999999  0.3450435900000001  0.5229537611418017  1.0000
  Cu  Cu8       1.0  0.417000375  0.06654711  0.5077892173631736  1.0000
  Cu  Cu9       1.0  0.7588109749999998  0.7005415100000001  0.5157614401037999  1.0000
  Pt  Pt1       1.0  0.5822528149999999  0.5730475700000001  0.4579382549777554  1.0000
  Pt  Pt2       1.0  0.9155861449999999  0.20941120000000002  0.467009875080505  1.0000
  Pt  Pt3       1.0  0.2489194849999999  0.93668393  0.44886663487500583  1.0000
  Pt  Pt4       1.0  0.5822528149999999  0.4821384800000001  0.4851531152860043  1.0000
  Pt  Pt5       1.0  0.917747185  0.11316758000000002  0.494778575763373  1.0000
  Pt  Pt6       1.0  0.2489194849999999  0.8457748400000001  0.4760814951832547  1.0000
  Pt  Pt7       1.0  0.5761193949999999  0.3919823500000001  0.512049249298863  1.0000
  Pt  Pt8       1.0  0.9056767149999998  0.02730168000000001  0.5212715689705906  1.0000
  Pt  Pt9       1.0  0.25138527499999985  0.7522183600000001  0.5034517101623838  1.0000
