data_image0
_chemical_formula_structural       CONi12V6Ni12V6
_chemical_formula_sum              "C1 O1 Ni24 V12"
_cell_length_a       5.69272904873641
_cell_length_b       8.830714767011239
_cell_length_c       100.43404457
_cell_angle_alpha    91.42545592845143
_cell_angle_beta     95.23379228984138
_cell_angle_gamma    74.8975190306833

_space_group_name_H-M_alt    "P 1"
_space_group_IT_number       1

loop_
  _space_group_symop_operation_xyz
  'x, y, z'

loop_
  _atom_site_type_symbol
  _atom_site_label
  _atom_site_symmetry_multiplicity
  _atom_site_fract_x
  _atom_site_fract_y
  _atom_site_fract_z
  _atom_site_occupancy
  C   C1        1.0  0.7248586850000001  0.017741864999999992  0.5386474180005929  1.0000
  O   O1        1.0  0.704979795  0.014935504999999977  0.5505236112107604  1.0000
  Ni  Ni1       1.0  0.8472927149999999  0.200922565  0.48318114639037274  1.0000
  Ni  Ni2       1.0  0.18062604499999999  0.05806541499999999  0.4687513751281891  1.0000
  Ni  Ni3       1.0  0.5139593849999999  0.4152082750000001  0.45432160386600545  1.0000
  Ni  Ni4       1.0  0.956773245  0.3422073650000001  0.4639061600514234  1.0000
  Ni  Ni5       1.0  0.290106585  0.199350215  0.4494763887892397  1.0000
  Ni  Ni6       1.0  0.623439915  0.4850644950000001  0.4783359282833552  1.0000
  Ni  Ni7       1.0  0.8543495949999999  0.12825583499999998  0.526434912292899  1.0000
  Ni  Ni8       1.0  0.186508925  0.4854893050000001  0.5125787586082642  1.0000
  Ni  Ni9       1.0  0.5139593849999999  0.343779695  0.4976109176525564  1.0000
  Ni  Ni10      1.0  0.958380475  0.26639035499999997  0.507193170846596  1.0000
  Ni  Ni11      1.0  0.290106585  0.127921645  0.49276569954553884  1.0000
  Ni  Ni12      1.0  0.6236873249999999  0.40992285500000003  0.5217970058334535  1.0000
  V   V1        1.0  0.7353663149999999  0.128707815  0.4591138804435884  1.0000
  V   V2        1.0  0.06869964499999998  0.41442210500000004  0.48797342296795587  1.0000
  V   V3        1.0  0.40203298499999995  0.271564955  0.47354365170577223  1.0000
  V   V4        1.0  0.7287898049999999  0.05704202500000002  0.5022706328343041  1.0000
  V   V5        1.0  0.04161952499999997  0.353301475  0.5288711680854501  1.0000
  V   V6        1.0  0.40446672499999997  0.19527607500000002  0.5164872349721602  1.0000
  Ni  Ni13      1.0  0.8472927149999999  0.700922565  0.48318114639037274  1.0000
  Ni  Ni14      1.0  0.18062604499999999  0.5580654150000001  0.468751375128189  1.0000
  Ni  Ni15      1.0  0.5139593849999999  0.915208275  0.45432160386600545  1.0000
  Ni  Ni16      1.0  0.956773245  0.842207365  0.4639061600514233  1.0000
  Ni  Ni17      1.0  0.290106585  0.699350215  0.44947638878923973  1.0000
  Ni  Ni18      1.0  0.623439915  0.985064495  0.4783359282833552  1.0000
  Ni  Ni19      1.0  0.8497320049999999  0.6287260950000001  0.5257862414384322  1.0000
  Ni  Ni20      1.0  0.18898902499999998  0.984922295  0.5124827965938329  1.0000
  Ni  Ni21      1.0  0.5139593849999999  0.843779695  0.4976109176525564  1.0000
  Ni  Ni22      1.0  0.9561995849999999  0.7712524249999999  0.5070542641034631  1.0000
  Ni  Ni23      1.0  0.290106585  0.627921645  0.49276569954553884  1.0000
  Ni  Ni24      1.0  0.620756995  0.9113250050000001  0.5231494284296017  1.0000
  V   V7        1.0  0.7353663149999999  0.628707815  0.4591138804435884  1.0000
  V   V8        1.0  0.06869964499999998  0.9144221050000001  0.4879734229679558  1.0000
  V   V9        1.0  0.40203298499999995  0.7715649550000001  0.47354365170577223  1.0000
  V   V10       1.0  0.7292145349999999  0.557865265  0.50267680475714  1.0000
  V   V11       1.0  0.07406991499999997  0.838999325  0.5290668738685762  1.0000
  V   V12       1.0  0.40398269499999995  0.6956135650000002  0.5167333399034493  1.0000
