data_image0
_chemical_formula_structural       COIr10Sn14
_chemical_formula_sum              "C1 O1 Ir10 Sn14"
_cell_length_a       6.979382209492079
_cell_length_b       6.57137938
_cell_length_c       106.94559102
_cell_angle_alpha    90.0
_cell_angle_beta     90.0
_cell_angle_gamma    118.0843456672424

_space_group_name_H-M_alt    "P 1"
_space_group_IT_number       1

loop_
  _space_group_symop_operation_xyz
  'x, y, z'

loop_
  _atom_site_type_symbol
  _atom_site_label
  _atom_site_symmetry_multiplicity
  _atom_site_fract_x
  _atom_site_fract_y
  _atom_site_fract_z
  _atom_site_occupancy
  C   C1        1.0  0.9257873150000001  0.1543128000000001  0.5528855982795121  1.0000
  O   O1        1.0  0.8328035050000001  0.07621427000000003  0.5622702343667175  1.0000
  Ir  Ir1       1.0  0.07662609499999996  0.2859761899999999  0.5380909166602197  1.0000
  Ir  Ir2       1.0  0.07421268499999997  0.81117564  0.4812876426180783  1.0000
  Ir  Ir3       1.0  0.07421268499999997  0.31117563999999986  0.4517488100423002  1.0000
  Ir  Ir4       1.0  0.07421268499999997  0.81117564  0.5093257383453451  1.0000
  Ir  Ir5       1.0  0.5299927649999999  0.52332551  0.5358668593005207  1.0000
  Ir  Ir6       1.0  0.561180225  0.05465940999999996  0.4812876426180783  1.0000
  Ir  Ir7       1.0  0.561180225  0.05465940999999996  0.5093257383453451  1.0000
  Ir  Ir8       1.0  0.561180225  0.5546594099999999  0.4517488100423002  1.0000
  Ir  Ir9       1.0  0.31769645500000004  0.11041567999999992  0.4377297656332824  1.0000
  Ir  Ir10      1.0  0.31769645500000004  0.6104156799999999  0.4953066904817117  1.0000
  Sn  Sn1       1.0  0.7467153049999999  0.31332383  0.4377297656332824  1.0000
  Sn  Sn2       1.0  0.7467153049999999  0.81332383  0.4953066904817117  1.0000
  Sn  Sn3       1.0  0.31769645500000004  0.5988144  0.47060510398440797  1.0000
  Sn  Sn4       1.0  0.315694325  0.09175086999999997  0.5282232285788298  1.0000
  Sn  Sn5       1.0  0.31769645500000004  0.09881439999999996  0.4624313521305862  1.0000
  Sn  Sn6       1.0  0.30471843499999995  0.5978904399999999  0.5192406475677691  1.0000
  Sn  Sn7       1.0  0.888677605  0.88430498  0.4377297656332824  1.0000
  Sn  Sn8       1.0  0.888677605  0.38430498000000013  0.4953066904817117  1.0000
  Sn  Sn9       1.0  0.8180548850000001  0.42856164  0.5254829169141351  1.0000
  Sn  Sn10      1.0  0.817696455  0.94534059  0.466518228057497  1.0000
  Sn  Sn11      1.0  0.31769645500000004  0.70923998  0.4377297656332824  1.0000
  Sn  Sn12      1.0  0.31769645500000004  0.20923997999999994  0.4953066904817117  1.0000
  Sn  Sn13      1.0  0.8056789750000001  0.91675239  0.5246427682116028  1.0000
  Sn  Sn14      1.0  0.817696455  0.44534059000000004  0.466518228057497  1.0000
