data_image0
_chemical_formula_structural       COGa6Ni10Ga6Ni10
_chemical_formula_sum              "C1 O1 Ga12 Ni20"
_cell_length_a       7.55564592
_cell_length_b       5.117512768670415
_cell_length_c       100.5852238
_cell_angle_alpha    93.45094049608642
_cell_angle_beta     90.0
_cell_angle_gamma    90.0

_space_group_name_H-M_alt    "P 1"
_space_group_IT_number       1

loop_
  _space_group_symop_operation_xyz
  'x, y, z'

loop_
  _atom_site_type_symbol
  _atom_site_label
  _atom_site_symmetry_multiplicity
  _atom_site_fract_x
  _atom_site_fract_y
  _atom_site_fract_z
  _atom_site_occupancy
  C   C1        1.0  0.37550102  0.37898666499999994  0.5478192669035326  1.0000
  O   O1        1.0  0.37549994999999997  0.37558991499999994  0.5594270123524712  1.0000
  Ga  Ga1       1.0  0.37550018999999996  0.20329784499999995  0.45483390451592304  1.0000
  Ga  Ga2       1.0  0.37550058999999997  0.37595215499999995  0.5057744430451023  1.0000
  Ga  Ga3       1.0  0.37550310000000003  0.8865827449999999  0.5275640791287982  1.0000
  Ga  Ga4       1.0  0.37550018999999996  0.713368825  0.4769908574191512  1.0000
  Ga  Ga5       1.0  0.12550018999999998  0.8750000050000001  0.4405729876475289  1.0000
  Ga  Ga6       1.0  0.12550018999999998  0.041666664999999964  0.49125177428754535  1.0000
  Ni  Ni1       1.0  0.37550018999999996  0.687567105  0.4519716344415782  1.0000
  Ni  Ni2       1.0  0.37549864  0.854272935  0.5022501032484581  1.0000
  Ni  Ni3       1.0  0.37549699  0.38192728499999995  0.5302201088319346  1.0000
  Ni  Ni4       1.0  0.37550018999999996  0.22909956499999992  0.47985312749349607  1.0000
  Ni  Ni5       1.0  0.12550018999999998  0.37500000499999997  0.4405729876475289  1.0000
  Ni  Ni6       1.0  0.12550018999999998  0.5416666649999999  0.49125177428754535  1.0000
  Ni  Ni7       1.0  0.12550018999999998  0.45833333499999995  0.4659123809675371  1.0000
  Ni  Ni8       1.0  0.12522376  0.635635265  0.5168157192386832  1.0000
  Ni  Ni9       1.0  0.12449980999999999  0.125770695  0.5162782828477771  1.0000
  Ni  Ni10      1.0  0.12550018999999998  0.9583333350000001  0.4659123809675372  1.0000
  Ga  Ga7       1.0  0.87550019  0.20329784499999995  0.45483390451592304  1.0000
  Ga  Ga8       1.0  0.8754920499999999  0.37166248499999993  0.50503850189329  1.0000
  Ga  Ga9       1.0  0.87548956  0.8916670449999999  0.5276302605589186  1.0000
  Ga  Ga10      1.0  0.87550019  0.713368825  0.4769908574191512  1.0000
  Ga  Ga11      1.0  0.6255001899999999  0.8750000050000001  0.4405729876475289  1.0000
  Ga  Ga12      1.0  0.6255001899999999  0.041666664999999964  0.49125177428754535  1.0000
  Ni  Ni11      1.0  0.87550019  0.687567105  0.4519716344415782  1.0000
  Ni  Ni12      1.0  0.8754957299999999  0.851749585  0.5020941838736689  1.0000
  Ni  Ni13      1.0  0.8754979900000001  0.39038222499999997  0.5282871549633193  1.0000
  Ni  Ni14      1.0  0.87550019  0.22909956499999992  0.47985312749349607  1.0000
  Ni  Ni15      1.0  0.6255001899999999  0.37500000499999997  0.4405729876475289  1.0000
  Ni  Ni16      1.0  0.6255001899999999  0.5416666649999999  0.49125177428754535  1.0000
  Ni  Ni17      1.0  0.6255001899999999  0.45833333499999995  0.4659123809675371  1.0000
  Ni  Ni18      1.0  0.6257718699999999  0.635641225  0.5168164216466942  1.0000
  Ni  Ni19      1.0  0.6264934299999999  0.12576864499999998  0.5162785200245081  1.0000
  Ni  Ni20      1.0  0.6255001899999999  0.9583333350000001  0.4659123809675372  1.0000
