data_image0
_chemical_formula_structural       COAl24W6
_chemical_formula_sum              "C1 O1 Al24 W6"
_cell_length_a       5.279741289708035
_cell_length_b       9.302100095501828
_cell_length_c       100.98886977000001
_cell_angle_alpha    90.09761912953623
_cell_angle_beta     90.3439819794179
_cell_angle_gamma    73.51328769103796

_space_group_name_H-M_alt    "P 1"
_space_group_IT_number       1

loop_
  _space_group_symop_operation_xyz
  'x, y, z'

loop_
  _atom_site_type_symbol
  _atom_site_label
  _atom_site_symmetry_multiplicity
  _atom_site_fract_x
  _atom_site_fract_y
  _atom_site_fract_z
  _atom_site_occupancy
  C   C1        1.0  0.8917737800000001  0.720032885  0.5465346982546749  1.0000
  O   O1        1.0  0.94764781  0.684422605  0.5575283736919358  1.0000
  Al  Al1       1.0  0.8008832299999998  0.076439465  0.46489602670522373  1.0000
  Al  Al2       1.0  0.21901884999999993  0.076439465  0.4463937245394871  1.0000
  Al  Al3       1.0  0.3630122899999999  0.922675095  0.473762090974006  1.0000
  Al  Al4       1.0  0.20924791999999992  0.23020383500000002  0.47376209097400607  1.0000
  Al  Al5       1.0  0.6369893099999998  0.8399037149999999  0.44962854890264387  1.0000
  Al  Al6       1.0  0.4004535599999999  0.312975215  0.4496285489026439  1.0000
  Al  Al7       1.0  0.91179344  0.829439825  0.4800206668958755  1.0000
  Al  Al8       1.0  0.6647938  0.323439105  0.48002066689587564  1.0000
  Al  Al9       1.0  0.56434145  0.606381015  0.46854980232392013  1.0000
  Al  Al10      1.0  0.09428299999999999  0.5464979149999999  0.46854980232392013  1.0000
  Al  Al11      1.0  0.0014787399999998119  0.576670905  0.44247162630806414  1.0000
  Al  Al12      1.0  0.50171018  0.5762080249999999  0.4424716263080641  1.0000
  Al  Al13      1.0  0.62152672  0.07588537499999999  0.5157859112248405  1.0000
  Al  Al14      1.0  0.05235218999999991  0.076439465  0.4975361071951561  1.0000
  Al  Al15      1.0  0.1696899299999998  0.9241146250000001  0.526575381257075  1.0000
  Al  Al16      1.0  0.005146349999999744  0.22626540499999995  0.5269132094391538  1.0000
  Al  Al17      1.0  0.4703226400000001  0.8399037149999999  0.5007709346268561  1.0000
  Al  Al18      1.0  0.23378688999999994  0.312975215  0.5007709346268561  1.0000
  Al  Al19      1.0  0.7058531299999999  0.820221675  0.5298044367592375  1.0000
  Al  Al20      1.0  0.44115669999999985  0.328953145  0.5292092437317785  1.0000
  Al  Al21      1.0  0.41070248999999975  0.613769085  0.5193507911504491  1.0000
  Al  Al22      1.0  0.94336105  0.5423595949999999  0.5192314800583316  1.0000
  Al  Al23      1.0  0.8348120699999999  0.576670905  0.49361401203227623  1.0000
  Al  Al24      1.0  0.3350435099999999  0.5762080249999999  0.4936140120322762  1.0000
  W   W1        1.0  0.56547542  0.076439465  0.48945003282386507  1.0000
  W   W2        1.0  0.15183017999999993  0.802424005  0.45562735424135675  1.0000
  W   W3        1.0  0.87781472  0.350454925  0.4556273542413567  1.0000
  W   W4        1.0  0.41443233999999995  0.080532545  0.539356200733685  1.0000
  W   W5        1.0  0.9851635099999999  0.802424005  0.5067697399655688  1.0000
  W   W6        1.0  0.7111480499999998  0.350454925  0.5067697399655687  1.0000
