data_image0
_chemical_formula_structural       COV5Ir15V5Ir15
_chemical_formula_sum              "C1 O1 V10 Ir30"
_cell_length_a       5.44128388
_cell_length_b       8.603425225726971
_cell_length_c       109.98510716
_cell_angle_alpha    75.03678257569167
_cell_angle_beta     90.0
_cell_angle_gamma    71.56505117163442

_space_group_name_H-M_alt    "P 1"
_space_group_IT_number       1

loop_
  _space_group_symop_operation_xyz
  'x, y, z'

loop_
  _atom_site_type_symbol
  _atom_site_label
  _atom_site_symmetry_multiplicity
  _atom_site_fract_x
  _atom_site_fract_y
  _atom_site_fract_z
  _atom_site_occupancy
  C   C1        1.0  0.5219484799999998  0.98464391  0.5609971751894418  1.0000
  O   O1        1.0  0.5355906699999999  0.9569480599999999  0.5720601603157255  1.0000
  V   V1        1.0  0.8043471099999999  0.4203205199999999  0.4339990071780136  1.0000
  V   V2        1.0  0.60434711  0.8203205199999999  0.4461173494364957  1.0000
  V   V3        1.0  0.004347109999999977  0.020320519999999977  0.48247236894093826  1.0000
  V   V4        1.0  0.4043471099999999  0.22032052  0.4582356880594759  1.0000
  V   V5        1.0  0.20434711  0.6203205199999999  0.4703540266824561  1.0000
  Ir  Ir1       1.0  0.9043471099999999  0.22032052  0.4582356880594759  1.0000
  Ir  Ir2       1.0  0.7043471099999999  0.6203205199999999  0.4703540266824561  1.0000
  Ir  Ir3       1.0  0.10434711000000005  0.8203205199999999  0.4461173494364957  1.0000
  Ir  Ir4       1.0  0.50434711  0.020320519999999977  0.48247236894093826  1.0000
  Ir  Ir5       1.0  0.30434711  0.4203205199999999  0.4339990071780136  1.0000
  Ir  Ir6       1.0  0.50434711  0.52032052  0.4521765169302348  1.0000
  Ir  Ir7       1.0  0.30434711000000003  0.9203205199999999  0.46429485918871694  1.0000
  Ir  Ir8       1.0  0.7043471099999999  0.12032051999999999  0.44005817830725463  1.0000
  Ir  Ir9       1.0  0.10434711  0.32032051999999994  0.4764131978116971  1.0000
  Ir  Ir10      1.0  0.90434711  0.7203205199999999  0.42793983968427446  1.0000
  Ir  Ir11      1.0  0.004347110000000001  0.52032052  0.4521765169302348  1.0000
  Ir  Ir12      1.0  0.8043471099999999  0.9203205199999999  0.46429485918871694  1.0000
  Ir  Ir13      1.0  0.20434710999999997  0.12032051999999999  0.44005817830725463  1.0000
  Ir  Ir14      1.0  0.60434711  0.32032051999999994  0.4764131978116971  1.0000
  Ir  Ir15      1.0  0.40434711  0.7203205199999999  0.42793983968427446  1.0000
  V   V6        1.0  0.8043471099999999  0.4203205199999999  0.4945907075639185  1.0000
  V   V7        1.0  0.60434711  0.8203205199999999  0.5067090461868986  1.0000
  V   V8        1.0  0.99565289  0.03760196999999998  0.5410729630766159  1.0000
  V   V9        1.0  0.40144030999999997  0.22607160999999995  0.5190276537058229  1.0000
  V   V10       1.0  0.20337173999999994  0.6222127599999999  0.5296839424999144  1.0000
  Ir  Ir16      1.0  0.90711723  0.21488838999999996  0.5189472291316752  1.0000
  Ir  Ir17      1.0  0.7029743299999999  0.62313462  0.5300744135869019  1.0000
  Ir  Ir18      1.0  0.10434711000000005  0.8203205199999999  0.5067090461868986  1.0000
  Ir  Ir19      1.0  0.50681671  0.015356089999999977  0.5434692423837181  1.0000
  Ir  Ir20      1.0  0.30434711  0.4203205199999999  0.4945907075639185  1.0000
  Ir  Ir21      1.0  0.50434711  0.52032052  0.5127682173161396  1.0000
  Ir  Ir22      1.0  0.30716141  0.91382561  0.5258017063030974  1.0000
  Ir  Ir23      1.0  0.7043471099999999  0.12032051999999999  0.5006498786931595  1.0000
  Ir  Ir24      1.0  0.11415542000000004  0.3187803099999999  0.5363630503282512  1.0000
  Ir  Ir25      1.0  0.90434711  0.7203205199999999  0.48853153643467734  1.0000
  Ir  Ir26      1.0  0.004347110000000001  0.52032052  0.5127682173161396  1.0000
  Ir  Ir27      1.0  0.80813916  0.9137877799999999  0.5258060543634301  1.0000
  Ir  Ir28      1.0  0.20434710999999997  0.12032051999999999  0.5006498786931595  1.0000
  Ir  Ir29      1.0  0.5959812199999999  0.3188288399999999  0.536363497494991  1.0000
  Ir  Ir30      1.0  0.40434711  0.7203205199999999  0.48853153643467734  1.0000
