data_image0
_chemical_formula_structural       COIn6Pd10In6Pd10
_chemical_formula_sum              "C1 O1 In12 Pd20"
_cell_length_a       5.81755845
_cell_length_b       12.14329194915988
_cell_length_c       40.047973
_cell_angle_alpha    69.36801327568891
_cell_angle_beta     90.0
_cell_angle_gamma    90.0

_space_group_name_H-M_alt    "P 1"
_space_group_IT_number       1

loop_
  _space_group_symop_operation_xyz
  'x, y, z'

loop_
  _atom_site_type_symbol
  _atom_site_label
  _atom_site_symmetry_multiplicity
  _atom_site_fract_x
  _atom_site_fract_y
  _atom_site_fract_z
  _atom_site_occupancy
  C   C1        1.0  0.8318137950000001  0.37957068499999996  0.5986036157225668  1.0000
  O   O1        1.0  0.832721315  0.37484541499999996  0.628136717181951  1.0000
  In  In1       1.0  0.35425450500000005  0.3743454949999999  0.5467090015066983  1.0000
  In  In2       1.0  0.843169745  0.14294199499999996  0.5693145328018809  1.0000
  In  In3       1.0  0.530532425  0.9904211349999998  0.5381818523139589  1.0000
  In  In4       1.0  0.031207924999999973  0.5095788649999999  0.47870666573839754  1.0000
  In  In5       1.0  0.720865815  0.6428456949999999  0.5198843884059853  1.0000
  In  In6       1.0  0.21353322499999997  0.8687888949999998  0.4937491405784338  1.0000
  Pd  Pd1       1.0  0.7378399050000001  0.8963284749999998  0.4908067229019152  1.0000
  Pd  Pd2       1.0  0.324119105  0.13550463499999996  0.5667471589124579  1.0000
  Pd  Pd3       1.0  0.09014743499999998  0.26864206499999993  0.5038509411695434  1.0000
  Pd  Pd4       1.0  0.8484419150000001  0.39192139499999995  0.5490401948881508  1.0000
  Pd  Pd5       1.0  0.46336990499999997  0.7596334549999998  0.5536422931341697  1.0000
  Pd  Pd6       1.0  0.9689077150000001  0.760559365  0.5544681209155939  1.0000
  Pd  Pd7       1.0  0.5950429150000001  0.25342014499999993  0.5055028659777223  1.0000
  Pd  Pd8       1.0  0.531207925  0.5095788649999999  0.47870666573839754  1.0000
  Pd  Pd9       1.0  0.029482944999999972  0.011169954999999973  0.5307261050810285  1.0000
  Pd  Pd10      1.0  0.23133652499999996  0.6167723049999999  0.5195783162976796  1.0000
  In  In7       1.0  0.34888262499999995  0.36878889499999995  0.4403274491182595  1.0000
  In  In8       1.0  0.8488826250000001  0.15036883499999995  0.46366419089836125  1.0000
  In  In9       1.0  0.531207925  0.009578864999999973  0.4252849742782233  1.0000
  In  In10      1.0  0.031207924999999973  0.5095788649999999  0.37186328281804903  1.0000
  In  In11      1.0  0.713533225  0.650368835  0.4102424994381871  1.0000
  In  In12      1.0  0.21353322499999997  0.8687888949999998  0.38690575765808527  1.0000
  Pd  Pd11      1.0  0.7378399050000001  0.8963284749999998  0.38396333998156656  1.0000
  Pd  Pd12      1.0  0.324575945  0.12282925499999996  0.46660660857488007  1.0000
  Pd  Pd13      1.0  0.09189879499999998  0.26621457499999995  0.3978651495005628  1.0000
  Pd  Pd14      1.0  0.824575945  0.39632847499999996  0.4373850314417409  1.0000
  Pd  Pd15      1.0  0.47051705499999996  0.7662145749999998  0.451286840960737  1.0000
  Pd  Pd16      1.0  0.9705170550000002  0.7529431549999999  0.45270479905588384  1.0000
  Pd  Pd17      1.0  0.5918987949999999  0.252943155  0.39928310759570956  1.0000
  Pd  Pd18      1.0  0.531207925  0.5095788649999999  0.37186328281804903  1.0000
  Pd  Pd19      1.0  0.031207924999999973  0.009578864999999973  0.4252849742782233  1.0000
  Pd  Pd20      1.0  0.237839905  0.622829255  0.4131849171147057  1.0000
