data_image0
_chemical_formula_structural       COSb3Rh9Sb3Rh9Sb3Rh9Sb3Rh9
_chemical_formula_sum              "C1 O1 Sb12 Rh36"
_cell_length_a       8.893297338887868
_cell_length_b       7.95440696
_cell_length_c       103.74769061
_cell_angle_alpha    90.0
_cell_angle_beta     108.43494882292201
_cell_angle_gamma    90.0

_space_group_name_H-M_alt    "P 1"
_space_group_IT_number       1

loop_
  _space_group_symop_operation_xyz
  'x, y, z'

loop_
  _atom_site_type_symbol
  _atom_site_label
  _atom_site_symmetry_multiplicity
  _atom_site_fract_x
  _atom_site_fract_y
  _atom_site_fract_z
  _atom_site_occupancy
  C   C1        1.0  0.3267175399999999  0.10958276500000001  0.5463878643404553  1.0000
  O   O1        1.0  0.28799421  0.10960783500000001  0.5567733089372401  1.0000
  Sb  Sb1       1.0  0.91113355  0.10960738500000002  0.5151975381436383  1.0000
  Sb  Sb2       1.0  0.61204041  0.10959483500000002  0.5339674358682607  1.0000
  Sb  Sb3       1.0  0.25152004  0.109605955  0.4974410565208073  1.0000
  Rh  Rh1       1.0  0.92467039  0.10961786500000001  0.5411264741281471  1.0000
  Rh  Rh2       1.0  0.58485338  0.109605955  0.5064767846392921  1.0000
  Rh  Rh3       1.0  0.22372721999999998  0.10957775500000001  0.5242008189650456  1.0000
  Rh  Rh4       1.0  0.07532960999999996  0.370958755  0.5322900033159069  1.0000
  Rh  Rh5       1.0  0.75152004  0.359605955  0.4974410565208073  1.0000
  Rh  Rh6       1.0  0.41662818999999995  0.357670095  0.5151873534331471  1.0000
  Rh  Rh7       1.0  0.75115552  0.363301865  0.5245723998813141  1.0000
  Rh  Rh8       1.0  0.41053505999999995  0.328756185  0.5407079511623417  1.0000
  Rh  Rh9       1.0  0.08485337999999996  0.359605955  0.5064767846392922  1.0000
  Sb  Sb4       1.0  0.91818671  0.109605955  0.4612981472997296  1.0000
  Sb  Sb5       1.0  0.58485338  0.109605955  0.4793696035366994  1.0000
  Sb  Sb6       1.0  0.25152004  0.109605955  0.44322669106275997  1.0000
  Rh  Rh10      1.0  0.91818671  0.109605955  0.4884053284023224  1.0000
  Rh  Rh11      1.0  0.58485338  0.109605955  0.4522624191812448  1.0000
  Rh  Rh12      1.0  0.25152004  0.109605955  0.47033387541821453  1.0000
  Rh  Rh13      1.0  0.08485337999999996  0.359605955  0.4793696035366994  1.0000
  Rh  Rh14      1.0  0.75152004  0.359605955  0.44322669106275997  1.0000
  Rh  Rh15      1.0  0.4181867099999999  0.359605955  0.4612981472997297  1.0000
  Rh  Rh16      1.0  0.75152004  0.359605955  0.4703338754182145  1.0000
  Rh  Rh17      1.0  0.4181867099999999  0.359605955  0.4884053284023224  1.0000
  Rh  Rh18      1.0  0.08485337999999996  0.359605955  0.4522624191812448  1.0000
  Sb  Sb7       1.0  0.91961175  0.609598495  0.5150567380179233  1.0000
  Sb  Sb8       1.0  0.5847126399999999  0.6095581249999998  0.5335551811672643  1.0000
  Sb  Sb9       1.0  0.25152004  0.609605955  0.4974410565208073  1.0000
  Rh  Rh19      1.0  0.90826126  0.609594785  0.5412527111913041  1.0000
  Rh  Rh20      1.0  0.58485338  0.609605955  0.5064767846392921  1.0000
  Rh  Rh21      1.0  0.2578292  0.609601055  0.5250046206484221  1.0000
  Rh  Rh22      1.0  0.07533574999999997  0.8482349450000001  0.5322928951101027  1.0000
  Rh  Rh23      1.0  0.75152004  0.859605955  0.4974410565208073  1.0000
  Rh  Rh24      1.0  0.41661870999999995  0.861561135  0.5151878446152883  1.0000
  Rh  Rh25      1.0  0.75112039  0.855914845  0.5245725007200319  1.0000
  Rh  Rh26      1.0  0.41050892999999994  0.8904222449999998  0.5407066402590112  1.0000
  Rh  Rh27      1.0  0.08485337999999996  0.859605955  0.5064767846392922  1.0000
  Sb  Sb10      1.0  0.91818671  0.609605955  0.4612981472997296  1.0000
  Sb  Sb11      1.0  0.58485338  0.609605955  0.4793696035366994  1.0000
  Sb  Sb12      1.0  0.25152004  0.609605955  0.44322669106275997  1.0000
  Rh  Rh28      1.0  0.91818671  0.609605955  0.4884053284023224  1.0000
  Rh  Rh29      1.0  0.58485338  0.609605955  0.4522624191812448  1.0000
  Rh  Rh30      1.0  0.25152004  0.609605955  0.47033387541821453  1.0000
  Rh  Rh31      1.0  0.08485337999999996  0.859605955  0.4793696035366994  1.0000
  Rh  Rh32      1.0  0.75152004  0.859605955  0.44322669106275997  1.0000
  Rh  Rh33      1.0  0.4181867099999999  0.859605955  0.4612981472997297  1.0000
  Rh  Rh34      1.0  0.75152004  0.859605955  0.4703338754182145  1.0000
  Rh  Rh35      1.0  0.4181867099999999  0.859605955  0.4884053284023224  1.0000
  Rh  Rh36      1.0  0.08485337999999996  0.859605955  0.4522624191812448  1.0000
