data_image0
_chemical_formula_structural       CORh12Sb24
_chemical_formula_sum              "C1 O1 Rh12 Sb24"
_cell_length_a       9.55116279061789
_cell_length_b       9.789186268458698
_cell_length_c       106.26348712000001
_cell_angle_alpha    84.22216524039888
_cell_angle_beta     87.89533131193541
_cell_angle_gamma    78.52868932008792

_space_group_name_H-M_alt    "P 1"
_space_group_IT_number       1

loop_
  _space_group_symop_operation_xyz
  'x, y, z'

loop_
  _atom_site_type_symbol
  _atom_site_label
  _atom_site_symmetry_multiplicity
  _atom_site_fract_x
  _atom_site_fract_y
  _atom_site_fract_z
  _atom_site_occupancy
  C   C1        1.0  0.5428085449999999  0.22820368999999996  0.5406798867811607  1.0000
  O   O1        1.0  0.5516479549999999  0.22239657  0.551683187034359  1.0000
  Rh  Rh1       1.0  0.9544772650000001  0.62947567  0.49436616619035273  1.0000
  Rh  Rh2       1.0  0.371143935  0.04614233999999999  0.46592782312766007  1.0000
  Rh  Rh3       1.0  0.525018825  0.24060531999999998  0.5228712392509367  1.0000
  Rh  Rh4       1.0  0.04313384499999995  0.79272269  0.4520334663620546  1.0000
  Rh  Rh5       1.0  0.20861717499999996  0.9542961200000001  0.5094036862414054  1.0000
  Rh  Rh6       1.0  0.626467185  0.37605602999999993  0.48047180601214623  1.0000
  Rh  Rh7       1.0  0.5426953849999999  0.79228423  0.4520633914592986  1.0000
  Rh  Rh8       1.0  0.706364915  0.94963731  0.5081074780436418  1.0000
  Rh  Rh9       1.0  0.12602872499999995  0.37561757  0.4805017311093903  1.0000
  Rh  Rh10      1.0  0.45403880499999993  0.6290372099999999  0.4943960912875967  1.0000
  Rh  Rh11      1.0  0.8707054750000001  0.045703879999999995  0.465957751637505  1.0000
  Rh  Rh12      1.0  0.030192644999999952  0.21235091  0.520868765997246  1.0000
  Sb  Sb1       1.0  0.14281878499999992  0.9297591400000002  0.4688752216808358  1.0000
  Sb  Sb2       1.0  0.2995529049999999  0.11935352  0.5245021724074388  1.0000
  Sb  Sb3       1.0  0.726152115  0.51309247  0.49731356133092747  1.0000
  Sb  Sb4       1.0  0.9698073550000001  0.60745425  0.4696744016213178  1.0000
  Sb  Sb5       1.0  0.165908495  0.7446248599999999  0.5271166444425475  1.0000
  Sb  Sb6       1.0  0.5531406949999998  0.19078759  0.4981127412714095  1.0000
  Sb  Sb7       1.0  0.354353875  0.49200077  0.4775543359688156  1.0000
  Sb  Sb8       1.0  0.7710205450000001  0.9086674400000001  0.44911599290612286  1.0000
  Sb  Sb9       1.0  0.9319373749999997  0.0662986  0.5061397689552636  1.0000
  Sb  Sb10      1.0  0.527365295  0.81430565  0.4767551560283335  1.0000
  Sb  Sb11      1.0  0.9440319649999998  0.23097232  0.4483168129656409  1.0000
  Sb  Sb12      1.0  0.11141875499999997  0.40336934  0.5055136931951558  1.0000
  Sb  Sb13      1.0  0.175797305  0.7649738599999999  0.4933620800417604  1.0000
  Sb  Sb14      1.0  0.592463975  0.18164052999999997  0.4649237403916686  1.0000
  Sb  Sb15      1.0  0.767110555  0.35225756  0.5215306092273291  1.0000
  Sb  Sb16      1.0  0.8823513449999999  0.7127905899999999  0.5174007274011996  1.0000
  Sb  Sb17      1.0  0.2907328149999999  0.12614351  0.4892849024238458  1.0000
  Sb  Sb18      1.0  0.7073994749999999  0.5428101700000001  0.4608465593611531  1.0000
  Sb  Sb19      1.0  0.321375355  0.6567860499999999  0.4530674776078908  1.0000
  Sb  Sb20      1.0  0.481762595  0.83075013  0.508753759813646  1.0000
  Sb  Sb21      1.0  0.9047086849999999  0.24011938  0.48150581725798264  1.0000
  Sb  Sb22      1.0  0.35902410500000004  0.49515413999999996  0.5151758174086034  1.0000
  Sb  Sb23      1.0  0.7897731749999999  0.8789497300000001  0.4855829948758973  1.0000
  Sb  Sb24      1.0  0.20643984499999998  0.2956164  0.4571446552258055  1.0000
