data_image0
_chemical_formula_structural       COSi18W30
_chemical_formula_sum              "C1 O1 Si18 W30"
_cell_length_a       7.285191265710373
_cell_length_b       10.144384070911949
_cell_length_c       109.37139714
_cell_angle_alpha    87.38985041806727
_cell_angle_beta     85.6655937269586
_cell_angle_gamma    75.35267474517845

_space_group_name_H-M_alt    "P 1"
_space_group_IT_number       1

loop_
  _space_group_symop_operation_xyz
  'x, y, z'

loop_
  _atom_site_type_symbol
  _atom_site_label
  _atom_site_symmetry_multiplicity
  _atom_site_fract_x
  _atom_site_fract_y
  _atom_site_fract_z
  _atom_site_occupancy
  C   C1        1.0  0.604836755  0.73230371  0.5445065802217953  1.0000
  O   O1        1.0  0.5437546849999999  0.7847326800000001  0.5538743331887485  1.0000
  Si  Si1       1.0  0.09920260499999992  0.5863628900000001  0.4843088537697247  1.0000
  Si  Si2       1.0  0.16060541499999995  0.9177088500000001  0.5168026855317193  1.0000
  Si  Si3       1.0  0.015869274999999933  0.2530295600000001  0.45431061185068883  1.0000
  Si  Si4       1.0  0.21152248499999995  0.08677815000000007  0.5304373262035683  1.0000
  Si  Si5       1.0  0.05753594499999995  0.4196962300000001  0.4693097346101014  1.0000
  Si  Si6       1.0  0.14086927499999993  0.7530295600000001  0.4993079765291373  1.0000
  Si  Si7       1.0  0.9841307250000001  0.2802884400000001  0.5017611320573094  1.0000
  Si  Si8       1.0  0.08500826499999996  0.5810868600000001  0.5305461838281984  1.0000
  Si  Si9       1.0  0.9007973949999999  0.9469551  0.47176289013827355  1.0000
  Si  Si10      1.0  0.5787584450000001  0.6681395300000001  0.47694938718520835  1.0000
  Si  Si11      1.0  0.6666686250000001  0.9925636800000001  0.506828479682365  1.0000
  Si  Si12      1.0  0.49542511499999997  0.3348061900000001  0.4469511452661724  1.0000
  Si  Si13      1.0  0.665569975  0.66149338  0.5056604380900418  1.0000
  Si  Si14      1.0  0.494646765  0.0045862600000000624  0.4466709556757926  1.0000
  Si  Si15      1.0  0.577980105  0.3379195900000001  0.47666920119461775  1.0000
  Si  Si16      1.0  0.17260782499999996  0.7257706800000001  0.4518574563225167  1.0000
  Si  Si17      1.0  0.255941155  0.05910402000000007  0.48185569824155255  1.0000
  Si  Si18      1.0  0.34669342499999994  0.4044439200000001  0.5147377636662035  1.0000
  W   W1        1.0  0.04727063499999991  0.3356115400000001  0.5240435030650514  1.0000
  W   W2        1.0  0.8982867449999999  0.67731205  0.4655921891323566  1.0000
  W   W3        1.0  0.981620075  0.010645380000000062  0.4955904310513925  1.0000
  W   W4        1.0  0.17511847499999997  0.9954137399999999  0.4580281573284336  1.0000
  W   W5        1.0  0.2584518049999999  0.3287470700000001  0.4880263992474696  1.0000
  W   W6        1.0  0.34289348500000005  0.6633307800000001  0.5173055868787331  1.0000
  W   W7        1.0  0.515869275  0.7530295600000001  0.4543106118506888  1.0000
  W   W8        1.0  0.5992026050000001  0.08636289000000007  0.4843088537697247  1.0000
  W   W9        1.0  0.6868747749999999  0.4218970100000001  0.515446180576966  1.0000
  W   W10       1.0  0.5575359450000001  0.91969623  0.46930973461010134  1.0000
  W   W11       1.0  0.640869275  0.2530295600000001  0.49930797652913733  1.0000
  W   W12       1.0  0.7218232550000001  0.63406473  0.5287804944377944  1.0000
  W   W13       1.0  0.810515435  0.4783892300000001  0.4879939975451119  1.0000
  W   W14       1.0  0.9003476749999998  0.7914287500000001  0.5168761068317178  1.0000
  W   W15       1.0  0.727182105  0.14505590000000007  0.4579957556260759  1.0000
  W   W16       1.0  0.346223115  0.52766989  0.4656245908347142  1.0000
  W   W17       1.0  0.429556445  0.8610032200000001  0.49562283275375013  1.0000
  W   W18       1.0  0.505685505  0.17221752000000004  0.5228925424723602  1.0000
  W   W19       1.0  0.42512030500000014  0.5454144700000001  0.4940259158789929  1.0000
  W   W20       1.0  0.49334217500000005  0.87449845  0.5228767933947228  1.0000
  W   W21       1.0  0.3417869749999999  0.21208114000000006  0.46402767036016784  1.0000
  W   W22       1.0  0.025018674999999907  0.5324054100000001  0.5071755569553918  1.0000
  W   W23       1.0  0.8480178150000001  0.8783877700000001  0.44749643413071327  1.0000
  W   W24       1.0  0.931351145  0.2117211000000001  0.4774946796495384  1.0000
  W   W25       1.0  0.2253874049999999  0.7943380200000001  0.4761239087302876  1.0000
  W   W26       1.0  0.31010368499999996  0.12425496000000005  0.5056183781533296  1.0000
  W   W27       1.0  0.14205406499999992  0.46100469000000005  0.4461256668112517  1.0000
  W   W28       1.0  0.7316182450000002  0.4606446500000001  0.45959267250083313  1.0000
  W   W29       1.0  0.8149515749999999  0.7939779800000001  0.48959091801965826  1.0000
  W   W30       1.0  0.8822990350000001  0.12799042000000008  0.5185944265963774  1.0000
