data_image0
_chemical_formula_structural       COCo16Ga8Ni8
_chemical_formula_sum              "C1 O1 Co16 Ga8 Ni8"
_cell_length_a       6.230090005686283
_cell_length_b       5.142113054466202
_cell_length_c       104.85561215999999
_cell_angle_alpha    92.16911066529447
_cell_angle_beta     91.7901768091152
_cell_angle_gamma    86.96541412802519

_space_group_name_H-M_alt    "P 1"
_space_group_IT_number       1

loop_
  _space_group_symop_operation_xyz
  'x, y, z'

loop_
  _atom_site_type_symbol
  _atom_site_label
  _atom_site_symmetry_multiplicity
  _atom_site_fract_x
  _atom_site_fract_y
  _atom_site_fract_z
  _atom_site_occupancy
  C   C1        1.0  0.409775005  0.34916096999999985  0.5517854988993096  1.0000
  O   O1        1.0  0.36146568500000004  0.34339313999999993  0.5624622568990958  1.0000
  Co  Co1       1.0  0.15649132500000004  0.11837215999999988  0.44446306121714646  1.0000
  Co  Co2       1.0  0.823157985  0.6183721599999998  0.45831370077378364  1.0000
  Co  Co3       1.0  0.489824655  0.11837215999999988  0.4721643403304208  1.0000
  Co  Co4       1.0  0.15649132500000004  0.61837216  0.4860149765629048  1.0000
  Co  Co5       1.0  0.489824655  0.8683721600000001  0.4513883826575416  1.0000
  Co  Co6       1.0  0.15649132500000004  0.36837215999999984  0.46523901889002567  1.0000
  Co  Co7       1.0  0.823157985  0.8683721600000001  0.47908965844666285  1.0000
  Co  Co8       1.0  0.823157985  0.36837215999999984  0.4375377431009044  1.0000
  Co  Co9       1.0  0.823157985  0.11837215999999985  0.49986561611954206  1.0000
  Co  Co10      1.0  0.493451085  0.6231573399999998  0.5138899659513971  1.0000
  Co  Co11      1.0  0.170006375  0.12291375999999987  0.5276727096783593  1.0000
  Co  Co12      1.0  0.829379875  0.6313415499999999  0.5396510797642748  1.0000
  Co  Co13      1.0  0.15649132500000004  0.8683721600000001  0.506790934235784  1.0000
  Co  Co14      1.0  0.827801725  0.3792851799999998  0.5206754236447386  1.0000
  Co  Co15      1.0  0.511212425  0.87673758  0.5333946411121964  1.0000
  Co  Co16      1.0  0.489824655  0.36837215999999984  0.4929402980033  1.0000
  Ga  Ga1       1.0  0.15649132500000004  0.11837215999999988  0.4860149765629048  1.0000
  Ga  Ga2       1.0  0.15649132500000004  0.61837216  0.44446306121714646  1.0000
  Ga  Ga3       1.0  0.823157985  0.11837215999999985  0.4583137007737836  1.0000
  Ga  Ga4       1.0  0.489824655  0.61837216  0.4721643403304208  1.0000
  Ga  Ga5       1.0  0.843508675  0.12449885999999988  0.541181669497185  1.0000
  Ga  Ga6       1.0  0.823157985  0.6183721599999998  0.4998656161195421  1.0000
  Ga  Ga7       1.0  0.49500540499999995  0.13136006999999986  0.5137220995375535  1.0000
  Ga  Ga8       1.0  0.171949885  0.6301810199999999  0.5281631951354072  1.0000
  Ni  Ni1       1.0  0.489824655  0.36837215999999984  0.4513883826575416  1.0000
  Ni  Ni2       1.0  0.15649132500000004  0.8683721600000001  0.46523901889002567  1.0000
  Ni  Ni3       1.0  0.823157985  0.36837215999999984  0.47908965844666285  1.0000
  Ni  Ni4       1.0  0.823157985  0.8683721600000001  0.4375377431009044  1.0000
  Ni  Ni5       1.0  0.15649132500000004  0.36837215999999984  0.506790934235784  1.0000
  Ni  Ni6       1.0  0.8356197249999999  0.88162784  0.5202341688969924  1.0000
  Ni  Ni7       1.0  0.499385005  0.3815758599999999  0.5361842538800831  1.0000
  Ni  Ni8       1.0  0.489824655  0.8683721600000001  0.4929402980033  1.0000
