data_image0
_chemical_formula_structural       COGa8Pt24
_chemical_formula_sum              "C1 O1 Ga8 Pt24"
_cell_length_a       7.8862297
_cell_length_b       5.618176075026962
_cell_length_c       103.70905642
_cell_angle_alpha    89.15117969084636
_cell_angle_beta     90.0
_cell_angle_gamma    90.0

_space_group_name_H-M_alt    "P 1"
_space_group_IT_number       1

loop_
  _space_group_symop_operation_xyz
  'x, y, z'

loop_
  _atom_site_type_symbol
  _atom_site_label
  _atom_site_symmetry_multiplicity
  _atom_site_fract_x
  _atom_site_fract_y
  _atom_site_fract_z
  _atom_site_occupancy
  C   C1        1.0  0.39099930999999993  0.736283385  0.5495935670295383  1.0000
  O   O1        1.0  0.38841691999999994  0.6865906950000001  0.560831311789972  1.0000
  Ga  Ga1       1.0  0.8935098499999999  0.015691495000000028  0.46795502165463654  1.0000
  Ga  Ga2       1.0  0.3935098499999999  0.515691495  0.4408687829335858  1.0000
  Ga  Ga3       1.0  0.3935098499999999  0.515691495  0.49504125712533903  1.0000
  Ga  Ga4       1.0  0.89338654  0.04832148500000002  0.5241418212505607  1.0000
  Ga  Ga5       1.0  0.8935098499999999  0.515691495  0.49504125712533903  1.0000
  Ga  Ga6       1.0  0.3935098499999999  0.015691495000000028  0.46795502165463654  1.0000
  Ga  Ga7       1.0  0.39508616999999996  0.055070685000000036  0.5212731645254374  1.0000
  Ga  Ga8       1.0  0.8935098499999999  0.515691495  0.4408687829335858  1.0000
  Pt  Pt1       1.0  0.68051522  0.7667060950000001  0.5090167768324169  1.0000
  Pt  Pt2       1.0  0.17489283999999997  0.26569149500000006  0.48149813776481354  1.0000
  Pt  Pt3       1.0  0.13597921999999998  0.27674119500000005  0.5339281846956232  1.0000
  Pt  Pt4       1.0  0.6748928399999999  0.7656914950000001  0.45441190229411116  1.0000
  Pt  Pt5       1.0  0.3935098499999999  0.547074485  0.4662549269310787  1.0000
  Pt  Pt6       1.0  0.8935098499999999  0.04707448500000003  0.43916868821002786  1.0000
  Pt  Pt7       1.0  0.8935098499999999  0.04707448500000003  0.49334116240178105  1.0000
  Pt  Pt8       1.0  0.3941918299999999  0.514151525  0.5193669619603432  1.0000
  Pt  Pt9       1.0  0.3935098499999999  0.9843085050000001  0.49674135184889684  1.0000
  Pt  Pt10      1.0  0.8935098499999999  0.48430850500000006  0.469655113127846  1.0000
  Pt  Pt11      1.0  0.89300653  0.612865265  0.5296634708350149  1.0000
  Pt  Pt12      1.0  0.3935098499999999  0.9843085050000001  0.4425688776571437  1.0000
  Pt  Pt13      1.0  0.61212686  0.26569149500000006  0.48149813776481354  1.0000
  Pt  Pt14      1.0  0.11212685999999997  0.7656914950000001  0.45441190229411116  1.0000
  Pt  Pt15      1.0  0.10649014999999998  0.766882495  0.5089571199381312  1.0000
  Pt  Pt16      1.0  0.6513381  0.2765101850000001  0.5340971573068435  1.0000
  Pt  Pt17      1.0  0.6435098499999999  0.26569149500000006  0.45441190229411116  1.0000
  Pt  Pt18      1.0  0.20731991  0.7814915650000002  0.5360331688169903  1.0000
  Pt  Pt19      1.0  0.14350985000000002  0.7656914950000001  0.48149813776481354  1.0000
  Pt  Pt20      1.0  0.6562070499999999  0.26882316500000003  0.5080215104054261  1.0000
  Pt  Pt21      1.0  0.6435098499999999  0.7656914950000001  0.48149813776481354  1.0000
  Pt  Pt22      1.0  0.14350985000000002  0.26569149500000006  0.45441190229411116  1.0000
  Pt  Pt23      1.0  0.13242246  0.2689473050000001  0.5079699273765323  1.0000
  Pt  Pt24      1.0  0.57799057  0.7809154450000001  0.5362931999382586  1.0000
