data_image0
_chemical_formula_structural       COIn9Pt13
_chemical_formula_sum              "C1 O1 In9 Pt13"
_cell_length_a       7.284393070158481
_cell_length_b       7.284393075790674
_cell_length_c       38.383851379999996
_cell_angle_alpha    90.50987381731653
_cell_angle_beta     90.50987381771077
_cell_angle_gamma    76.68995099872245

_space_group_name_H-M_alt    "P 1"
_space_group_IT_number       1

loop_
  _space_group_symop_operation_xyz
  'x, y, z'

loop_
  _atom_site_type_symbol
  _atom_site_label
  _atom_site_symmetry_multiplicity
  _atom_site_fract_x
  _atom_site_fract_y
  _atom_site_fract_z
  _atom_site_occupancy
  C   C1        1.0  0.7979807999999999  0.79798072  0.5985710145540781  1.0000
  O   O1        1.0  0.80947737  0.80947683  0.6289004529493385  1.0000
  In  In1       1.0  0.53873095  0.5387306399999999  0.5464713799261098  1.0000
  In  In2       1.0  0.97457846  0.54696903  0.371099547050661  1.0000
  In  In3       1.0  0.025421540000000065  0.025421529999999967  0.5341826961382627  1.0000
  In  In4       1.0  0.2668899100000001  0.26688984  0.4914991570041951  1.0000
  In  In5       1.0  0.39457944000000006  0.39457945  0.41010608849380414  1.0000
  In  In6       1.0  0.76367695  0.76367696  0.4782115591757056  1.0000
  In  In7       1.0  0.54696902  0.9745784700000001  0.37109954705066106  1.0000
  In  In8       1.0  0.2421898600000001  0.8145804299999999  0.44911262170011135  1.0000
  In  In9       1.0  0.8145804200000001  0.24218987  0.44911262170011135  1.0000
  Pt  Pt1       1.0  0.03707865000000004  0.5171096799999999  0.44298707626578143  1.0000
  Pt  Pt2       1.0  0.5171096700000001  0.037078659999999965  0.44298707626578143  1.0000
  Pt  Pt3       1.0  0.7871847200000001  0.78718532  0.5497846059949973  1.0000
  Pt  Pt4       1.0  0.64254535  0.64254536  0.41157997967838233  1.0000
  Pt  Pt5       1.0  0.7520802299999999  0.27204922  0.3772250924849909  1.0000
  Pt  Pt6       1.0  0.39576078  0.8972473499999999  0.51289512907007  1.0000
  Pt  Pt7       1.0  0.14661353000000005  0.14661354  0.40863219730922584  1.0000
  Pt  Pt8       1.0  0.50609413  0.50609419  0.4756566244594213  1.0000
  Pt  Pt9       1.0  0.89724749  0.3957606999999999  0.5128950961227263  1.0000
  Pt  Pt10      1.0  0.89457944  0.89457945  0.4101060884938041  1.0000
  Pt  Pt11      1.0  0.27204921000000004  0.75208024  0.3772250924849909  1.0000
  Pt  Pt12      1.0  0.6501634500000001  0.14698425999999995  0.5122555058127186  1.0000
  Pt  Pt13      1.0  0.14698405000000012  0.65016361  0.5122554646285388  1.0000
