data_image0
_chemical_formula_structural       COGa4Pt12
_chemical_formula_sum              "C1 O1 Ga4 Pt12"
_cell_length_a       5.576406496044527
_cell_length_b       5.618176070805741
_cell_length_c       106.72643638
_cell_angle_alpha    86.32925084631837
_cell_angle_beta     85.64602089991311
_cell_angle_gamma    60.245635349902294

_space_group_name_H-M_alt    "P 1"
_space_group_IT_number       1

loop_
  _space_group_symop_operation_xyz
  'x, y, z'

loop_
  _atom_site_type_symbol
  _atom_site_label
  _atom_site_symmetry_multiplicity
  _atom_site_fract_x
  _atom_site_fract_y
  _atom_site_fract_z
  _atom_site_occupancy
  C   C1        1.0  0.48900926999999994  0.44007039500000006  0.5373989327262111  1.0000
  O   O1        1.0  0.49085066000000016  0.402434815  0.5482723374093504  1.0000
  Ga  Ga1       1.0  0.4075706099999999  0.8524605350000002  0.4745849357459741  1.0000
  Ga  Ga2       1.0  0.9991265600000001  0.508497575  0.5171343545094276  1.0000
  Ga  Ga3       1.0  0.09507061000000003  0.5399605350000001  0.45307759087804267  1.0000
  Ga  Ga4       1.0  0.7257324300000001  0.15049380500000004  0.49588837721985685  1.0000
  Pt  Pt1       1.0  0.07545624000000004  0.02034616500000005  0.4517276625906497  1.0000
  Pt  Pt2       1.0  0.71194902  0.623223885  0.49553971735073377  1.0000
  Pt  Pt3       1.0  0.19214672000000002  0.6722966950000001  0.497369496869769  1.0000
  Pt  Pt4       1.0  0.551919  0.05957490500000005  0.4544275191654357  1.0000
  Pt  Pt5       1.0  0.95072222  0.332846165  0.47323500745858116  1.0000
  Pt  Pt6       1.0  0.54827501  0.979653835  0.5160125073128901  1.0000
  Pt  Pt7       1.0  0.42718498000000005  0.372074905  0.4759348640333671  1.0000
  Pt  Pt8       1.0  0.0008734400000000276  0.052447405000000044  0.5169136994746081  1.0000
  Pt  Pt9       1.0  0.23528696000000002  0.15311244500000004  0.49515973246395756  1.0000
  Pt  Pt10      1.0  0.59507061  0.5399605350000001  0.4530775908780427  1.0000
  Pt  Pt11      1.0  0.9075706099999998  0.8524605350000002  0.4745849357459741  1.0000
  Pt  Pt12      1.0  0.4593158000000001  0.5185289650000001  0.5201540270229873  1.0000
