data_image0
_chemical_formula_structural       COV24Si20
_chemical_formula_sum              "C1 O1 V24 Si20"
_cell_length_a       4.85755295
_cell_length_b       15.98669021
_cell_length_c       100.02951801
_cell_angle_alpha    90.0
_cell_angle_beta     90.0
_cell_angle_gamma    90.0

_space_group_name_H-M_alt    "P 1"
_space_group_IT_number       1

loop_
  _space_group_symop_operation_xyz
  'x, y, z'

loop_
  _atom_site_type_symbol
  _atom_site_label
  _atom_site_symmetry_multiplicity
  _atom_site_fract_x
  _atom_site_fract_y
  _atom_site_fract_z
  _atom_site_occupancy
  C   C1        1.0  0.76079435  0.529325805  0.532129912339073  1.0000
  O   O1        1.0  0.7700381199999999  0.526108935  0.5441499400382029  1.0000
  V   V1        1.0  0.24299997999999998  0.7288118450000001  0.5124486581296757  1.0000
  V   V2        1.0  0.75265135  0.8421322250000001  0.4748463958949934  1.0000
  V   V3        1.0  0.25265134999999994  0.8421322250000001  0.4748463958949934  1.0000
  V   V4        1.0  0.7613899000000001  0.729298565  0.5121680910780682  1.0000
  V   V5        1.0  0.001413299999999971  0.8936466750000001  0.5025139072606223  1.0000
  V   V6        1.0  0.5026513499999999  0.6753847550000001  0.4833742947421682  1.0000
  V   V7        1.0  0.002651349999999971  0.6753847550000001  0.466318494045753  1.0000
  V   V8        1.0  0.49998367  0.888326225  0.5183280265852093  1.0000
  V   V9        1.0  0.002651349999999971  0.597101745  0.4938427318281897  1.0000
  V   V10       1.0  0.5026513499999999  0.966742065  0.4933758805988088  1.0000
  V   V11       1.0  0.002651349999999971  0.966742065  0.456316911191178  1.0000
  V   V12       1.0  0.5026513499999999  0.597101745  0.455850059961797  1.0000
  V   V13       1.0  0.75265135  0.221711585  0.4748463958949934  1.0000
  V   V14       1.0  0.26271380999999994  0.335148595  0.5124581026282136  1.0000
  V   V15       1.0  0.74413606  0.33459383499999995  0.5121727232653674  1.0000
  V   V16       1.0  0.25265134999999994  0.221711585  0.4748463958949934  1.0000
  V   V17       1.0  0.5026513499999999  0.388459055  0.466318494045753  1.0000
  V   V18       1.0  0.005379989999999971  0.175554265  0.5183377772944435  1.0000
  V   V19       1.0  0.5043445099999999  0.17017927499999996  0.502517891001741  1.0000
  V   V20       1.0  0.002651349999999971  0.388459055  0.4833742947421682  1.0000
  V   V21       1.0  0.5026513499999999  0.09710174499999999  0.456316911191178  1.0000
  V   V22       1.0  0.002651349999999971  0.466742065  0.455850059961797  1.0000
  V   V23       1.0  0.5026513499999999  0.466742065  0.4938427318281897  1.0000
  V   V24       1.0  0.002651349999999971  0.09710174499999999  0.4933758805988088  1.0000
  Si  Si1       1.0  0.75265135  0.531921905  0.4748463958949934  1.0000
  Si  Si2       1.0  0.25265134999999994  0.531921905  0.4748463958949934  1.0000
  Si  Si3       1.0  0.002651349999999971  0.7458222250000001  0.49002296353522007  1.0000
  Si  Si4       1.0  0.50073805  0.8165477549999999  0.4963370070804876  1.0000
  Si  Si5       1.0  0.9985867  0.840339045  0.5255899153205204  1.0000
  Si  Si6       1.0  0.5026513499999999  0.7458222250000001  0.45966982525270106  1.0000
  Si  Si7       1.0  0.002651349999999971  0.968076565  0.4816165192580862  1.0000
  Si  Si8       1.0  0.4964017499999999  0.599562935  0.5066506726718739  1.0000
  Si  Si9       1.0  0.005016729999999971  0.597243255  0.5195024226596024  1.0000
  Si  Si10      1.0  0.5026513499999999  0.968076565  0.4680762695298349  1.0000
  Si  Si11      1.0  0.25260858999999997  0.03192343499999999  0.5140101495553008  1.0000
  Si  Si12      1.0  0.7525640899999999  0.031939934999999996  0.5140525567346862  1.0000
  Si  Si13      1.0  0.50685189  0.22345268499999998  0.5255939651070834  1.0000
  Si  Si14      1.0  0.002651349999999971  0.318021585  0.45966982525270106  1.0000
  Si  Si15      1.0  0.5026513499999999  0.318021585  0.49002296353522007  1.0000
  Si  Si16      1.0  0.004819399999999971  0.24730365499999998  0.49635091264858283  1.0000
  Si  Si17      1.0  0.50026449  0.46671415499999996  0.5195360277824994  1.0000
  Si  Si18      1.0  0.002651349999999971  0.09576723499999999  0.4680762695298349  1.0000
  Si  Si19      1.0  0.5026513499999999  0.09576723499999999  0.4816165192580862  1.0000
  Si  Si20      1.0  0.00930863999999997  0.464180235  0.5065636998279  1.0000
