data_image0
_chemical_formula_structural       CORh12Sn4
_chemical_formula_sum              "C1 O1 Rh12 Sn4"
_cell_length_a       4.79039985
_cell_length_b       4.790399853769026
_cell_length_c       104.35880974
_cell_angle_alpha    90.0
_cell_angle_beta     90.0
_cell_angle_gamma    106.58893887528814

_space_group_name_H-M_alt    "P 1"
_space_group_IT_number       1

loop_
  _space_group_symop_operation_xyz
  'x, y, z'

loop_
  _atom_site_type_symbol
  _atom_site_label
  _atom_site_symmetry_multiplicity
  _atom_site_fract_x
  _atom_site_fract_y
  _atom_site_fract_z
  _atom_site_occupancy
  C   C1        1.0  0.413062695  0.768594275  0.5515122988266034  1.0000
  O   O1        1.0  0.351650765  0.8300390249999999  0.5618028566645719  1.0000
  Rh  Rh1       1.0  0.5062457749999999  0.17541328500000003  0.43819714333542825  1.0000
  Rh  Rh2       1.0  0.006245774999999886  0.675413285  0.4656335815010619  1.0000
  Rh  Rh3       1.0  0.006245774999999886  0.675413285  0.43819714333542825  1.0000
  Rh  Rh4       1.0  0.5062457749999999  0.17541328500000003  0.4656335815010619  1.0000
  Rh  Rh5       1.0  0.006245774999999897  0.17541328500000003  0.45191536077205874  1.0000
  Rh  Rh6       1.0  0.5062457749999999  0.675413285  0.479351802230065  1.0000
  Rh  Rh7       1.0  0.5062457749999999  0.17541328500000003  0.49307001966669556  1.0000
  Rh  Rh8       1.0  0.011707454999999931  0.682301495  0.5200843328498604  1.0000
  Rh  Rh9       1.0  0.006245774999999886  0.675413285  0.49307001966669556  1.0000
  Rh  Rh10      1.0  0.49931958499999984  0.16996097500000001  0.5200848695066125  1.0000
  Rh  Rh11      1.0  0.0031742849999999013  0.17850682500000004  0.5067592839777004  1.0000
  Rh  Rh12      1.0  0.518197395  0.6634470549999999  0.5356410079162595  1.0000
  Sn  Sn1       1.0  0.5062457749999999  0.675413285  0.45191536077205874  1.0000
  Sn  Sn2       1.0  0.006245774999999897  0.17541328500000003  0.479351802230065  1.0000
  Sn  Sn3       1.0  0.5093668849999998  0.672308115  0.5069186216474496  1.0000
  Sn  Sn4       1.0  0.9968257150000002  0.18477977500000003  0.5335066153653114  1.0000
