data_image0
_chemical_formula_structural       CONi8V4Ni8V4Ni8V4Ni8V4
_chemical_formula_sum              "C1 O1 Ni32 V16"
_cell_length_a       8.83071477248453
_cell_length_b       8.817478347207484
_cell_length_c       99.24128356
_cell_angle_alpha    90.12320955368688
_cell_angle_beta     93.00073949245159
_cell_angle_gamma    99.64851814874494

_space_group_name_H-M_alt    "P 1"
_space_group_IT_number       1

loop_
  _space_group_symop_operation_xyz
  'x, y, z'

loop_
  _atom_site_type_symbol
  _atom_site_label
  _atom_site_symmetry_multiplicity
  _atom_site_fract_x
  _atom_site_fract_y
  _atom_site_fract_z
  _atom_site_occupancy
  C   C1        1.0  0.15847942500000006  0.5397503649999998  0.5309779282845529  1.0000
  O   O1        1.0  0.17829338500000005  0.5138846749999998  0.5428806385834009  1.0000
  Ni  Ni1       1.0  0.3089278650000001  0.3961816549999999  0.5058407647724672  1.0000
  Ni  Ni2       1.0  0.43967933500000006  0.08697606499999998  0.5229845950300124  1.0000
  Ni  Ni3       1.0  0.06204148500000004  0.36275253499999993  0.5182791016312781  1.0000
  Ni  Ni4       1.0  0.43423420500000004  0.16811992499999995  0.49977214546024984  1.0000
  Ni  Ni5       1.0  0.05989343500000004  0.020986194999999958  0.46935133538859264  1.0000
  Ni  Ni6       1.0  0.18489343500000005  0.20848619499999996  0.4877668592204168  1.0000
  Ni  Ni7       1.0  0.3080590350000001  0.47901380499999996  0.4817184351082543  1.0000
  Ni  Ni8       1.0  0.18305903500000004  0.2915138049999999  0.4633029112764301  1.0000
  V   V1        1.0  0.05897624500000005  0.43750000499999997  0.4939504090802476  1.0000
  V   V2        1.0  0.18586727500000005  0.13727666499999996  0.5117911328498138  1.0000
  V   V3        1.0  0.3089762450000001  0.06250000499999996  0.4571193614165992  1.0000
  V   V4        1.0  0.43397624500000004  0.2500000049999999  0.4755348852484235  1.0000
  Ni  Ni9       1.0  0.30982157500000007  0.899697365  0.5062174373701652  1.0000
  Ni  Ni10      1.0  0.42882711500000004  0.582186005  0.5232583528410868  1.0000
  Ni  Ni11      1.0  0.05796437500000005  0.867040315  0.517446286820959  1.0000
  Ni  Ni12      1.0  0.43321611500000007  0.667378905  0.4999468189136576  1.0000
  Ni  Ni13      1.0  0.05989343500000004  0.520986195  0.46935133538859264  1.0000
  Ni  Ni14      1.0  0.18489343500000005  0.708486195  0.4877668592204168  1.0000
  Ni  Ni15      1.0  0.3080590350000001  0.9790138050000002  0.48171843510825435  1.0000
  Ni  Ni16      1.0  0.18305903500000004  0.791513805  0.4633029112764301  1.0000
  V   V5        1.0  0.05897624500000005  0.9375000050000001  0.4939504090802476  1.0000
  V   V6        1.0  0.1867829450000001  0.644420955  0.5124077081595738  1.0000
  V   V7        1.0  0.3089762450000001  0.562500005  0.4571193614165993  1.0000
  V   V8        1.0  0.43397624500000004  0.7500000049999999  0.4755348852484234  1.0000
  Ni  Ni17      1.0  0.8102202850000001  0.399318455  0.5064335030281794  1.0000
  Ni  Ni18      1.0  0.934932125  0.08840582499999995  0.5229723464968014  1.0000
  Ni  Ni19      1.0  0.556633815  0.3634257549999999  0.5175282963049288  1.0000
  Ni  Ni20      1.0  0.9349365549999998  0.17063634499999994  0.49987499247774586  1.0000
  Ni  Ni21      1.0  0.559893435  0.02098619499999995  0.4693513353885927  1.0000
  Ni  Ni22      1.0  0.684893435  0.20848619499999996  0.4877668592204168  1.0000
  Ni  Ni23      1.0  0.808059035  0.47901380499999996  0.48171843510825435  1.0000
  Ni  Ni24      1.0  0.683059035  0.291513805  0.4633029112764301  1.0000
  V   V9        1.0  0.558976245  0.43750000499999997  0.4939504090802476  1.0000
  V   V10       1.0  0.6852390150000001  0.139986595  0.5118391192851939  1.0000
  V   V11       1.0  0.808976245  0.06250000499999996  0.4571193614165993  1.0000
  V   V12       1.0  0.9339762449999999  0.2500000049999999  0.4755348852484235  1.0000
  Ni  Ni25      1.0  0.8084875149999999  0.898556595  0.506282643056949  1.0000
  Ni  Ni26      1.0  0.9420356249999998  0.5889506349999999  0.5232800330689835  1.0000
  Ni  Ni27      1.0  0.5560882650000001  0.8601512249999999  0.5176278550464894  1.0000
  Ni  Ni28      1.0  0.933200755  0.668128575  0.4999065316404811  1.0000
  Ni  Ni29      1.0  0.559893435  0.520986195  0.46935133538859264  1.0000
  Ni  Ni30      1.0  0.684893435  0.708486195  0.4877668592204168  1.0000
  Ni  Ni31      1.0  0.808059035  0.979013805  0.48171843510825435  1.0000
  Ni  Ni32      1.0  0.683059035  0.791513805  0.4633029112764301  1.0000
  V   V13       1.0  0.558976245  0.937500005  0.4939504090802476  1.0000
  V   V14       1.0  0.682063915  0.6393754649999999  0.5118961308004933  1.0000
  V   V15       1.0  0.808976245  0.562500005  0.4571193614165993  1.0000
  V   V16       1.0  0.9339762449999999  0.750000005  0.4755348852484234  1.0000
