data_image0
_chemical_formula_structural       COAl12Ni8Al12Ni8
_chemical_formula_sum              "C1 O1 Al24 Ni16"
_cell_length_a       10.717491051723892
_cell_length_b       7.04237438
_cell_length_c       102.52733397
_cell_angle_alpha    90.0
_cell_angle_beta     79.06553793674428
_cell_angle_gamma    70.81946184428257

_space_group_name_H-M_alt    "P 1"
_space_group_IT_number       1

loop_
  _space_group_symop_operation_xyz
  'x, y, z'

loop_
  _atom_site_type_symbol
  _atom_site_label
  _atom_site_symmetry_multiplicity
  _atom_site_fract_x
  _atom_site_fract_y
  _atom_site_fract_z
  _atom_site_occupancy
  C   C1        1.0  0.9130698999999999  0.593952095  0.541264305671601  1.0000
  O   O1        1.0  0.8458718299999999  0.660904805  0.551637286179098  1.0000
  Al  Al1       1.0  0.53865254  0.18574155499999995  0.5167696503928052  1.0000
  Al  Al2       1.0  0.05611585999999999  0.43134532499999995  0.5257498074269358  1.0000
  Al  Al3       1.0  0.03489929  0.941949755  0.5067598224411556  1.0000
  Al  Al4       1.0  0.5385083  0.687562575  0.4964782875841057  1.0000
  Al  Al5       1.0  0.8621661999999999  0.19240029500000003  0.4900606518862463  1.0000
  Al  Al6       1.0  0.36278656000000004  0.44108945499999996  0.49999257146854975  1.0000
  Al  Al7       1.0  0.36606025999999997  0.932950985  0.5197108634465909  1.0000
  Al  Al8       1.0  0.8592372500000001  0.6863454949999999  0.5095108568411784  1.0000
  Al  Al9       1.0  0.7148503999999999  0.9327248549999999  0.4929816938518576  1.0000
  Al  Al10      1.0  0.21540074999999995  0.18167410500000006  0.5025511810477088  1.0000
  Al  Al11      1.0  0.21682074999999995  0.687612075  0.5213639916720234  1.0000
  Al  Al12      1.0  0.71578564  0.434932895  0.5129177371365911  1.0000
  Ni  Ni1       1.0  0.6119158899999999  0.3175254450000001  0.49502272688698135  1.0000
  Ni  Ni2       1.0  0.10777631  0.5745623249999998  0.5048788795728102  1.0000
  Ni  Ni3       1.0  0.12366914999999999  0.06624631499999997  0.5232653816406024  1.0000
  Ni  Ni4       1.0  0.61171137  0.8152163050000002  0.5142424363922204  1.0000
  Ni  Ni5       1.0  0.9651007099999999  0.8075997050000001  0.48801961885112255  1.0000
  Ni  Ni6       1.0  0.46291575999999995  0.06092592500000002  0.49780377046017865  1.0000
  Ni  Ni7       1.0  0.46882320999999993  0.555143965  0.5170562778121539  1.0000
  Ni  Ni8       1.0  0.9648376299999999  0.31024501499999996  0.5079212082167658  1.0000
  Al  Al13      1.0  0.5385083  0.18756257499999998  0.4766498350689954  1.0000
  Al  Al14      1.0  0.038508299999999995  0.43756257499999995  0.4865640613265506  1.0000
  Al  Al15      1.0  0.038508299999999995  0.937562575  0.4667356088114403  1.0000
  Al  Al16      1.0  0.5385083  0.687562575  0.4568213825538851  1.0000
  Al  Al17      1.0  0.8621661999999999  0.19240029500000003  0.45040374685602574  1.0000
  Al  Al18      1.0  0.36216619999999994  0.44240029499999994  0.46031797311358086  1.0000
  Al  Al19      1.0  0.36216619999999994  0.9424002950000001  0.48014642562869114  1.0000
  Al  Al20      1.0  0.8621661999999999  0.6924002950000001  0.47023219937113603  1.0000
  Al  Al21      1.0  0.7148503999999999  0.9327248549999999  0.45332478882163696  1.0000
  Al  Al22      1.0  0.21485039999999994  0.18272485500000005  0.4632390150791921  1.0000
  Al  Al23      1.0  0.21485039999999994  0.682724855  0.48306746759430236  1.0000
  Al  Al24      1.0  0.7148503999999999  0.43272485499999996  0.4731532413367473  1.0000
  Ni  Ni9       1.0  0.6119158899999999  0.3175254450000001  0.4553658218567607  1.0000
  Ni  Ni10      1.0  0.11191588999999999  0.567525445  0.46528004811431584  1.0000
  Ni  Ni11      1.0  0.11191588999999999  0.067525445  0.4851085006294262  1.0000
  Ni  Ni12      1.0  0.6119158899999999  0.817525445  0.47519427437187095  1.0000
  Ni  Ni13      1.0  0.9651007099999999  0.8075997050000001  0.448362713820902  1.0000
  Ni  Ni14      1.0  0.46510071  0.05759970500000003  0.4582769400784571  1.0000
  Ni  Ni15      1.0  0.46510071  0.557599705  0.4781053925935674  1.0000
  Ni  Ni16      1.0  0.9651007099999999  0.307599705  0.46819116633601227  1.0000
