data_image0
_chemical_formula_structural       COFe6Sb12Fe6Sb12
_chemical_formula_sum              "C1 O1 Fe12 Sb24"
_cell_length_a       9.265443067466705
_cell_length_b       5.79313628
_cell_length_c       106.57005259
_cell_angle_alpha    90.0
_cell_angle_beta     108.17765601412334
_cell_angle_gamma    90.0

_space_group_name_H-M_alt    "P 1"
_space_group_IT_number       1

loop_
  _space_group_symop_operation_xyz
  'x, y, z'

loop_
  _atom_site_type_symbol
  _atom_site_label
  _atom_site_symmetry_multiplicity
  _atom_site_fract_x
  _atom_site_fract_y
  _atom_site_fract_z
  _atom_site_occupancy
  C   C1        1.0  0.7818160399999999  0.5920425149999999  0.5671629994320037  1.0000
  O   O1        1.0  0.81086225  0.5987440049999999  0.5787264429820305  1.0000
  Fe  Fe1       1.0  0.7128512  0.08846355499999997  0.5361217281966757  1.0000
  Fe  Fe2       1.0  0.05919740999999995  0.09310922499999998  0.48990456864126986  1.0000
  Fe  Fe3       1.0  0.39253073999999993  0.09310922499999998  0.5127815702280027  1.0000
  Fe  Fe4       1.0  0.7258640700000001  0.593109225  0.5013430694346364  1.0000
  Fe  Fe5       1.0  0.05919740999999995  0.593109225  0.52422007445292  1.0000
  Fe  Fe6       1.0  0.36873406  0.613203965  0.543910555327736  1.0000
  Sb  Sb1       1.0  0.8442588900000001  0.289586225  0.5194074620248592  1.0000
  Sb  Sb2       1.0  0.18333219999999992  0.298528725  0.5430752198328641  1.0000
  Sb  Sb3       1.0  0.51092556  0.289586225  0.4965304604381262  1.0000
  Sb  Sb4       1.0  0.94080259  0.8966322250000001  0.5061556784311464  1.0000
  Sb  Sb5       1.0  0.2658030499999999  0.911536445  0.5279278991713745  1.0000
  Sb  Sb6       1.0  0.59490865  0.8648207450000001  0.5511165919289454  1.0000
  Sb  Sb7       1.0  0.9004758100000001  0.34385762499999994  0.5537576402235814  1.0000
  Sb  Sb8       1.0  0.17759221999999997  0.39663222499999995  0.5079689612314927  1.0000
  Sb  Sb9       1.0  0.5126211700000001  0.40348975499999995  0.5311148728479681  1.0000
  Sb  Sb10      1.0  0.6074692600000001  0.789586225  0.5175941826560635  1.0000
  Sb  Sb11      1.0  0.9288421099999999  0.7777979549999999  0.5400371823145943  1.0000
  Sb  Sb12      1.0  0.27413592  0.789586225  0.49471717763777995  1.0000
  Fe  Fe7       1.0  0.7258640700000001  0.09310922499999998  0.46702756362298625  1.0000
  Fe  Fe8       1.0  0.05919740999999995  0.09310922499999998  0.4212735570179697  1.0000
  Fe  Fe9       1.0  0.39253073999999993  0.09310922499999998  0.44415055860470265  1.0000
  Fe  Fe10      1.0  0.7258640700000001  0.593109225  0.43271205781133615  1.0000
  Fe  Fe11      1.0  0.05919740999999995  0.593109225  0.45558906282961975  1.0000
  Fe  Fe12      1.0  0.39253073999999993  0.593109225  0.47846606441635275  1.0000
  Sb  Sb13      1.0  0.8442588900000001  0.289586225  0.450776450401559  1.0000
  Sb  Sb14      1.0  0.17759221999999997  0.289586225  0.47365345541984266  1.0000
  Sb  Sb15      1.0  0.51092556  0.289586225  0.4278994488148261  1.0000
  Sb  Sb16      1.0  0.94080259  0.8966322250000001  0.43752466680784624  1.0000
  Sb  Sb17      1.0  0.27413592  0.8966322250000001  0.46040167182612984  1.0000
  Sb  Sb18      1.0  0.6074692600000001  0.8966322250000001  0.48327867684441345  1.0000
  Sb  Sb19      1.0  0.8442588900000001  0.39663222499999995  0.4850919562132091  1.0000
  Sb  Sb20      1.0  0.17759221999999997  0.39663222499999995  0.43933794960819256  1.0000
  Sb  Sb21      1.0  0.51092556  0.39663222499999995  0.46221495462647616  1.0000
  Sb  Sb22      1.0  0.6074692600000001  0.789586225  0.44896317103276334  1.0000
  Sb  Sb23      1.0  0.94080259  0.789586225  0.47184017261949635  1.0000
  Sb  Sb24      1.0  0.27413592  0.789586225  0.4260861660144798  1.0000
