data_image0
_chemical_formula_structural       Co6W2Co6W2CO
_chemical_formula_sum              "Co12 W4 C1 O1"
_cell_length_a       5.12737225
_cell_length_b       5.127372258424154
_cell_length_c       98.74491403
_cell_angle_alpha    90.0
_cell_angle_beta     90.0
_cell_angle_gamma    120.00000001016673

_space_group_name_H-M_alt    "P 1"
_space_group_IT_number       1

loop_
  _space_group_symop_operation_xyz
  'x, y, z'

loop_
  _atom_site_type_symbol
  _atom_site_label
  _atom_site_symmetry_multiplicity
  _atom_site_fract_x
  _atom_site_fract_y
  _atom_site_fract_z
  _atom_site_occupancy
  Co  Co1       1.0  0.8146396699999998  0.6795815749999999  0.4551308341627172  1.0000
  Co  Co2       1.0  0.13845426999999982  0.8414888850000001  0.47592388587687484  1.0000
  Co  Co3       1.0  0.6527323599999998  0.8414888850000001  0.47592388587687484  1.0000
  Co  Co4       1.0  0.3003615799999998  0.16530348499999997  0.4551308341627172  1.0000
  Co  Co5       1.0  0.8146396699999998  0.16530348499999997  0.4551308341627172  1.0000
  Co  Co6       1.0  0.1384542699999998  0.32721079499999994  0.47592388587687484  1.0000
  W   W1        1.0  0.3098802999999997  0.670062855  0.4551308341627172  1.0000
  W   W2        1.0  0.6432136399999998  0.336729515  0.47592388587687484  1.0000
  Co  Co7       1.0  0.8108119199999998  0.6719164649999999  0.49681278025379844  1.0000
  Co  Co8       1.0  0.13730907999999983  0.837764415  0.5181026337087219  1.0000
  Co  Co9       1.0  0.6501786199999997  0.8377868949999999  0.5181014256323933  1.0000
  Co  Co10      1.0  0.2969745599999998  0.15852910499999995  0.49700066086665173  1.0000
  Co  Co11      1.0  0.8113251999999997  0.15851111499999995  0.4970010800545827  1.0000
  Co  Co12      1.0  0.1481819899999998  0.346627265  0.516963947537675  1.0000
  W   W3        1.0  0.3083719899999998  0.6670216349999999  0.4969047017627939  1.0000
  W   W4        1.0  0.6342046799999999  0.318618575  0.5165942034053939  1.0000
  C   C1        1.0  0.8626909199999999  0.775653815  0.5327804729113815  1.0000
  O   O1        1.0  0.8606099999999998  0.771667515  0.5448691658372826  1.0000
