data_image0
_chemical_formula_structural       COAg12Sn4Ag12Sn4
_chemical_formula_sum              "C1 O1 Ag24 Sn8"
_cell_length_a       13.318422255619897
_cell_length_b       5.28331235
_cell_length_c       104.67981125
_cell_angle_alpha    90.0
_cell_angle_beta     68.161885187837
_cell_angle_gamma    90.0

_space_group_name_H-M_alt    "P 1"
_space_group_IT_number       1

loop_
  _space_group_symop_operation_xyz
  'x, y, z'

loop_
  _atom_site_type_symbol
  _atom_site_label
  _atom_site_symmetry_multiplicity
  _atom_site_fract_x
  _atom_site_fract_y
  _atom_site_fract_z
  _atom_site_occupancy
  C   C1        1.0  0.42706014999999997  0.39945032500000005  0.5492830491620205  1.0000
  O   O1        1.0  0.46044803000000006  0.4933651350000001  0.556892067903665  1.0000
  Ag  Ag1       1.0  0.18273017999999996  0.6859134149999999  0.5149648856686837  1.0000
  Ag  Ag2       1.0  0.6845343099999999  0.6672349750000001  0.4904356731244594  1.0000
  Ag  Ag3       1.0  0.44673930000000006  0.337377305  0.5268593104604148  1.0000
  Ag  Ag4       1.0  0.9345343099999999  0.318391715  0.5022676058967842  1.0000
  Ag  Ag5       1.0  0.33112431  0.842537975  0.5290669819287901  1.0000
  Ag  Ag6       1.0  0.81090593  0.8186338449999999  0.5093322818125464  1.0000
  Ag  Ag7       1.0  0.30654345999999993  0.18046580500000003  0.5089268274418183  1.0000
  Ag  Ag8       1.0  0.83643282  0.17077235500000001  0.5304231412421562  1.0000
  Ag  Ag9       1.0  0.57086867  0.834648745  0.5191646819921374  1.0000
  Ag  Ag10      1.0  0.05928661999999994  0.8281646650000001  0.49636336069837883  1.0000
  Ag  Ag11      1.0  0.55978199  0.15746202500000003  0.4963399183228649  1.0000
  Ag  Ag12      1.0  0.06899023999999994  0.17849220500000004  0.5203498835746322  1.0000
  Sn  Sn1       1.0  0.18453430999999995  0.3234333850000001  0.49043567312445946  1.0000
  Sn  Sn2       1.0  0.68810401  0.322405055  0.5149846241753699  1.0000
  Sn  Sn3       1.0  0.43453431000000003  0.6621933050000001  0.5022676058967843  1.0000
  Sn  Sn4       1.0  0.94071338  0.676790625  0.5265191707354268  1.0000
  Ag  Ag13      1.0  0.18453430999999995  0.6672349750000001  0.46677180426686815  1.0000
  Ag  Ag14      1.0  0.6845343099999999  0.6672349750000001  0.44310793209633514  1.0000
  Ag  Ag15      1.0  0.43453431000000003  0.318391715  0.478603737039193  1.0000
  Ag  Ag16      1.0  0.9345343099999999  0.318391715  0.4549398681816016  1.0000
  Ag  Ag17      1.0  0.30978198999999995  0.8281646650000001  0.4845079822375984  1.0000
  Ag  Ag18      1.0  0.80978199  0.8281646650000001  0.4608441133800071  1.0000
  Ag  Ag19      1.0  0.30928662  0.15746202500000003  0.46086755906846266  1.0000
  Ag  Ag20      1.0  0.80928662  0.15746202500000003  0.484531427926054  1.0000
  Ag  Ag21      1.0  0.55928662  0.8281646650000001  0.4726994918407875  1.0000
  Ag  Ag22      1.0  0.05928661999999994  0.8281646650000001  0.44903562298319616  1.0000
  Ag  Ag23      1.0  0.55978199  0.15746202500000003  0.44901217729474047  1.0000
  Ag  Ag24      1.0  0.059781989999999945  0.15746202500000003  0.4726760461523319  1.0000
  Sn  Sn5       1.0  0.18453430999999995  0.3234333850000001  0.44310793209633514  1.0000
  Sn  Sn6       1.0  0.6845343099999999  0.3234333850000001  0.4667718042668681  1.0000
  Sn  Sn7       1.0  0.43453431000000003  0.6621933050000001  0.4549398681816017  1.0000
  Sn  Sn8       1.0  0.9345343099999999  0.6621933050000001  0.4786037370391929  1.0000
