data_image0
_chemical_formula_structural       COGa20Rh12
_chemical_formula_sum              "C1 O1 Ga20 Rh12"
_cell_length_a       9.20025272452751
_cell_length_b       8.31998849960928
_cell_length_c       39.624063570000004
_cell_angle_alpha    88.32921706636937
_cell_angle_beta     73.20487848924562
_cell_angle_gamma    65.11166153865686

_space_group_name_H-M_alt    "P 1"
_space_group_IT_number       1

loop_
  _space_group_symop_operation_xyz
  'x, y, z'

loop_
  _atom_site_type_symbol
  _atom_site_label
  _atom_site_symmetry_multiplicity
  _atom_site_fract_x
  _atom_site_fract_y
  _atom_site_fract_z
  _atom_site_occupancy
  C   C1        1.0  0.835541895  0.46885710500000005  0.5836864751971697  1.0000
  O   O1        1.0  0.7453007950000002  0.513710735  0.6132102220390047  1.0000
  Ga  Ga1       1.0  0.6558241050000001  0.466045055  0.38678977796099523  1.0000
  Ga  Ga2       1.0  0.15582410500000007  0.466045055  0.4826151858483569  1.0000
  Ga  Ga3       1.0  0.8337467750000003  0.544809625  0.5282555857278212  1.0000
  Ga  Ga4       1.0  0.3461921850000001  0.5452442949999998  0.4281175745235703  1.0000
  Ga  Ga5       1.0  0.15601025500000018  0.9600755149999999  0.4118623426140709  1.0000
  Ga  Ga6       1.0  0.665653395  0.946687095  0.5057652475061678  1.0000
  Ga  Ga7       1.0  0.34576574500000007  0.052167695  0.4988336821294886  1.0000
  Ga  Ga8       1.0  0.846006035  0.051213835  0.40304500987049463  1.0000
  Ga  Ga9       1.0  0.4426310950000002  0.7213066249999999  0.5434873562848876  1.0000
  Ga  Ga10      1.0  0.9338310950000003  0.731508375  0.4477067486922215  1.0000
  Ga  Ga11      1.0  0.09377493500000009  0.241960895  0.5620434865603176  1.0000
  Ga  Ga12      1.0  0.568185195  0.279780975  0.4630260116797057  1.0000
  Ga  Ga13      1.0  0.8473663950000001  0.13275232499999998  0.5321723994460049  1.0000
  Ga  Ga14      1.0  0.33355923500000006  0.13352302500000002  0.434485556179317  1.0000
  Ga  Ga15      1.0  0.6682313750000003  0.9155118649999999  0.5735113347539929  1.0000
  Ga  Ga16      1.0  0.1684570550000002  0.8777663249999998  0.4762472041926102  1.0000
  Ga  Ga17      1.0  0.12737786500000006  0.640307075  0.5578725591924817  1.0000
  Ga  Ga18      1.0  0.6067750750000003  0.659198425  0.4650384755678949  1.0000
  Ga  Ga19      1.0  0.44008852500000006  0.320147585  0.5428362341373422  1.0000
  Ga  Ga20      1.0  0.8952412150000001  0.352090925  0.44569428480403217  1.0000
  Rh  Rh1       1.0  0.446155015  0.781261125  0.4206064034177599  1.0000
  Rh  Rh2       1.0  0.9441387250000002  0.7839274649999999  0.5187535459477429  1.0000
  Rh  Rh3       1.0  0.05586127500000007  0.230028225  0.49012635695416723  1.0000
  Rh  Rh4       1.0  0.555861275  0.230028225  0.3943009490668056  1.0000
  Rh  Rh5       1.0  0.621794175  0.955861385  0.446971675821334  1.0000
  Rh  Rh6       1.0  0.14464933500000005  0.936112895  0.5409953283934016  1.0000
  Rh  Rh7       1.0  0.8802221150000002  0.055427965  0.4637610845505933  1.0000
  Rh  Rh8       1.0  0.40070863500000004  0.03992448500000001  0.556376931558241  1.0000
  Rh  Rh9       1.0  0.8421323950000003  0.583855965  0.4004933249130742  1.0000
  Rh  Rh10      1.0  0.34213239500000014  0.583855965  0.4963187328004359  1.0000
  Rh  Rh11      1.0  0.6647945550000002  0.42061060499999997  0.5089981744533412  1.0000
  Rh  Rh12      1.0  0.15988389500000008  0.427433385  0.4144140275714912  1.0000
