data_image0
_chemical_formula_structural       CONi18Sb6
_chemical_formula_sum              "C1 O1 Ni18 Sb6"
_cell_length_a       6.320399588914645
_cell_length_b       6.870729686838372
_cell_length_c       103.13578595999999
_cell_angle_alpha    79.73185080284173
_cell_angle_beta     86.83995914767252
_cell_angle_gamma    64.74046291673947

_space_group_name_H-M_alt    "P 1"
_space_group_IT_number       1

loop_
  _space_group_symop_operation_xyz
  'x, y, z'

loop_
  _atom_site_type_symbol
  _atom_site_label
  _atom_site_symmetry_multiplicity
  _atom_site_fract_x
  _atom_site_fract_y
  _atom_site_fract_z
  _atom_site_occupancy
  C   C1        1.0  0.713418555  0.655597955  0.5379232911214696  1.0000
  O   O1        1.0  0.7276647949999999  0.625586015  0.5495966791539464  1.0000
  Ni  Ni1       1.0  0.9514439649999998  0.8478209049999998  0.49990857567850955  1.0000
  Ni  Ni2       1.0  0.28520344500000006  0.18976976499999995  0.47332431004517345  1.0000
  Ni  Ni3       1.0  0.583509155  0.573283145  0.524829539379686  1.0000
  Ni  Ni4       1.0  0.710949165  0.4768969049999999  0.4904224220081564  1.0000
  Ni  Ni5       1.0  0.044282495000000116  0.8102302349999998  0.4636488306643624  1.0000
  Ni  Ni6       1.0  0.36249206500000003  0.14547385499999996  0.5158420138816339  1.0000
  Ni  Ni7       1.0  0.527048425  0.19378156499999996  0.4930717160991175  1.0000
  Ni  Ni8       1.0  0.860381755  0.5271148949999999  0.46629812475532334  1.0000
  Ni  Ni9       1.0  0.1693903850000001  0.8577422449999998  0.5182962859126148  1.0000
  Ni  Ni10      1.0  0.7976083749999999  0.799447715  0.5227378096345368  1.0000
  Ni  Ni11      1.0  0.11170117500000004  0.14548796499999997  0.49751463418973235  1.0000
  Ni  Ni12      1.0  0.4691041849999999  0.47288510500000003  0.4706750159542125  1.0000
  Ni  Ni13      1.0  0.6936274649999998  0.8606234649999999  0.47969195813372256  1.0000
  Ni  Ni14      1.0  0.026960805000000043  0.19395680499999998  0.4529183667899286  1.0000
  Ni  Ni15      1.0  0.35307807499999994  0.5207763249999999  0.5073685638477624  1.0000
  Ni  Ni16      1.0  0.9730391949999998  0.46626149499999997  0.510889804232331  1.0000
  Ni  Ni17      1.0  0.30252514500000016  0.8060432049999998  0.4840547739196074  1.0000
  Ni  Ni18      1.0  0.6358584749999999  0.13937653499999997  0.4572811825758134  1.0000
  Sb  Sb1       1.0  0.5333584350000001  0.8212461049999998  0.5029844020121171  1.0000
  Sb  Sb2       1.0  0.881133895  0.14180454499999998  0.4771769121898476  1.0000
  Sb  Sb3       1.0  0.214467225  0.4751378749999999  0.4504033208460536  1.0000
  Sb  Sb4       1.0  0.11501871500000004  0.524862125  0.48656981986348224  1.0000
  Sb  Sb5       1.0  0.44835205499999997  0.8581954649999999  0.45979622851968843  1.0000
  Sb  Sb6       1.0  0.762543215  0.20065878499999995  0.5158343512794848  1.0000
