data_image0
_chemical_formula_structural       COCo2Pt2Co2Pt2Co2Pt2Co2Pt2
_chemical_formula_sum              "C1 O1 Co8 Pt8"
_cell_length_a       5.3640396
_cell_length_b       4.573071166347339
_cell_length_c       102.01149817000001
_cell_angle_alpha    71.81538361097009
_cell_angle_beta     90.0
_cell_angle_gamma    90.0

_space_group_name_H-M_alt    "P 1"
_space_group_IT_number       1

loop_
  _space_group_symop_operation_xyz
  'x, y, z'

loop_
  _atom_site_type_symbol
  _atom_site_label
  _atom_site_symmetry_multiplicity
  _atom_site_fract_x
  _atom_site_fract_y
  _atom_site_fract_z
  _atom_site_occupancy
  C   C1        1.0  0.6193198249999999  0.61277544  0.538353468327482  1.0000
  O   O1        1.0  0.619312745  0.5322876700000001  0.5503837781376354  1.0000
  Co  Co1       1.0  0.369331555  0.75803015  0.4496162218623647  1.0000
  Co  Co2       1.0  0.369331555  0.25803015  0.4720307102176898  1.0000
  Pt  Pt1       1.0  0.11933155499999996  0.25803015  0.44961622186236483  1.0000
  Pt  Pt2       1.0  0.11933155499999996  0.75803015  0.4720307102176897  1.0000
  Co  Co3       1.0  0.37756548500000003  0.75203167  0.4944553406809085  1.0000
  Co  Co4       1.0  0.357933655  0.2795113800000001  0.5152190566271999  1.0000
  Pt  Pt3       1.0  0.11931527499999996  0.2586865000000001  0.4937550519798537  1.0000
  Pt  Pt4       1.0  0.11931671499999996  0.7566816000000001  0.5162970698106756  1.0000
  Co  Co5       1.0  0.869331555  0.75803015  0.4496162218623647  1.0000
  Co  Co6       1.0  0.869331555  0.25803015  0.4720307102176898  1.0000
  Pt  Pt5       1.0  0.6193315549999999  0.25803015  0.44961622186236483  1.0000
  Pt  Pt6       1.0  0.6193315549999999  0.75803015  0.4720307102176897  1.0000
  Co  Co7       1.0  0.861112545  0.7520687600000001  0.4944532884103136  1.0000
  Co  Co8       1.0  0.8806847250000001  0.2796037  0.5152132104802302  1.0000
  Pt  Pt7       1.0  0.6193464750000001  0.24196985000000004  0.4945146996267378  1.0000
  Pt  Pt8       1.0  0.6193144749999999  0.7498255500000001  0.5191750121706387  1.0000
