data_image0
_chemical_formula_structural       COV3Pt3V3Pt3V3Pt3V3Pt3
_chemical_formula_sum              "C1 O1 V12 Pt12"
_cell_length_a       7.8526971
_cell_length_b       6.0600916457726886
_cell_length_c       100.66190792
_cell_angle_alpha    71.56505120697608
_cell_angle_beta     90.0
_cell_angle_gamma    90.0

_space_group_name_H-M_alt    "P 1"
_space_group_IT_number       1

loop_
  _space_group_symop_operation_xyz
  'x, y, z'

loop_
  _atom_site_type_symbol
  _atom_site_label
  _atom_site_symmetry_multiplicity
  _atom_site_fract_x
  _atom_site_fract_y
  _atom_site_fract_z
  _atom_site_occupancy
  C   C1        1.0  0.6220921349999999  0.8111881550000001  0.5338676300725038  1.0000
  O   O1        1.0  0.622119375  0.6825304249999999  0.5455693277439682  1.0000
  V   V1        1.0  0.37210475499999995  0.838215065  0.4544306722560318  1.0000
  V   V2        1.0  0.37210475499999995  0.504881725  0.47981424528703037  1.0000
  V   V3        1.0  0.37210475499999995  0.171548395  0.4671224572485167  1.0000
  Pt  Pt1       1.0  0.12210475499999998  0.838215065  0.4734683527907879  1.0000
  Pt  Pt2       1.0  0.12210475499999998  0.504881725  0.46077656475227424  1.0000
  Pt  Pt3       1.0  0.12210475499999998  0.171548395  0.4861601377832728  1.0000
  V   V4        1.0  0.37210475499999995  0.838215065  0.49250603332554405  1.0000
  V   V5        1.0  0.366288305  0.499082215  0.5158038198009814  1.0000
  V   V6        1.0  0.369546305  0.176940595  0.5050873205741763  1.0000
  Pt  Pt4       1.0  0.12206987499999998  0.8202304050000001  0.5120436463971718  1.0000
  Pt  Pt5       1.0  0.12207612499999998  0.5012275150000001  0.49854480691337094  1.0000
  Pt  Pt6       1.0  0.12215736499999998  0.174240605  0.5236228327868588  1.0000
  V   V7        1.0  0.872104755  0.838215065  0.4544306722560318  1.0000
  V   V8        1.0  0.872104755  0.504881725  0.47981424528703037  1.0000
  V   V9        1.0  0.872104755  0.171548395  0.4671224572485167  1.0000
  Pt  Pt7       1.0  0.622104755  0.838215065  0.4734683527907879  1.0000
  Pt  Pt8       1.0  0.622104755  0.504881725  0.46077656475227424  1.0000
  Pt  Pt9       1.0  0.622104755  0.171548395  0.4861601377832728  1.0000
  V   V10       1.0  0.872104755  0.838215065  0.49250603332554405  1.0000
  V   V11       1.0  0.877930125  0.49899990499999997  0.5158067957712026  1.0000
  V   V12       1.0  0.8746690450000001  0.176859415  0.5050929618196724  1.0000
  Pt  Pt10      1.0  0.622121695  0.8102119649999999  0.5131938055821574  1.0000
  Pt  Pt11      1.0  0.622127625  0.504750415  0.4989877573878803  1.0000
  Pt  Pt12      1.0  0.6220583550000001  0.161784935  0.5235694815909283  1.0000
