data_image0
_chemical_formula_structural       V6Si2V6Si2CO
_chemical_formula_sum              "V12 Si4 C1 O1"
_cell_length_a       4.71230712
_cell_length_b       4.71230712
_cell_length_c       37.01385016
_cell_angle_alpha    90.0
_cell_angle_beta     90.0
_cell_angle_gamma    90.0

_space_group_name_H-M_alt    "P 1"
_space_group_IT_number       1

loop_
  _space_group_symop_operation_xyz
  'x, y, z'

loop_
  _atom_site_type_symbol
  _atom_site_label
  _atom_site_symmetry_multiplicity
  _atom_site_fract_x
  _atom_site_fract_y
  _atom_site_fract_z
  _atom_site_occupancy
  V   V1        1.0  0.11897526500000004  0.6250021050000001  0.5852483412578017  1.0000
  V   V2        1.0  0.11897639500000005  0.625001375  0.5237858159479047  1.0000
  V   V3        1.0  0.618975475  0.375000285  0.48963250934370905  1.0000
  V   V4        1.0  0.618975475  0.875000285  0.48963250934370905  1.0000
  V   V5        1.0  0.881024735  0.124999715  0.551760588664254  1.0000
  V   V6        1.0  0.35692554500000007  0.124999795  0.5517604282511399  1.0000
  Si  Si1       1.0  0.11897547500000005  0.125000285  0.48963250934370905  1.0000
  Si  Si2       1.0  0.618974655  0.6250011249999999  0.5534815985831939  1.0000
  V   V7        1.0  0.11897547500000005  0.6250002849999999  0.45780451559501123  1.0000
  V   V8        1.0  0.11897547500000005  0.6250002849999999  0.39414851918577604  1.0000
  V   V9        1.0  0.618975475  0.375000285  0.36232051652523867  1.0000
  V   V10       1.0  0.618975475  0.875000285  0.36232051652523867  1.0000
  V   V11       1.0  0.8689754749999999  0.125000285  0.42597651293447386  1.0000
  V   V12       1.0  0.36897547500000005  0.125000285  0.42597651293447386  1.0000
  Si  Si3       1.0  0.11897547500000005  0.125000285  0.36232051652523867  1.0000
  Si  Si4       1.0  0.618975475  0.6250002849999999  0.42597651293447386  1.0000
  C   C1        1.0  0.618978435  0.6250048450000001  0.6046578022725646  1.0000
  O   O1        1.0  0.618973995  0.625003935  0.6376794834747614  1.0000
