data_image0
_chemical_formula_structural       COAl9Cu3Al9Cu3
_chemical_formula_sum              "C1 O1 Al18 Cu6"
_cell_length_a       6.299111507791937
_cell_length_b       7.77207218
_cell_length_c       101.87126336
_cell_angle_alpha    90.0
_cell_angle_beta     108.43494882292202
_cell_angle_gamma    90.0

_space_group_name_H-M_alt    "P 1"
_space_group_IT_number       1

loop_
  _space_group_symop_operation_xyz
  'x, y, z'

loop_
  _atom_site_type_symbol
  _atom_site_label
  _atom_site_symmetry_multiplicity
  _atom_site_fract_x
  _atom_site_fract_y
  _atom_site_fract_z
  _atom_site_occupancy
  C   C1        1.0  0.96357058  0.6082406400000001  0.5361083482753131  1.0000
  O   O1        1.0  0.03642942000000005  0.60824137  0.5482999861942777  1.0000
  Al  Al1       1.0  0.12962580000000004  0.6082420500000001  0.5042954402839743  1.0000
  Al  Al2       1.0  0.7834720100000001  0.6082424800000001  0.5160364184338799  1.0000
  Al  Al3       1.0  0.44983005000000004  0.6082421200000001  0.4908072928223906  1.0000
  Al  Al4       1.0  0.10179254000000006  0.32755781  0.5217973586345601  1.0000
  Al  Al5       1.0  0.77336599  0.33939994000000007  0.496646826139565  1.0000
  Al  Al6       1.0  0.4499263100000001  0.3247263100000001  0.5111451834469602  1.0000
  Al  Al7       1.0  0.10179249000000004  0.88892652  0.5217973179629899  1.0000
  Al  Al8       1.0  0.7733659100000001  0.8770845600000001  0.49664680111090637  1.0000
  Al  Al9       1.0  0.44992641000000005  0.8917578800000001  0.511145170932631  1.0000
  Cu  Cu1       1.0  0.10145871000000005  0.10824220000000002  0.5024511128483072  1.0000
  Cu  Cu2       1.0  0.7834590400000001  0.10824218000000002  0.5150607700369721  1.0000
  Cu  Cu3       1.0  0.44983005000000004  0.10824212000000001  0.4908072928223906  1.0000
  Al  Al10      1.0  0.11649672000000005  0.6082421200000001  0.464735774520806  1.0000
  Al  Al11      1.0  0.7831633900000001  0.6082421200000001  0.4777715352358894  1.0000
  Al  Al12      1.0  0.44983005000000004  0.6082421200000001  0.45170001380572244  1.0000
  Al  Al13      1.0  0.11649672000000005  0.33246549000000003  0.48428941402914005  1.0000
  Al  Al14      1.0  0.7831633900000001  0.33246549000000003  0.4582178957275554  1.0000
  Al  Al15      1.0  0.44983005000000004  0.33246549000000003  0.47125365331405655  1.0000
  Al  Al16      1.0  0.11649672000000005  0.8840187500000001  0.48428941402914005  1.0000
  Al  Al17      1.0  0.7831633900000001  0.8840187500000001  0.4582178957275554  1.0000
  Al  Al18      1.0  0.44983005000000004  0.8840187500000001  0.47125365331405655  1.0000
  Cu  Cu4       1.0  0.11649672000000005  0.10824212000000001  0.464735774520806  1.0000
  Cu  Cu5       1.0  0.7831633900000001  0.10824212000000001  0.4777715352358894  1.0000
  Cu  Cu6       1.0  0.44983005000000004  0.10824212000000001  0.45170001380572244  1.0000
