data_image0
_chemical_formula_structural       CONi6Si12
_chemical_formula_sum              "C1 O1 Ni6 Si12"
_cell_length_a       5.47670287
_cell_length_b       6.707563751139572
_cell_length_c       99.49294755
_cell_angle_alpha    94.34775318824066
_cell_angle_beta     90.0
_cell_angle_gamma    114.09484250925348

_space_group_name_H-M_alt    "P 1"
_space_group_IT_number       1

loop_
  _space_group_symop_operation_xyz
  'x, y, z'

loop_
  _atom_site_type_symbol
  _atom_site_label
  _atom_site_symmetry_multiplicity
  _atom_site_fract_x
  _atom_site_fract_y
  _atom_site_fract_z
  _atom_site_occupancy
  C   C1        1.0  0.994020345  0.9370351100000002  0.5319754181693055  1.0000
  O   O1        1.0  0.02510995499999985  0.98744885  0.543518519217716  1.0000
  Ni  Ni1       1.0  0.23754027499999988  0.4332676000000001  0.4981872779395136  1.0000
  Ni  Ni2       1.0  0.8184796549999999  0.5958844800000002  0.47500851478083583  1.0000
  Ni  Ni3       1.0  0.6730395749999999  0.3024711500000001  0.5219770952870434  1.0000
  Ni  Ni4       1.0  0.5268129949999999  0.012551149999999955  0.487359871767979  1.0000
  Ni  Ni5       1.0  0.11014632499999985  0.17921782000000008  0.4626571577936928  1.0000
  Ni  Ni6       1.0  0.949003195  0.8573480700000001  0.5139424749707286  1.0000
  Si  Si1       1.0  0.9226463249999997  0.30421782  0.48118419179224475  1.0000
  Si  Si2       1.0  0.5059796549999999  0.4708844800000001  0.45648148078228384  1.0000
  Si  Si3       1.0  0.33954425499999985  0.14780760000000007  0.506066591317388  1.0000
  Si  Si4       1.0  0.4226463249999998  0.30421782  0.48118419179224475  1.0000
  Si  Si5       1.0  0.005979654999999973  0.4708844800000001  0.45648148078228384  1.0000
  Si  Si6       1.0  0.849959865  0.14774900000000005  0.5059973861756711  1.0000
  Si  Si7       1.0  0.21431299499999987  0.8875511500000001  0.4688328377694271  1.0000
  Si  Si8       1.0  0.08014728499999983  0.55847384  0.5180985214881181  1.0000
  Si  Si9       1.0  0.6418787049999999  0.7267329299999999  0.4941264633412022  1.0000
  Si  Si10      1.0  0.7143129949999999  0.8875511500000001  0.4688328377694271  1.0000
  Si  Si11      1.0  0.5209447749999998  0.55822133  0.5181145110595402  1.0000
  Si  Si12      1.0  0.12571838499999993  0.7267673000000001  0.49415419164136576  1.0000
