data_image0
_chemical_formula_structural       COAg16
_chemical_formula_sum              "C1 O1 Ag16"
_cell_length_a       5.95441928
_cell_length_b       5.95441928
_cell_length_c       99.47287175
_cell_angle_alpha    90.0
_cell_angle_beta     90.0
_cell_angle_gamma    90.0

_space_group_name_H-M_alt    "P 1"
_space_group_IT_number       1

loop_
  _space_group_symop_operation_xyz
  'x, y, z'

loop_
  _atom_site_type_symbol
  _atom_site_label
  _atom_site_symmetry_multiplicity
  _atom_site_fract_x
  _atom_site_fract_y
  _atom_site_fract_z
  _atom_site_occupancy
  C   C1        1.0  0.37500052999999994  0.12500018  0.5347505362597595  1.0000
  O   O1        1.0  0.37500081  0.12499980000000001  0.5464755710331074  1.0000
  Ag  Ag1       1.0  0.1255902  0.12500023  0.49573628567291156  1.0000
  Ag  Ag2       1.0  0.37499835000000004  0.38404828  0.5175159491045741  1.0000
  Ag  Ag3       1.0  0.125  0.1250002  0.4535244289668925  1.0000
  Ag  Ag4       1.0  0.375  0.3750002  0.47468803916391983  1.0000
  Ag  Ag5       1.0  0.12969893999999998  0.62500097  0.4959467823303188  1.0000
  Ag  Ag6       1.0  0.37499844000000004  0.86595546  0.5175158483657876  1.0000
  Ag  Ag7       1.0  0.125  0.6250002  0.4535244289668925  1.0000
  Ag  Ag8       1.0  0.375  0.8750002  0.47468803916391983  1.0000
  Ag  Ag9       1.0  0.62440938  0.12500022  0.4957362264148018  1.0000
  Ag  Ag10      1.0  0.8749989599999999  0.37808752  0.5162184127934378  1.0000
  Ag  Ag11      1.0  0.625  0.1250002  0.4535244289668925  1.0000
  Ag  Ag12      1.0  0.875  0.3750002  0.47468803916391983  1.0000
  Ag  Ag13      1.0  0.62029884  0.62500097  0.4959469275126876  1.0000
  Ag  Ag14      1.0  0.8749990400000001  0.8719146099999999  0.5162186527887823  1.0000
  Ag  Ag15      1.0  0.625  0.6250002  0.4535244289668925  1.0000
  Ag  Ag16      1.0  0.875  0.8750002  0.47468803916391983  1.0000
