data_image0
_chemical_formula_structural       COSn24Pd8
_chemical_formula_sum              "C1 O1 Sn24 Pd8"
_cell_length_a       6.62068719
_cell_length_b       6.64840361
_cell_length_c       122.82629131
_cell_angle_alpha    90.0
_cell_angle_beta     90.0
_cell_angle_gamma    90.0

_space_group_name_H-M_alt    "P 1"
_space_group_IT_number       1

loop_
  _space_group_symop_operation_xyz
  'x, y, z'

loop_
  _atom_site_type_symbol
  _atom_site_label
  _atom_site_symmetry_multiplicity
  _atom_site_fract_x
  _atom_site_fract_y
  _atom_site_fract_z
  _atom_site_occupancy
  C   C1        1.0  0.6084010449999999  0.62952123  0.568189313625496  1.0000
  O   O1        1.0  0.6306511450000001  0.6655568900000001  0.577383507700771  1.0000
  Sn  Sn1       1.0  0.921652255  0.42440783000000004  0.5423167025146891  1.0000
  Sn  Sn2       1.0  0.423958235  0.24771115000000005  0.5424301128001171  1.0000
  Sn  Sn3       1.0  0.744033655  0.92602627  0.5419144914686632  1.0000
  Sn  Sn4       1.0  0.241768165  0.74432951  0.5422773708350562  1.0000
  Sn  Sn5       1.0  0.24892169500000003  0.24423583000000004  0.49429806769473084  1.0000
  Sn  Sn6       1.0  0.24892169500000003  0.40371163  0.5178952389925329  1.0000
  Sn  Sn7       1.0  0.9077737950000001  0.7442358299999999  0.5178952389925329  1.0000
  Sn  Sn8       1.0  0.9077737950000001  0.9037116300000001  0.49429806769473084  1.0000
  Sn  Sn9       1.0  0.40777379500000005  0.9037116300000001  0.5178952389925329  1.0000
  Sn  Sn10      1.0  0.40777379500000005  0.7442358299999999  0.49429806769473084  1.0000
  Sn  Sn11      1.0  0.7489216949999999  0.40371163  0.49429806769473084  1.0000
  Sn  Sn12      1.0  0.7489216949999999  0.24423583000000004  0.5178952389925329  1.0000
  Sn  Sn13      1.0  0.418163425  0.41183098  0.4702558656458809  1.0000
  Sn  Sn14      1.0  0.9181634249999998  0.23611648000000002  0.4702558656458809  1.0000
  Sn  Sn15      1.0  0.23853206500000002  0.9118309800000001  0.4702558656458809  1.0000
  Sn  Sn16      1.0  0.7385320650000001  0.7361164800000001  0.4702558656458809  1.0000
  Sn  Sn17      1.0  0.7489216949999999  0.24423583000000004  0.422616492299229  1.0000
  Sn  Sn18      1.0  0.7489216949999999  0.40371163  0.4462136678979255  1.0000
  Sn  Sn19      1.0  0.40777379500000005  0.7442358299999999  0.4462136678979255  1.0000
  Sn  Sn20      1.0  0.40777379500000005  0.9037116300000001  0.422616492299229  1.0000
  Sn  Sn21      1.0  0.9077737950000001  0.9037116300000001  0.4462136678979255  1.0000
  Sn  Sn22      1.0  0.9077737950000001  0.7442358299999999  0.422616492299229  1.0000
  Sn  Sn23      1.0  0.24892169500000003  0.40371163  0.422616492299229  1.0000
  Sn  Sn24      1.0  0.24892169500000003  0.24423583000000004  0.4462136678979255  1.0000
  Pd  Pd1       1.0  0.578347745  0.07397373000000003  0.4824652619792361  1.0000
  Pd  Pd2       1.0  0.5788899249999999  0.5757503900000001  0.5296023424662964  1.0000
  Pd  Pd3       1.0  0.07880411500000002  0.07439424000000003  0.528147827277301  1.0000
  Pd  Pd4       1.0  0.07834774500000002  0.5739737300000001  0.4824652619792361  1.0000
  Pd  Pd5       1.0  0.08392911500000003  0.08722372000000003  0.5511888370126793  1.0000
  Pd  Pd6       1.0  0.07834774500000002  0.5739737300000001  0.4580464736134201  1.0000
  Pd  Pd7       1.0  0.578347745  0.07397373000000003  0.4580464736134201  1.0000
  Pd  Pd8       1.0  0.586237375  0.5939607200000001  0.5526073193080755  1.0000
