data_image0
_chemical_formula_structural       COAg8As8Se8Ag8As8Se8
_chemical_formula_sum              "C1 O1 Ag16 As16 Se16"
_cell_length_a       25.718643390176116
_cell_length_b       6.34886608
_cell_length_c       98.76947724
_cell_angle_alpha    90.0
_cell_angle_beta     80.8045179748605
_cell_angle_gamma    90.0

_space_group_name_H-M_alt    "P 1"
_space_group_IT_number       1

loop_
  _space_group_symop_operation_xyz
  'x, y, z'

loop_
  _atom_site_type_symbol
  _atom_site_label
  _atom_site_symmetry_multiplicity
  _atom_site_fract_x
  _atom_site_fract_y
  _atom_site_fract_z
  _atom_site_occupancy
  C   C1        1.0  0.5622488699999999  0.7171491200000002  0.545313280618992  1.0000
  O   O1        1.0  0.57718503  0.7032634100000001  0.5556386706480408  1.0000
  Ag  Ag1       1.0  0.32903822999999993  0.42997199999999997  0.489797676816306  1.0000
  Ag  Ag2       1.0  0.8385803  0.36797838  0.5048154059432751  1.0000
  Ag  Ag3       1.0  0.08033099000000002  0.07002799999999999  0.501143676515704  1.0000
  Ag  Ag4       1.0  0.59761588  0.22116343000000002  0.5114505149835156  1.0000
  Ag  Ag5       1.0  0.405692  0.8885367600000001  0.5034084583353002  1.0000
  Ag  Ag6       1.0  0.9209617699999999  0.9299720000000001  0.4859726210216473  1.0000
  Ag  Ag7       1.0  0.16216007999999998  0.66165647  0.5111145974454849  1.0000
  Ag  Ag8       1.0  0.67049478  0.57840707  0.49725610059066344  1.0000
  As  As1       1.0  0.006752880000000011  0.38604573999999997  0.5037480576402337  1.0000
  As  As2       1.0  0.50164449  0.30238864000000004  0.5101983413993932  1.0000
  As  As3       1.0  0.25532003  0.13682557999999997  0.4928651857683821  1.0000
  As  As4       1.0  0.76050906  0.10866319999999999  0.5130059304244056  1.0000
  As  As5       1.0  0.24310331999999998  0.9041474500000002  0.5133762188876367  1.0000
  As  As6       1.0  0.7450877399999999  0.88383197  0.4938974990300408  1.0000
  As  As7       1.0  0.49540019999999996  0.6607020100000001  0.5027537795939366  1.0000
  As  As8       1.0  0.98941081  0.6509120800000001  0.5223681044026101  1.0000
  Se  Se1       1.0  0.16965563999999997  0.30662998  0.49702737664740476  1.0000
  Se  Se2       1.0  0.68542014  0.33128165  0.518531918836325  1.0000
  Se  Se3       1.0  0.41998058999999993  0.20649960000000003  0.48601344960287923  1.0000
  Se  Se4       1.0  0.9266788199999999  0.18046003000000002  0.5085706800214056  1.0000
  Se  Se5       1.0  0.06987406  0.81752238  0.5233564753102371  1.0000
  Se  Se6       1.0  0.58204074  0.8161043400000002  0.5007861344226998  1.0000
  Se  Se7       1.0  0.31880636999999995  0.6878322600000001  0.5122053587567265  1.0000
  Se  Se8       1.0  0.83001941  0.7064996  0.489756848235074  1.0000
  Ag  Ag9       1.0  0.32903822999999993  0.42997199999999997  0.4481863880594081  1.0000
  Ag  Ag10      1.0  0.82903823  0.42997199999999997  0.46899203243785703  1.0000
  Ag  Ag11      1.0  0.07903823000000001  0.08631387999999998  0.4585892087922374  1.0000
  Ag  Ag12      1.0  0.57903823  0.08631387999999998  0.47939485317068636  1.0000
  Ag  Ag13      1.0  0.42096176999999996  0.9299720000000001  0.46516697664319834  1.0000
  Ag  Ag14      1.0  0.9209617699999999  0.9299720000000001  0.4443613293519591  1.0000
  Ag  Ag15      1.0  0.17096177  0.5863138800000001  0.47556979737602767  1.0000
  Ag  Ag16      1.0  0.67096177  0.5863138800000001  0.4547641529975787  1.0000
  As  As9       1.0  0.00532003000000001  0.3794603  0.4616567206571037  1.0000
  As  As10      1.0  0.50532003  0.3794603  0.48246236503555273  1.0000
  As  As11      1.0  0.25532003  0.13682557999999997  0.4512538970114841  1.0000
  As  As12      1.0  0.75532003  0.13682557999999997  0.4720595413899331  1.0000
  As  As13      1.0  0.24467997  0.8794603000000001  0.47250228842395164  1.0000
  As  As14      1.0  0.74467997  0.8794603000000001  0.45169664404550275  1.0000
  As  As15      1.0  0.49467997  0.63682558  0.462099464778332  1.0000
  As  As16      1.0  0.9946799699999999  0.63682558  0.482905109156781  1.0000
  Se  Se9       1.0  0.16998058999999996  0.30978628  0.45480498157881066  1.0000
  Se  Se10      1.0  0.66998059  0.30978628  0.4756106259572596  1.0000
  Se  Se11      1.0  0.41998058999999993  0.20649960000000003  0.44440215793319104  1.0000
  Se  Se12      1.0  0.9199805899999999  0.20649960000000003  0.46520780231164005  1.0000
  Se  Se13      1.0  0.08001941  0.8097862800000001  0.4793540275022447  1.0000
  Se  Se14      1.0  0.58001941  0.8097862800000001  0.45854838312379576  1.0000
  Se  Se15      1.0  0.33001940999999996  0.7064996  0.4689512038566251  1.0000
  Se  Se16      1.0  0.83001941  0.7064996  0.44814555947817614  1.0000
