data_image0
_chemical_formula_structural       COCu4Ni8Sb4Cu4Ni8Sb4Cu4Ni8Sb4Cu4Ni8Sb4
_chemical_formula_sum              "C1 O1 Cu16 Ni32 Sb16"
_cell_length_a       8.55905702
_cell_length_b       8.55905702
_cell_length_c       106.31300358
_cell_angle_alpha    90.0
_cell_angle_beta     90.0
_cell_angle_gamma    90.0

_space_group_name_H-M_alt    "P 1"
_space_group_IT_number       1

loop_
  _space_group_symop_operation_xyz
  'x, y, z'

loop_
  _atom_site_type_symbol
  _atom_site_label
  _atom_site_symmetry_multiplicity
  _atom_site_fract_x
  _atom_site_fract_y
  _atom_site_fract_z
  _atom_site_occupancy
  C   C1        1.0  0.376521315  0.12152358500000005  0.553870402015986  1.0000
  O   O1        1.0  0.376522295  0.12152377500000004  0.5647767425898184  1.0000
  Cu  Cu1       1.0  0.37652165499999996  0.12152348500000003  0.4779191205186331  1.0000
  Cu  Cu2       1.0  0.12652165499999998  0.37152348500000004  0.4494552129182217  1.0000
  Cu  Cu3       1.0  0.376521335  0.12152322500000001  0.536241119602061  1.0000
  Cu  Cu4       1.0  0.12652165499999998  0.37152348500000004  0.5063830315347134  1.0000
  Ni  Ni1       1.0  0.37652165499999996  0.37152348500000004  0.4352232574101815  1.0000
  Ni  Ni2       1.0  0.12652165499999998  0.12152348500000003  0.4352232574101815  1.0000
  Ni  Ni3       1.0  0.12652165499999998  0.12152348500000003  0.4636871684262619  1.0000
  Ni  Ni4       1.0  0.37652165499999996  0.37152348500000004  0.4636871684262619  1.0000
  Ni  Ni5       1.0  0.37652165499999996  0.37152348500000004  0.49215107602667324  1.0000
  Ni  Ni6       1.0  0.12652165499999998  0.12152348500000003  0.49215107602667324  1.0000
  Ni  Ni7       1.0  0.133477215  0.12152260500000003  0.5208555696921972  1.0000
  Ni  Ni8       1.0  0.37652254499999993  0.364569945  0.5208556106802258  1.0000
  Sb  Sb1       1.0  0.37652165499999996  0.12152348500000003  0.4494552129182217  1.0000
  Sb  Sb2       1.0  0.12652165499999998  0.37152348500000004  0.4779191205186331  1.0000
  Sb  Sb3       1.0  0.37652165499999996  0.12152348500000003  0.5063830315347134  1.0000
  Sb  Sb4       1.0  0.12347531499999999  0.374548755  0.5353554707744298  1.0000
  Cu  Cu5       1.0  0.37652165499999996  0.621523485  0.4779191205186331  1.0000
  Cu  Cu6       1.0  0.12652165499999998  0.8715234850000001  0.4494552129182217  1.0000
  Cu  Cu7       1.0  0.37651916500000004  0.6215243950000001  0.5331783848048465  1.0000
  Cu  Cu8       1.0  0.12652165499999998  0.8715234850000001  0.5063830315347134  1.0000
  Ni  Ni9       1.0  0.37652165499999996  0.8715234850000001  0.4352232574101815  1.0000
  Ni  Ni10      1.0  0.12652165499999998  0.621523485  0.4352232574101815  1.0000
  Ni  Ni11      1.0  0.12652165499999998  0.621523485  0.4636871684262619  1.0000
  Ni  Ni12      1.0  0.37652165499999996  0.8715234850000001  0.4636871684262619  1.0000
  Ni  Ni13      1.0  0.37652165499999996  0.8715234850000001  0.49215107602667324  1.0000
  Ni  Ni14      1.0  0.12652165499999998  0.621523485  0.49215107602667324  1.0000
  Ni  Ni15      1.0  0.127262805  0.621523245  0.5203810820263003  1.0000
  Ni  Ni16      1.0  0.37652255500000004  0.878477395  0.5208554740534638  1.0000
  Sb  Sb5       1.0  0.37652165499999996  0.621523485  0.4494552129182217  1.0000
  Sb  Sb6       1.0  0.12652165499999998  0.8715234850000001  0.4779191205186331  1.0000
  Sb  Sb7       1.0  0.37652165499999996  0.621523485  0.5063830315347134  1.0000
  Sb  Sb8       1.0  0.123483495  0.868486105  0.5353560070344704  1.0000
  Cu  Cu9       1.0  0.8765216550000001  0.12152348500000003  0.4779191205186331  1.0000
  Cu  Cu10      1.0  0.626521655  0.37152348500000004  0.4494552129182217  1.0000
  Cu  Cu11      1.0  0.8765243550000001  0.12152391500000004  0.5331783335698108  1.0000
  Cu  Cu12      1.0  0.626521655  0.37152348500000004  0.5063830315347134  1.0000
  Ni  Ni17      1.0  0.8765216550000001  0.37152348500000004  0.4352232574101815  1.0000
  Ni  Ni18      1.0  0.626521655  0.12152348500000003  0.4352232574101815  1.0000
  Ni  Ni19      1.0  0.626521655  0.12152348500000003  0.4636871684262619  1.0000
  Ni  Ni20      1.0  0.8765216550000001  0.37152348500000004  0.4636871684262619  1.0000
  Ni  Ni21      1.0  0.8765216550000001  0.37152348500000004  0.49215107602667324  1.0000
  Ni  Ni22      1.0  0.626521655  0.12152348500000003  0.49215107602667324  1.0000
  Ni  Ni23      1.0  0.6195675350000001  0.12152365500000002  0.5208558156203686  1.0000
  Ni  Ni24      1.0  0.876518015  0.37078312500000005  0.5203810239599265  1.0000
  Sb  Sb9       1.0  0.8765216550000001  0.12152348500000003  0.4494552129182217  1.0000
  Sb  Sb10      1.0  0.626521655  0.37152348500000004  0.4779191205186331  1.0000
  Sb  Sb11      1.0  0.8765216550000001  0.12152348500000003  0.5063830315347134  1.0000
  Sb  Sb12      1.0  0.629545765  0.37456672500000004  0.5353564442401086  1.0000
  Cu  Cu13      1.0  0.8765216550000001  0.621523485  0.4779191205186331  1.0000
  Cu  Cu14      1.0  0.626521655  0.8715234850000001  0.4494552129182217  1.0000
  Cu  Cu15      1.0  0.876524685  0.621523475  0.533299111627372  1.0000
  Cu  Cu16      1.0  0.626521655  0.8715234850000001  0.5063830315347134  1.0000
  Ni  Ni25      1.0  0.8765216550000001  0.8715234850000001  0.4352232574101815  1.0000
  Ni  Ni26      1.0  0.626521655  0.621523485  0.4352232574101815  1.0000
  Ni  Ni27      1.0  0.626521655  0.621523485  0.4636871684262619  1.0000
  Ni  Ni28      1.0  0.8765216550000001  0.8715234850000001  0.4636871684262619  1.0000
  Ni  Ni29      1.0  0.8765216550000001  0.8715234850000001  0.49215107602667324  1.0000
  Ni  Ni30      1.0  0.626521655  0.621523485  0.49215107602667324  1.0000
  Ni  Ni31      1.0  0.6257808950000001  0.621523545  0.5203811776650337  1.0000
  Ni  Ni32      1.0  0.876518935  0.872264245  0.5203811640023575  1.0000
  Sb  Sb13      1.0  0.8765216550000001  0.621523485  0.4494552129182217  1.0000
  Sb  Sb14      1.0  0.626521655  0.8715234850000001  0.4779191205186331  1.0000
  Sb  Sb15      1.0  0.8765216550000001  0.621523485  0.5063830315347134  1.0000
  Sb  Sb16      1.0  0.629545645  0.8684806350000001  0.5353564271617635  1.0000
