data_image0
_chemical_formula_structural       COAs8Sn4Zn4
_chemical_formula_sum              "C1 O1 As8 Sn4 Zn4"
_cell_length_a       7.371529231121606
_cell_length_b       6.00615414
_cell_length_c       102.35826305
_cell_angle_alpha    90.0
_cell_angle_beta     85.77345253278304
_cell_angle_gamma    114.04089678413428

_space_group_name_H-M_alt    "P 1"
_space_group_IT_number       1

loop_
  _space_group_symop_operation_xyz
  'x, y, z'

loop_
  _atom_site_type_symbol
  _atom_site_label
  _atom_site_symmetry_multiplicity
  _atom_site_fract_x
  _atom_site_fract_y
  _atom_site_fract_z
  _atom_site_occupancy
  C   C1        1.0  0.08210359500000003  0.17808319  0.5573137646380512  1.0000
  O   O1        1.0  0.21362918500000003  0.2657849  0.5636893768847552  1.0000
  As  As1       1.0  0.8883383850000001  0.20402974999999995  0.5091217503002264  1.0000
  As  As2       1.0  0.20688354500000006  0.7658323400000001  0.5322075087784359  1.0000
  As  As3       1.0  0.316428485  0.94279728  0.496826435421072  1.0000
  As  As4       1.0  0.4091440150000001  0.55569257  0.5213468848716748  1.0000
  As  As5       1.0  0.5585715150000001  0.04029788000000003  0.4560685926270672  1.0000
  As  As6       1.0  0.725238185  0.67077303  0.4824125509224054  1.0000
  As  As7       1.0  0.983095155  0.7761306099999999  0.44413851566912055  1.0000
  As  As8       1.0  0.13404787500000004  0.35160697  0.4679986695850139  1.0000
  Sn  Sn1       1.0  0.830059885  0.5248615000000001  0.5263891060459914  1.0000
  Sn  Sn2       1.0  0.016904845000000033  0.5430354599999999  0.48899854286719624  1.0000
  Sn  Sn3       1.0  0.4335715150000001  0.25136879  0.47582656213888963  1.0000
  Sn  Sn4       1.0  0.683571515  0.37636879  0.4363106231152448  1.0000
  Zn  Zn1       1.0  0.6002381850000001  0.8347021200000001  0.5021705204342278  1.0000
  Zn  Zn2       1.0  0.18526220500000004  0.11406147000000001  0.5160578155294653  1.0000
  Zn  Zn3       1.0  0.266904845  0.6680354600000001  0.4494826038435515  1.0000
  Zn  Zn4       1.0  0.8502381850000001  0.9597021200000001  0.46265458141058297  1.0000
