data_image0
_chemical_formula_structural       COCu6Se6Cu6Se6Cu6Se6Cu6Se6
_chemical_formula_sum              "C1 O1 Cu24 Se24"
_cell_length_a       8.14232656
_cell_length_b       8.18636587930673
_cell_length_c       123.1198948
_cell_angle_alpha    90.0
_cell_angle_beta     90.0
_cell_angle_gamma    119.82220346926965

_space_group_name_H-M_alt    "P 1"
_space_group_IT_number       1

loop_
  _space_group_symop_operation_xyz
  'x, y, z'

loop_
  _atom_site_type_symbol
  _atom_site_label
  _atom_site_symmetry_multiplicity
  _atom_site_fract_x
  _atom_site_fract_y
  _atom_site_fract_z
  _atom_site_occupancy
  C   C1        1.0  0.206377965  0.40308185  0.5777450816099372  1.0000
  O   O1        1.0  0.15027948499999996  0.28858705999999995  0.5843294000181348  1.0000
  Cu  Cu1       1.0  0.33527309499999997  0.16070198999999996  0.4156705999818652  1.0000
  Cu  Cu2       1.0  0.17578299499999997  0.34172178999999997  0.5284473955193588  1.0000
  Cu  Cu3       1.0  0.17578299499999997  0.34172178999999997  0.48757868161439893  1.0000
  Cu  Cu4       1.0  0.33527309499999997  0.16070198999999996  0.45653930957233996  1.0000
  Cu  Cu5       1.0  0.3223284349999999  0.13481265999999997  0.5080130407241213  1.0000
  Cu  Cu6       1.0  0.18872765499999994  0.36761111999999996  0.43610495477710254  1.0000
  Se  Se1       1.0  0.15652052499999997  0.3031968399999999  0.5080130407241213  1.0000
  Se  Se2       1.0  0.354535565  0.19922693999999996  0.43610495477710254  1.0000
  Se  Se3       1.0  0.008929224999999973  0.008014239999999959  0.48206459711485694  1.0000
  Se  Se4       1.0  0.9956147249999999  0.9818521499999999  0.5538391066040921  1.0000
  Se  Se5       1.0  0.007575924999999972  0.0055904599999999595  0.5352117444460945  1.0000
  Se  Se6       1.0  0.502126865  0.4944095399999999  0.4620533983863671  1.0000
  Cu  Cu7       1.0  0.3352730949999999  0.6607019899999999  0.4156705999818652  1.0000
  Cu  Cu8       1.0  0.17578299499999994  0.8417217899999999  0.5284473955193588  1.0000
  Cu  Cu9       1.0  0.17578299499999994  0.8417217899999999  0.48757868161439893  1.0000
  Cu  Cu10      1.0  0.3352730949999999  0.6607019899999999  0.45653930957233996  1.0000
  Cu  Cu11      1.0  0.3223284349999999  0.6348126599999999  0.5080130407241213  1.0000
  Cu  Cu12      1.0  0.188727655  0.8676111199999998  0.43610495477710254  1.0000
  Se  Se7       1.0  0.15652052500000002  0.8031968399999999  0.5080130407241213  1.0000
  Se  Se8       1.0  0.35453556499999994  0.6992269399999999  0.43610495477710254  1.0000
  Se  Se9       1.0  0.008929224999999994  0.50801424  0.48206459711485694  1.0000
  Se  Se10      1.0  0.9177205549999998  0.5159242299999999  0.5535396899691674  1.0000
  Se  Se11      1.0  0.997873135  0.51301085  0.5351763915554267  1.0000
  Se  Se12      1.0  0.502126865  0.9944095399999999  0.4620533983863671  1.0000
  Cu  Cu13      1.0  0.835273095  0.16070198999999996  0.4156705999818652  1.0000
  Cu  Cu14      1.0  0.6757829949999999  0.34172178999999997  0.5284473955193588  1.0000
  Cu  Cu15      1.0  0.6757829949999999  0.34172178999999997  0.48757868161439893  1.0000
  Cu  Cu16      1.0  0.835273095  0.16070198999999996  0.45653930957233996  1.0000
  Cu  Cu17      1.0  0.822328435  0.13481265999999997  0.5080130407241213  1.0000
  Cu  Cu18      1.0  0.6887276549999999  0.36761111999999996  0.43610495477710254  1.0000
  Se  Se13      1.0  0.656520525  0.3031968399999999  0.5080130407241213  1.0000
  Se  Se14      1.0  0.8545355649999999  0.19922693999999996  0.43610495477710254  1.0000
  Se  Se15      1.0  0.5089292249999998  0.008014239999999959  0.48206459711485694  1.0000
  Se  Se16      1.0  0.524281635  0.03491551999999996  0.5535484354304053  1.0000
  Se  Se17      1.0  0.5114232249999999  0.012600209999999959  0.5348434427425338  1.0000
  Se  Se18      1.0  0.0021268649999997002  0.4944095399999999  0.4620533983863671  1.0000
  Cu  Cu19      1.0  0.8352730949999999  0.6607019899999999  0.4156705999818652  1.0000
  Cu  Cu20      1.0  0.6757829949999999  0.8417217899999999  0.5284473955193588  1.0000
  Cu  Cu21      1.0  0.6757829949999999  0.8417217899999999  0.48757868161439893  1.0000
  Cu  Cu22      1.0  0.8352730949999999  0.6607019899999999  0.45653930957233996  1.0000
  Cu  Cu23      1.0  0.822328435  0.6348126599999999  0.5080130407241213  1.0000
  Cu  Cu24      1.0  0.688727655  0.8676111199999998  0.43610495477710254  1.0000
  Se  Se19      1.0  0.656520525  0.8031968399999999  0.5080130407241213  1.0000
  Se  Se20      1.0  0.8545355649999999  0.6992269399999999  0.43610495477710254  1.0000
  Se  Se21      1.0  0.5089292249999999  0.50801424  0.48206459711485694  1.0000
  Se  Se22      1.0  0.6021669049999999  0.50865706  0.5535638208841668  1.0000
  Se  Se23      1.0  0.524280595  0.51211268  0.5351583483788617  1.0000
  Se  Se24      1.0  0.0021268649999997002  0.9944095399999999  0.4620533983863671  1.0000
