data_image0
_chemical_formula_structural       Sb4Os2Sb4Os2Sb4Os2CO
_chemical_formula_sum              "Sb12 Os6 C1 O1"
_cell_length_a       6.04228519
_cell_length_b       7.539383903940908
_cell_length_c       37.3087844
_cell_angle_alpha    64.30337991188962
_cell_angle_beta     90.0
_cell_angle_gamma    90.0

_space_group_name_H-M_alt    "P 1"
_space_group_IT_number       1

loop_
  _space_group_symop_operation_xyz
  'x, y, z'

loop_
  _atom_site_type_symbol
  _atom_site_label
  _atom_site_symmetry_multiplicity
  _atom_site_fract_x
  _atom_site_fract_y
  _atom_site_fract_z
  _atom_site_occupancy
  Sb  Sb1       1.0  0.29684874999999994  0.89300878  0.5829632604424878  1.0000
  Sb  Sb2       1.0  0.7305698099999999  0.15325441999999997  0.555362879089979  1.0000
  Sb  Sb3       1.0  0.31002222999999995  0.46891544999999996  0.5869552236289054  1.0000
  Sb  Sb4       1.0  0.8840780199999998  0.65873778  0.550867940213506  1.0000
  Os  Os1       1.0  0.55161695  0.5204551  0.5214915995592991  1.0000
  Os  Os2       1.0  0.03791389  0.02460814  0.5189603618251422  1.0000
  Sb  Sb5       1.0  0.36385986  0.88431251  0.49004414026888443  1.0000
  Sb  Sb6       1.0  0.72759334  0.16902705  0.46509649522058794  1.0000
  Sb  Sb7       1.0  0.22759333999999998  0.38431251  0.49004414026888443  1.0000
  Sb  Sb8       1.0  0.8638598599999999  0.6690270500000001  0.46509649522058794  1.0000
  Os  Os3       1.0  0.5457266  0.52666978  0.4337586352460718  1.0000
  Os  Os4       1.0  0.0457266  0.02666978  0.43375863524607183  1.0000
  Sb  Sb9       1.0  0.36385986  0.88431251  0.40242076650921826  1.0000
  Sb  Sb10      1.0  0.72759334  0.16902705  0.3774731214609219  1.0000
  Sb  Sb11      1.0  0.22759333999999998  0.38431251  0.4024207665092183  1.0000
  Sb  Sb12      1.0  0.8638598599999999  0.6690270500000001  0.3774731214609219  1.0000
  Os  Os5       1.0  0.5457266  0.52666978  0.3461352614864057  1.0000
  Os  Os6       1.0  0.0457266  0.02666978  0.34613526148640567  1.0000
  C   C1        1.0  0.9620861099999999  0.97539186  0.62040547284867  1.0000
  O   O1        1.0  0.90765683  0.8996636200000001  0.6538647385135945  1.0000
