data_image0
_chemical_formula_structural       COCu8Sn4Se16
_chemical_formula_sum              "C1 O1 Cu8 Sn4 Se16"
_cell_length_a       8.07043189
_cell_length_b       12.257531342805827
_cell_length_c       102.28172757
_cell_angle_alpha    109.22040728790655
_cell_angle_beta     90.0
_cell_angle_gamma    70.77959271209345

_space_group_name_H-M_alt    "P 1"
_space_group_IT_number       1

loop_
  _space_group_symop_operation_xyz
  'x, y, z'

loop_
  _atom_site_type_symbol
  _atom_site_label
  _atom_site_symmetry_multiplicity
  _atom_site_fract_x
  _atom_site_fract_y
  _atom_site_fract_z
  _atom_site_occupancy
  C   C1        1.0  0.04508648999999991  0.363154305  0.5370851243958128  1.0000
  O   O1        1.0  0.020527159999999933  0.393198665  0.5490845208632206  1.0000
  Cu  Cu1       1.0  0.9091613399999997  0.779113935  0.49418529522347354  1.0000
  Cu  Cu2       1.0  0.40745158999999986  0.772698145  0.45342906848468856  1.0000
  Cu  Cu3       1.0  0.40068073999999987  0.777738075  0.4938495210600346  1.0000
  Cu  Cu4       1.0  0.9074515899999998  0.772698145  0.45342906848468856  1.0000
  Cu  Cu5       1.0  0.65745159  0.272698145  0.47315505494443216  1.0000
  Cu  Cu6       1.0  0.1213368499999999  0.280877285  0.5178137319734681  1.0000
  Cu  Cu7       1.0  0.15745158999999992  0.272698145  0.47315505494443216  1.0000
  Cu  Cu8       1.0  0.6782766399999999  0.236133855  0.5097397468445503  1.0000
  Sn  Sn1       1.0  0.7824515899999999  0.522698145  0.4632920617145604  1.0000
  Sn  Sn2       1.0  0.23775957999999986  0.600698945  0.5090749116653847  1.0000
  Sn  Sn3       1.0  0.03245158999999993  0.02269814499999999  0.4830180481743039  1.0000
  Sn  Sn4       1.0  0.5563761699999996  0.9773018550000001  0.5194737100298705  1.0000
  Se  Se1       1.0  0.8831631199999999  0.874157635  0.519506089053085  1.0000
  Se  Se2       1.0  0.3755952399999999  0.8944867850000001  0.4779598570716133  1.0000
  Se  Se3       1.0  0.7810884400000001  0.519521915  0.5087832984623529  1.0000
  Se  Se4       1.0  0.2183459099999999  0.6509095050000001  0.4857850296538802  1.0000
  Se  Se5       1.0  0.7183459099999999  0.6509095050000001  0.4903674520562667  1.0000
  Se  Se6       1.0  0.2183459099999999  0.6509095050000001  0.45091547913677954  1.0000
  Se  Se7       1.0  0.3301676599999999  0.874556175  0.5192069042274107  1.0000
  Se  Se8       1.0  0.8175192999999998  0.8944867850000001  0.4779598570716133  1.0000
  Se  Se9       1.0  0.5998001099999998  0.39066217500000006  0.4992793876215208  1.0000
  Se  Se10      1.0  0.12559523999999989  0.394486785  0.4582338706118698  1.0000
  Se  Se11      1.0  0.9683459099999999  0.150909505  0.4660590431941367  1.0000
  Se  Se12      1.0  0.44691151999999984  0.200030455  0.5198551317040562  1.0000
  Se  Se13      1.0  0.9794728399999999  0.125999695  0.509772349954971  1.0000
  Se  Se14      1.0  0.46834591  0.150909505  0.4706414655965231  1.0000
  Se  Se15      1.0  0.08795127999999994  0.391654145  0.5007066558485394  1.0000
  Se  Se16      1.0  0.5675193  0.394486785  0.4582338706118698  1.0000
