data_image0
_chemical_formula_structural       COCu4Ge2Se8
_chemical_formula_sum              "C1 O1 Cu4 Ge2 Se8"
_cell_length_a       6.61660515
_cell_length_b       6.616605149614328
_cell_length_c       102.35199058
_cell_angle_alpha    90.0
_cell_angle_beta     90.0
_cell_angle_gamma    104.64889422323502

_space_group_name_H-M_alt    "P 1"
_space_group_IT_number       1

loop_
  _space_group_symop_operation_xyz
  'x, y, z'

loop_
  _atom_site_type_symbol
  _atom_site_label
  _atom_site_symmetry_multiplicity
  _atom_site_fract_x
  _atom_site_fract_y
  _atom_site_fract_z
  _atom_site_occupancy
  C   C1        1.0  0.625324515  0.45294965499999995  0.5378638184283417  1.0000
  O   O1        1.0  0.662825825  0.4164065049999999  0.5484231352594681  1.0000
  Cu  Cu1       1.0  0.519601235  0.05961302499999997  0.4521777150226314  1.0000
  Cu  Cu2       1.0  0.01938954500000002  0.550239995  0.4925752345471703  1.0000
  Cu  Cu3       1.0  0.019601234999999995  0.559613025  0.4521777150226314  1.0000
  Cu  Cu4       1.0  0.5289154550000001  0.059997924999999966  0.4925800738177401  1.0000
  Ge  Ge1       1.0  0.519601235  0.559613025  0.47193306516083483  1.0000
  Ge  Ge2       1.0  0.980610455  0.09757534499999997  0.5061236717710157  1.0000
  Se  Se1       1.0  0.139798355  0.435515535  0.5127473435518892  1.0000
  Se  Se2       1.0  0.654034555  0.940386975  0.47193306516083483  1.0000
  Se  Se3       1.0  0.640949545  0.438513215  0.4919398266261811  1.0000
  Se  Se4       1.0  0.14277155500000002  0.9364427049999999  0.4527785621438748  1.0000
  Se  Se5       1.0  0.642771555  0.436442705  0.451576864740532  1.0000
  Se  Se6       1.0  0.14678584500000003  0.932477095  0.4901937413118619  1.0000
  Se  Se7       1.0  0.6433184050000001  0.9378532749999998  0.5126978319031589  1.0000
  Se  Se8       1.0  0.138827285  0.4251797049999999  0.47193306516083483  1.0000
