data_image0
_chemical_formula_structural       COCu4Ge2Se8Zn2
_chemical_formula_sum              "C1 O1 Cu4 Ge2 Se8 Zn2"
_cell_length_a       7.017163573288725
_cell_length_b       7.01716357
_cell_length_c       102.43920169
_cell_angle_alpha    90.0
_cell_angle_beta     90.0
_cell_angle_gamma    109.40042542762137

_space_group_name_H-M_alt    "P 1"
_space_group_IT_number       1

loop_
  _space_group_symop_operation_xyz
  'x, y, z'

loop_
  _atom_site_type_symbol
  _atom_site_label
  _atom_site_symmetry_multiplicity
  _atom_site_fract_x
  _atom_site_fract_y
  _atom_site_fract_z
  _atom_site_occupancy
  C   C1        1.0  0.5077655449999999  0.9655711699999999  0.535569874514024  1.0000
  O   O1        1.0  0.5079987149999999  0.03442882999999992  0.5457294182915042  1.0000
  Cu  Cu1       1.0  0.5858803850000001  0.7261924199999998  0.5093562397772782  1.0000
  Cu  Cu2       1.0  0.06068662500000001  0.25552653  0.4740623222939061  1.0000
  Cu  Cu3       1.0  0.10522035500000002  0.23709212999999993  0.5086857589398143  1.0000
  Cu  Cu4       1.0  0.5606866250000001  0.75552653  0.4740623222939061  1.0000
  Ge  Ge1       1.0  0.5606866250000001  0.25552653  0.4542705817084958  1.0000
  Ge  Ge2       1.0  0.06132848500000002  0.75895813  0.494246192677187  1.0000
  Se  Se1       1.0  0.9363276850000001  0.37104097  0.4542705817084958  1.0000
  Se  Se2       1.0  0.43606874500000004  0.8853049  0.4935698439844744  1.0000
  Se  Se3       1.0  0.9306233150000001  0.88558984  0.4744124176014518  1.0000
  Se  Se4       1.0  0.43837588499999997  0.3874757399999999  0.5159015900563678  1.0000
  Se  Se5       1.0  0.9393133750000001  0.8861149300000001  0.513285612786143  1.0000
  Se  Se6       1.0  0.430623315  0.3855898399999999  0.47371222698636045  1.0000
  Se  Se7       1.0  0.445172185  0.87988547  0.4542705817084958  1.0000
  Se  Se8       1.0  0.9344866550000002  0.38390866999999995  0.49361350614754507  1.0000
  Zn  Zn1       1.0  0.5454328450000001  0.27490702999999994  0.4957785800670567  1.0000
  Zn  Zn2       1.0  0.06068662500000001  0.75552653  0.4542705817084958  1.0000
