data_image0
_chemical_formula_structural       COCu4Ga4Se8
_chemical_formula_sum              "C1 O1 Cu4 Ga4 Se8"
_cell_length_a       7.00598843
_cell_length_b       7.005988433442495
_cell_length_c       102.51503083
_cell_angle_alpha    90.0
_cell_angle_beta     90.0
_cell_angle_gamma    109.08073135500516

_space_group_name_H-M_alt    "P 1"
_space_group_IT_number       1

loop_
  _space_group_symop_operation_xyz
  'x, y, z'

loop_
  _atom_site_type_symbol
  _atom_site_label
  _atom_site_symmetry_multiplicity
  _atom_site_fract_x
  _atom_site_fract_y
  _atom_site_fract_z
  _atom_site_occupancy
  C   C1        1.0  0.669825595  0.35923313  0.5383188864957881  1.0000
  O   O1        1.0  0.7619077049999999  0.31966418999999996  0.5465144892037983  1.0000
  Cu  Cu1       1.0  0.02407479500000008  0.5132929900000001  0.4537186839208786  1.0000
  Cu  Cu2       1.0  0.529931165  0.98670701  0.4957676331150342  1.0000
  Cu  Cu3       1.0  0.9804975149999998  0.035681029999999975  0.5083003047867237  1.0000
  Cu  Cu4       1.0  0.5240747950000001  0.5132929900000001  0.4735420152940601  1.0000
  Ga  Ga1       1.0  0.524074795  0.013292989999999975  0.4537186839208786  1.0000
  Ga  Ga2       1.0  0.019502485000000073  0.50885442  0.49315522252641886  1.0000
  Ga  Ga3       1.0  0.024074795000000034  0.013292989999999975  0.4735420152940601  1.0000
  Ga  Ga4       1.0  0.506397045  0.55551752  0.508043172390816  1.0000
  Se  Se1       1.0  0.15561282500000012  0.8853900100000001  0.49338136709072405  1.0000
  Se  Se2       1.0  0.652015435  0.39123362999999994  0.4539518570455556  1.0000
  Se  Se3       1.0  0.14488165500000003  0.39139653  0.5131166955595406  1.0000
  Se  Se4       1.0  0.646134155  0.88535235  0.473775188418737  1.0000
  Se  Se5       1.0  0.6467812250000001  0.88763959  0.5161852235585214  1.0000
  Se  Se6       1.0  0.152015435  0.39123362999999994  0.4733088421693831  1.0000
  Se  Se7       1.0  0.1461341550000001  0.88535235  0.4534855107962017  1.0000
  Se  Se8       1.0  0.6447241050000001  0.36746197  0.4928777783522528  1.0000
