data_image0
_chemical_formula_structural       COSb5Rh15Sb5Rh15
_chemical_formula_sum              "C1 O1 Sb10 Rh30"
_cell_length_a       8.893297343519931
_cell_length_b       5.6246151
_cell_length_c       111.332311
_cell_angle_alpha    90.0
_cell_angle_beta     104.96321743138505
_cell_angle_gamma    71.56505118702547

_space_group_name_H-M_alt    "P 1"
_space_group_IT_number       1

loop_
  _space_group_symop_operation_xyz
  'x, y, z'

loop_
  _atom_site_type_symbol
  _atom_site_label
  _atom_site_symmetry_multiplicity
  _atom_site_fract_x
  _atom_site_fract_y
  _atom_site_fract_z
  _atom_site_occupancy
  C   C1        1.0  0.49210133500000003  0.7806205  0.5593063582888019  1.0000
  O   O1        1.0  0.461686545  0.7989056699999999  0.5689839697024258  1.0000
  Sb  Sb1       1.0  0.545289155  0.25150638999999997  0.5417337525293886  1.0000
  Sb  Sb2       1.0  0.9550679950000001  0.047884689999999924  0.5303470021866634  1.0000
  Sb  Sb3       1.0  0.14493200499999997  0.4521153100000001  0.49289131677909137  1.0000
  Sb  Sb4       1.0  0.3449320049999999  0.85211531  0.5176414321142017  1.0000
  Sb  Sb5       1.0  0.7449320049999999  0.65211531  0.505266372590388  1.0000
  Rh  Rh1       1.0  0.3449320049999999  0.35211531000000007  0.5176414321142017  1.0000
  Rh  Rh2       1.0  0.7449320049999999  0.15211531000000003  0.505266372590388  1.0000
  Rh  Rh3       1.0  0.943142085  0.5532662099999999  0.5297418804595625  1.0000
  Rh  Rh4       1.0  0.14493200499999997  0.95211531  0.49289131677909137  1.0000
  Rh  Rh5       1.0  0.5438662750000001  0.7525251  0.5441806354344771  1.0000
  Rh  Rh6       1.0  0.6426050949999998  0.9507422  0.5236644082675191  1.0000
  Rh  Rh7       1.0  0.044932004999999955  0.7521153099999999  0.5114539023522948  1.0000
  Rh  Rh8       1.0  0.24545583499999996  0.15223513000000002  0.5356074347496679  1.0000
  Rh  Rh9       1.0  0.444932005  0.5521153099999999  0.49907884654099816  1.0000
  Rh  Rh10      1.0  0.8362303849999999  0.36033010999999987  0.546888935232193  1.0000
  Rh  Rh11      1.0  0.6424151549999999  0.45574102000000005  0.5236642040790779  1.0000
  Rh  Rh12      1.0  0.044932004999999955  0.2521153100000001  0.5114539023522948  1.0000
  Rh  Rh13      1.0  0.24539469499999997  0.65133691  0.5356011160455388  1.0000
  Rh  Rh14      1.0  0.444932005  0.05211531000000002  0.49907884654099816  1.0000
  Rh  Rh15      1.0  0.8363482649999999  0.85240508  0.5468798061526081  1.0000
  Sb  Sb6       1.0  0.544932005  0.25211531000000004  0.48051626096779476  1.0000
  Sb  Sb7       1.0  0.944932005  0.05211531000000006  0.468141201443981  1.0000
  Sb  Sb8       1.0  0.14493200499999997  0.4521153100000001  0.4310160302975741  1.0000
  Sb  Sb9       1.0  0.3449320049999999  0.85211531  0.4557661456326845  1.0000
  Sb  Sb10      1.0  0.7449320049999999  0.65211531  0.44339108982138786  1.0000
  Rh  Rh16      1.0  0.3449320049999999  0.35211531000000007  0.4557661456326845  1.0000
  Rh  Rh17      1.0  0.7449320049999999  0.15211531000000003  0.44339108982138786  1.0000
  Rh  Rh18      1.0  0.944932005  0.55211531  0.468141201443981  1.0000
  Rh  Rh19      1.0  0.14493200499999997  0.95211531  0.4310160302975741  1.0000
  Rh  Rh20      1.0  0.544932005  0.7521153099999999  0.48051626096779476  1.0000
  Rh  Rh21      1.0  0.644932005  0.95211531  0.4619536753945913  1.0000
  Rh  Rh22      1.0  0.044932004999999955  0.7521153099999999  0.4495786158707775  1.0000
  Rh  Rh23      1.0  0.24493200499999998  0.15211531000000003  0.4743287312058879  1.0000
  Rh  Rh24      1.0  0.444932005  0.5521153099999999  0.43720356005948097  1.0000
  Rh  Rh25      1.0  0.8449320049999999  0.35211530999999996  0.4867037870171845  1.0000
  Rh  Rh26      1.0  0.644932005  0.45211530999999994  0.4619536753945913  1.0000
  Rh  Rh27      1.0  0.044932004999999955  0.2521153100000001  0.4495786158707775  1.0000
  Rh  Rh28      1.0  0.24493200499999998  0.65211531  0.4743287312058879  1.0000
  Rh  Rh29      1.0  0.444932005  0.05211531000000002  0.43720356005948097  1.0000
  Rh  Rh30      1.0  0.8449320049999999  0.85211531  0.4867037870171845  1.0000
