data_image0
_chemical_formula_structural       COPd15Au5Pd15Au5
_chemical_formula_sum              "C1 O1 Pd30 Au10"
_cell_length_a       9.016955702344966
_cell_length_b       5.70282352
_cell_length_c       104.92251927000001
_cell_angle_alpha    90.0
_cell_angle_beta     104.96321742511974
_cell_angle_gamma    71.5650511638518

_space_group_name_H-M_alt    "P 1"
_space_group_IT_number       1

loop_
  _space_group_symop_operation_xyz
  'x, y, z'

loop_
  _atom_site_type_symbol
  _atom_site_label
  _atom_site_symmetry_multiplicity
  _atom_site_fract_x
  _atom_site_fract_y
  _atom_site_fract_z
  _atom_site_occupancy
  C   C1        1.0  0.89874263  0.3335115950000001  0.566659096346626  1.0000
  O   O1        1.0  0.9324791099999999  0.318792805  0.5781832143827946  1.0000
  Pd  Pd1       1.0  0.34742908999999994  0.3521212550000001  0.5150122737129231  1.0000
  Pd  Pd2       1.0  0.74742909  0.15212125499999996  0.501698632556392  1.0000
  Pd  Pd3       1.0  0.9511859999999999  0.547763985  0.5287803527114604  1.0000
  Pd  Pd4       1.0  0.14742908999999996  0.9521212550000001  0.48838499139986086  1.0000
  Pd  Pd5       1.0  0.53451175  0.7551621749999999  0.5413088252091953  1.0000
  Pd  Pd6       1.0  0.64676329  0.9525707550000001  0.52142759482584  1.0000
  Pd  Pd7       1.0  0.04742908999999996  0.752121255  0.5083554531346576  1.0000
  Pd  Pd8       1.0  0.24319219999999994  0.152868315  0.5347989639304259  1.0000
  Pd  Pd9       1.0  0.4474290899999999  0.5521212550000001  0.4950418119781264  1.0000
  Pd  Pd10      1.0  0.8308142099999999  0.35819456499999996  0.5480953239807359  1.0000
  Pd  Pd11      1.0  0.6508969099999999  0.447500625  0.521960689659799  1.0000
  Pd  Pd12      1.0  0.04742908999999996  0.252121255  0.5083554531346576  1.0000
  Pd  Pd13      1.0  0.24349281999999997  0.6494354649999999  0.5348680783700798  1.0000
  Pd  Pd14      1.0  0.4474290899999999  0.05212125500000003  0.4950418119781264  1.0000
  Pd  Pd15      1.0  0.8300519599999999  0.851658735  0.547293789528548  1.0000
  Au  Au1       1.0  0.5362496899999999  0.251843295  0.5421142638866523  1.0000
  Au  Au2       1.0  0.95257091  0.04742924499999999  0.5292410313227587  1.0000
  Au  Au3       1.0  0.14742908999999996  0.45212125500000006  0.48838499139986086  1.0000
  Au  Au4       1.0  0.34742908999999994  0.8521212550000001  0.5150122737129231  1.0000
  Au  Au5       1.0  0.74742909  0.652121255  0.501698632556392  1.0000
  Pd  Pd16      1.0  0.34742908999999994  0.3521212550000001  0.4484440679302676  1.0000
  Pd  Pd17      1.0  0.74742909  0.15212125499999996  0.4351304267737364  1.0000
  Pd  Pd18      1.0  0.94742909  0.5521212550000001  0.46175770908679875  1.0000
  Pd  Pd19      1.0  0.14742908999999996  0.9521212550000001  0.4218167856172053  1.0000
  Pd  Pd20      1.0  0.54742909  0.7521212549999998  0.4750713502433298  1.0000
  Pd  Pd21      1.0  0.64742909  0.9521212550000001  0.4551008885085331  1.0000
  Pd  Pd22      1.0  0.04742908999999996  0.752121255  0.441787247352002  1.0000
  Pd  Pd23      1.0  0.24742908999999996  0.15212125499999996  0.4684145296650643  1.0000
  Pd  Pd24      1.0  0.4474290899999999  0.5521212550000001  0.4284736061954709  1.0000
  Pd  Pd25      1.0  0.84742909  0.3521212550000001  0.4817281708215953  1.0000
  Pd  Pd26      1.0  0.64742909  0.45212125500000006  0.4551008885085331  1.0000
  Pd  Pd27      1.0  0.04742908999999996  0.252121255  0.441787247352002  1.0000
  Pd  Pd28      1.0  0.24742908999999996  0.6521212550000001  0.4684145296650643  1.0000
  Pd  Pd29      1.0  0.4474290899999999  0.05212125500000003  0.4284736061954709  1.0000
  Pd  Pd30      1.0  0.84742909  0.8521212549999999  0.4817281708215953  1.0000
  Au  Au6       1.0  0.54742909  0.252121255  0.4750713502433298  1.0000
  Au  Au7       1.0  0.94742909  0.05212125500000003  0.46175770908679875  1.0000
  Au  Au8       1.0  0.14742908999999996  0.45212125500000006  0.4218167856172053  1.0000
  Au  Au9       1.0  0.34742908999999994  0.8521212550000001  0.4484440679302676  1.0000
  Au  Au10      1.0  0.74742909  0.652121255  0.4351304267737364  1.0000
