data_image0
_chemical_formula_structural       COZn4Cu8Sn4Se16
_chemical_formula_sum              "C1 O1 Zn4 Cu8 Sn4 Se16"
_cell_length_a       8.25501029
_cell_length_b       13.05709622628623
_cell_length_c       103.02004117999999
_cell_angle_alpha    108.4279588784784
_cell_angle_beta     90.0
_cell_angle_gamma    71.57204112152161

_space_group_name_H-M_alt    "P 1"
_space_group_IT_number       1

loop_
  _space_group_symop_operation_xyz
  'x, y, z'

loop_
  _atom_site_type_symbol
  _atom_site_label
  _atom_site_symmetry_multiplicity
  _atom_site_fract_x
  _atom_site_fract_y
  _atom_site_fract_z
  _atom_site_occupancy
  C   C1        1.0  0.8724395949999999  0.8586919150000001  0.5417995300110288  1.0000
  O   O1        1.0  0.8416642449999998  0.9114882150000001  0.5534317082858463  1.0000
  Zn  Zn1       1.0  0.05299283499999999  0.9802321350000002  0.5068239676375667  1.0000
  Zn  Zn2       1.0  0.5326102549999999  0.019767864999999996  0.47201762088798616  1.0000
  Zn  Zn3       1.0  0.7803049750000001  0.5275376949999999  0.4941575208023718  1.0000
  Zn  Zn4       1.0  0.282610255  0.519767865  0.4519850859548642  1.0000
  Cu  Cu1       1.0  0.657610255  0.269767865  0.4620013534214252  1.0000
  Cu  Cu2       1.0  0.178204685  0.240407615  0.4971247238506378  1.0000
  Cu  Cu3       1.0  0.157610255  0.269767865  0.4620013534214252  1.0000
  Cu  Cu4       1.0  0.666897995  0.240018695  0.49710914014106267  1.0000
  Cu  Cu5       1.0  0.9076102549999998  0.769767865  0.482033888354547  1.0000
  Cu  Cu6       1.0  0.43215570499999995  0.729941735  0.5161923893348016  1.0000
  Cu  Cu7       1.0  0.40761025499999987  0.769767865  0.482033888354547  1.0000
  Cu  Cu8       1.0  0.9125451149999999  0.7675048950000001  0.5232336394618698  1.0000
  Sn  Sn1       1.0  0.782610255  0.519767865  0.4519850859548642  1.0000
  Sn  Sn2       1.0  0.28208817499999983  0.520338995  0.49261995803954006  1.0000
  Sn  Sn3       1.0  0.03261025500000003  0.019767864999999996  0.47201762088798616  1.0000
  Sn  Sn4       1.0  0.5283120150000001  0.043110024999999996  0.5180453571484428  1.0000
  Se  Se1       1.0  0.6092658149999999  0.384567925  0.48663336158039744  1.0000
  Se  Se2       1.0  0.109265815  0.384567925  0.44656829171415374  1.0000
  Se  Se3       1.0  0.965010285  0.154967805  0.45667625690741886  1.0000
  Se  Se4       1.0  0.47169515500000003  0.141805815  0.4978343371368752  1.0000
  Se  Se5       1.0  0.9673897449999999  0.151288435  0.499056591005065  1.0000
  Se  Se6       1.0  0.465010285  0.154967805  0.45812750668893637  1.0000
  Se  Se7       1.0  0.091154645  0.384567925  0.48663336158039744  1.0000
  Se  Se8       1.0  0.591154645  0.384567925  0.44656829171415374  1.0000
  Se  Se9       1.0  0.849729935  0.8822863950000001  0.507116038791686  1.0000
  Se  Se10      1.0  0.35926581499999993  0.8845679150000002  0.46660082664727554  1.0000
  Se  Se11      1.0  0.7252190449999999  0.649923215  0.5179467073308153  1.0000
  Se  Se12      1.0  0.21501028499999997  0.6549678050000001  0.4767087918405407  1.0000
  Se  Se13      1.0  0.715010285  0.6549678050000001  0.4781600416220582  1.0000
  Se  Se14      1.0  0.220811925  0.6456769250000001  0.5182143836651945  1.0000
  Se  Se15      1.0  0.3568989449999999  0.886677895  0.50712612236847  1.0000
  Se  Se16      1.0  0.841154645  0.8845679150000002  0.46660082664727554  1.0000
