data_image0
_chemical_formula_structural       COCu4Fe2Se8Sn2
_chemical_formula_sum              "C1 O1 Cu4 Fe2 Se8 Sn2"
_cell_length_a       6.987890707837502
_cell_length_b       6.98789071
_cell_length_c       102.66426050999999
_cell_angle_alpha    90.0
_cell_angle_beta     90.0
_cell_angle_gamma    108.49273069109589

_space_group_name_H-M_alt    "P 1"
_space_group_IT_number       1

loop_
  _space_group_symop_operation_xyz
  'x, y, z'

loop_
  _atom_site_type_symbol
  _atom_site_label
  _atom_site_symmetry_multiplicity
  _atom_site_fract_x
  _atom_site_fract_y
  _atom_site_fract_z
  _atom_site_occupancy
  C   C1        1.0  0.275296605  0.5470982050000001  0.5375137440553098  1.0000
  O   O1        1.0  0.24447126499999997  0.5681682849999999  0.5483189868169082  1.0000
  Cu  Cu1       1.0  0.6555309449999999  0.657857985  0.5054622042973401  1.0000
  Cu  Cu2       1.0  0.11493868499999996  0.1959932150000001  0.4715663780776857  1.0000
  Cu  Cu3       1.0  0.14314992499999998  0.14494131500000013  0.5056250797532895  1.0000
  Cu  Cu4       1.0  0.614938685  0.6959932150000001  0.4715663780776857  1.0000
  Fe  Fe1       1.0  0.6068212249999999  0.20065087500000006  0.49063924923429514  1.0000
  Fe  Fe2       1.0  0.11493868499999996  0.6959932150000001  0.4516810131830918  1.0000
  Se  Se1       1.0  0.01852084499999996  0.3319849850000002  0.4516810131830918  1.0000
  Se  Se2       1.0  0.520226385  0.855058685  0.4910817320106129  1.0000
  Se  Se3       1.0  0.981479155  0.8186954949999999  0.5141175304929697  1.0000
  Se  Se4       1.0  0.481143495  0.32978841500000017  0.4731402617567046  1.0000
  Se  Se5       1.0  0.9811434950000001  0.8297884150000001  0.4699924912170083  1.0000
  Se  Se6       1.0  0.4911019549999999  0.31023646500000013  0.5087455071208412  1.0000
  Se  Se7       1.0  0.478946915  0.7924110550000001  0.4516810131830918  1.0000
  Se  Se8       1.0  0.9527431950000002  0.2862422450000001  0.4911698703111425  1.0000
  Sn  Sn1       1.0  0.614938685  0.1959932150000001  0.4516810131830918  1.0000
  Sn  Sn2       1.0  0.10966607499999996  0.6969927650000001  0.4926254122066008  1.0000
