data_image0
_chemical_formula_structural       COCu8Se16Sn4Zn4
_chemical_formula_sum              "C1 O1 Cu8 Se16 Sn4 Zn4"
_cell_length_a       7.1512299553696925
_cell_length_b       8.25501029
_cell_length_c       110.44729629
_cell_angle_alpha    90.0
_cell_angle_beta     90.0247160331763
_cell_angle_gamma    90.0

_space_group_name_H-M_alt    "P 1"
_space_group_IT_number       1

loop_
  _space_group_symop_operation_xyz
  'x, y, z'

loop_
  _atom_site_type_symbol
  _atom_site_label
  _atom_site_symmetry_multiplicity
  _atom_site_fract_x
  _atom_site_fract_y
  _atom_site_fract_z
  _atom_site_occupancy
  C   C1        1.0  0.09733847999999999  0.909771775  0.562475187241689  1.0000
  O   O1        1.0  0.13339932999999995  0.9480889549999999  0.5722021633289993  1.0000
  Cu  Cu1       1.0  0.58635186  0.301911045  0.4583156311536486  1.0000
  Cu  Cu2       1.0  0.9196852  0.8019110449999999  0.48883342929843204  1.0000
  Cu  Cu3       1.0  0.25301853  0.8019110449999999  0.42779783667100063  1.0000
  Cu  Cu4       1.0  0.35674939999999994  0.305970755  0.5232547452638021  1.0000
  Cu  Cu5       1.0  0.58635186  0.8019110449999999  0.4583156311536486  1.0000
  Cu  Cu6       1.0  0.9196852  0.301911045  0.48883342929843204  1.0000
  Cu  Cu7       1.0  0.25301853  0.301911045  0.42779783667100063  1.0000
  Cu  Cu8       1.0  0.38671809999999995  0.798446375  0.5226781676667313  1.0000
  Se  Se1       1.0  0.59995179  0.310966625  0.4805814185609554  1.0000
  Se  Se2       1.0  0.9332851200000001  0.8109666249999999  0.5110992167057388  1.0000
  Se  Se3       1.0  0.26661845999999995  0.8109666249999999  0.45006362407830747  1.0000
  Se  Se4       1.0  0.42023618  0.23215124499999998  0.5434456655833041  1.0000
  Se  Se5       1.0  0.7333815499999999  0.551911045  0.4507560313586144  1.0000
  Se  Se6       1.0  0.06671487999999999  0.051911044999999996  0.48127382584126244  1.0000
  Se  Se7       1.0  0.6880155299999999  0.070791165  0.5417281753110157  1.0000
  Se  Se8       1.0  0.40004821  0.551911045  0.5117916203239103  1.0000
  Se  Se9       1.0  0.07878898999999999  0.551911045  0.48237925242363594  1.0000
  Se  Se10      1.0  0.41212233  0.051911044999999996  0.512897046906284  1.0000
  Se  Se11      1.0  0.7454556600000001  0.051911044999999996  0.45186145794098803  1.0000
  Se  Se12      1.0  0.7494585200000001  0.590487585  0.5422247865176493  1.0000
  Se  Se13      1.0  0.59995179  0.792855465  0.4805814185609554  1.0000
  Se  Se14      1.0  0.9332851200000001  0.292855465  0.5110992167057388  1.0000
  Se  Se15      1.0  0.26661845999999995  0.292855465  0.45006362407830747  1.0000
  Se  Se16      1.0  0.5218703  0.797094545  0.542585287134734  1.0000
  Sn  Sn1       1.0  0.08635185999999999  0.551911045  0.4583156311536486  1.0000
  Sn  Sn2       1.0  0.4196852  0.051911044999999996  0.48883342929843204  1.0000
  Sn  Sn3       1.0  0.7530185300000001  0.051911044999999996  0.42779783667100063  1.0000
  Sn  Sn4       1.0  0.75704623  0.552712085  0.5183038420461341  1.0000
  Zn  Zn1       1.0  0.7530185300000001  0.551911045  0.42779783667100063  1.0000
  Zn  Zn2       1.0  0.08635185999999999  0.051911044999999996  0.4583156311536486  1.0000
  Zn  Zn3       1.0  0.75035388  0.052564734999999994  0.5180698059537324  1.0000
  Zn  Zn4       1.0  0.4196852  0.551911045  0.48883342929843204  1.0000
