data_image0
_chemical_formula_structural       COZn6Cu12Ge6Se24
_chemical_formula_sum              "C1 O1 Zn6 Cu12 Ge6 Se24"
_cell_length_a       5.73429982
_cell_length_b       16.208951671407704
_cell_length_c       108.42852821
_cell_angle_alpha    71.6293288785467
_cell_angle_beta     90.0
_cell_angle_gamma    90.0

_space_group_name_H-M_alt    "P 1"
_space_group_IT_number       1

loop_
  _space_group_symop_operation_xyz
  'x, y, z'

loop_
  _atom_site_type_symbol
  _atom_site_label
  _atom_site_symmetry_multiplicity
  _atom_site_fract_x
  _atom_site_fract_y
  _atom_site_fract_z
  _atom_site_occupancy
  C   C1        1.0  0.8804509400000001  0.5109835549999999  0.5568957198498615  1.0000
  O   O1        1.0  0.8185509200000001  0.5329514649999999  0.5654373780354791  1.0000
  Zn  Zn1       1.0  0.11954906000000001  0.687386745  0.4548241196382272  1.0000
  Zn  Zn2       1.0  0.19211815000000002  0.02275229499999997  0.528444397305574  1.0000
  Zn  Zn3       1.0  0.11954906000000001  0.35405340499999993  0.49420339090168813  1.0000
  Zn  Zn4       1.0  0.6254061000000001  0.6971367649999999  0.5137392802089471  1.0000
  Zn  Zn5       1.0  0.61954906  0.020720074999999973  0.4745137534978905  1.0000
  Zn  Zn6       1.0  0.61954906  0.35405340499999993  0.4351344822344296  1.0000
  Cu  Cu1       1.0  0.61954906  0.7707200749999998  0.4745137534978905  1.0000
  Cu  Cu2       1.0  0.61954906  0.10405340499999996  0.4351344822344295  1.0000
  Cu  Cu3       1.0  0.5853961700000001  0.43584544499999994  0.5155699993145226  1.0000
  Cu  Cu4       1.0  0.11954906000000001  0.6040534049999998  0.49420339090168813  1.0000
  Cu  Cu5       1.0  0.11954906000000001  0.937386745  0.4548241196382272  1.0000
  Cu  Cu6       1.0  0.18506525000000004  0.28049220499999994  0.5282785247250847  1.0000
  Cu  Cu7       1.0  0.20217143  0.781508695  0.528704689171923  1.0000
  Cu  Cu8       1.0  0.11954906000000001  0.10405340499999996  0.49420339090168813  1.0000
  Cu  Cu9       1.0  0.11954906000000001  0.43738674499999997  0.4548241196382272  1.0000
  Cu  Cu10      1.0  0.5794884600000001  0.9358449749999999  0.5160208663784716  1.0000
  Cu  Cu11      1.0  0.61954906  0.27072007499999995  0.4745137534978905  1.0000
  Cu  Cu12      1.0  0.61954906  0.6040534049999998  0.4351344822344295  1.0000
  Ge  Ge1       1.0  0.61954906  0.520720075  0.4745137534978905  1.0000
  Ge  Ge2       1.0  0.61954906  0.8540534049999999  0.4351344822344296  1.0000
  Ge  Ge3       1.0  0.6240675000000001  0.188647145  0.5138276035835545  1.0000
  Ge  Ge4       1.0  0.11954906000000001  0.8540534049999999  0.49420339090168813  1.0000
  Ge  Ge5       1.0  0.11954906000000001  0.18738674499999994  0.4548241196382272  1.0000
  Ge  Ge6       1.0  0.19708067  0.529725825  0.527559604140343  1.0000
  Se  Se1       1.0  0.37393665  0.482204985  0.4944296909745355  1.0000
  Se  Se2       1.0  0.37393665  0.8155383149999998  0.45505041971107457  1.0000
  Se  Se3       1.0  0.39412583  0.14570492499999996  0.5336563801616915  1.0000
  Se  Se4       1.0  0.86145301  0.559401555  0.513480693071268  1.0000
  Se  Se5       1.0  0.8739366399999999  0.892568505  0.4742874534250432  1.0000
  Se  Se6       1.0  0.8739366399999999  0.22590183499999997  0.4349081821615823  1.0000
  Se  Se7       1.0  0.36516147000000004  0.728826895  0.49363153063177945  1.0000
  Se  Se8       1.0  0.36516147000000004  0.06216022499999997  0.4542522593683186  1.0000
  Se  Se9       1.0  0.3623167500000001  0.38863937499999995  0.5357030540116571  1.0000
  Se  Se10      1.0  0.86516148  0.645946595  0.47508561376779906  1.0000
  Se  Se11      1.0  0.86516148  0.9792799249999999  0.4357063425043382  1.0000
  Se  Se12      1.0  0.8562714  0.31689399499999993  0.514130602270016  1.0000
  Se  Se13      1.0  0.87394188  0.822213565  0.5139970344750306  1.0000
  Se  Se14      1.0  0.8739366399999999  0.14887164499999997  0.4747400535707378  1.0000
  Se  Se15      1.0  0.8739366399999999  0.482204985  0.4353607823072769  1.0000
  Se  Se16      1.0  0.38214823000000003  0.8851295149999999  0.5366559831616731  1.0000
  Se  Se17      1.0  0.37393665  0.22590183499999997  0.4939770908288409  1.0000
  Se  Se18      1.0  0.37393665  0.5592351649999999  0.45459781956538  1.0000
  Se  Se19      1.0  0.86516148  0.728826895  0.43456262196452095  1.0000
  Se  Se20      1.0  0.85310919  0.06116583499999996  0.5130548794937401  1.0000
  Se  Se21      1.0  0.8651614700000001  0.39549355499999994  0.47394189322798186  1.0000
  Se  Se22      1.0  0.38223028000000003  0.642616475  0.534237448092899  1.0000
  Se  Se23      1.0  0.36516147000000004  0.9792799249999999  0.4947752511715967  1.0000
  Se  Se24      1.0  0.36516147000000004  0.3126132549999999  0.45539597990813585  1.0000
