data_image0
_chemical_formula_structural       COCu12Se24Sn6Zn3
_chemical_formula_sum              "C1 O1 Cu12 Se24 Sn6 Zn3"
_cell_length_a       13.548790905584061
_cell_length_b       7.0556601697170676
_cell_length_c       107.00703062
_cell_angle_alpha    93.74992794740268
_cell_angle_beta     95.76847080167643
_cell_angle_gamma    79.8159238693216

_space_group_name_H-M_alt    "P 1"
_space_group_IT_number       1

loop_
  _space_group_symop_operation_xyz
  'x, y, z'

loop_
  _atom_site_type_symbol
  _atom_site_label
  _atom_site_symmetry_multiplicity
  _atom_site_fract_x
  _atom_site_fract_y
  _atom_site_fract_z
  _atom_site_occupancy
  C   C1        1.0  0.7787817349999999  0.9087006400000001  0.5540125250789811  1.0000
  O   O1        1.0  0.7660476149999998  0.8691249100000001  0.5638738011688866  1.0000
  Cu  Cu1       1.0  0.40886711499999995  0.17355840000000006  0.49430918027853293  1.0000
  Cu  Cu2       1.0  0.6310893349999999  0.39578062  0.45588280561728095  1.0000
  Cu  Cu3       1.0  0.19670277499999997  0.90664472  0.528706290138231  1.0000
  Cu  Cu4       1.0  0.6745966249999998  0.43219071000000003  0.530658452204701  1.0000
  Cu  Cu5       1.0  0.8971810149999999  0.6757492299999999  0.4945161916147056  1.0000
  Cu  Cu6       1.0  0.11940324499999998  0.8979714500000001  0.45608981695345363  1.0000
  Cu  Cu7       1.0  0.6553913449999998  0.41902768000000007  0.4951355656038218  1.0000
  Cu  Cu8       1.0  0.8776135749999999  0.6412499  0.45670919094256973  1.0000
  Cu  Cu9       1.0  0.43913669499999997  0.20504453000000003  0.5310908595919231  1.0000
  Cu  Cu10      1.0  0.3745615149999999  0.15207478000000002  0.4554232119539778  1.0000
  Cu  Cu11      1.0  0.9410813849999999  0.64400857  0.5287344067168519  1.0000
  Cu  Cu12      1.0  0.15233929499999993  0.92985256  0.4938495866152298  1.0000
  Se  Se1       1.0  0.3501196349999999  0.36950187000000007  0.5131627883856374  1.0000
  Se  Se2       1.0  0.5785087449999999  0.5801548900000001  0.4752833693670907  1.0000
  Se  Se3       1.0  0.8007309649999999  0.80237711  0.43685699470583866  1.0000
  Se  Se4       1.0  0.2943948049999999  0.30178713000000007  0.4368766590190045  1.0000
  Se  Se5       1.0  0.8481665849999999  0.8541883800000001  0.5135518554329732  1.0000
  Se  Se6       1.0  0.07217258499999997  0.07956491  0.4753030336802565  1.0000
  Se  Se7       1.0  0.5589460849999999  0.09954502  0.4553921211739284  1.0000
  Se  Se8       1.0  0.11033979499999995  0.66798321  0.533647081968526  1.0000
  Se  Se9       1.0  0.33672386499999996  0.8773228  0.4938184958351805  1.0000
  Se  Se10      1.0  0.5455791649999999  0.38911158000000007  0.5416648442618204  1.0000
  Se  Se11      1.0  0.8366963949999999  0.36929802000000006  0.4931704138855315  1.0000
  Se  Se12      1.0  0.058918614999999966  0.59152025  0.45474403922427953  1.0000
  Se  Se13      1.0  0.5880320049999999  0.12284423000000004  0.4957370978427405  1.0000
  Se  Se14      1.0  0.8102542249999999  0.34506644999999997  0.4573107231814884  1.0000
  Se  Se15      1.0  0.36952175499999995  0.9232145400000001  0.5337012712268788  1.0000
  Se  Se16      1.0  0.30839963499999995  0.8489580400000001  0.4565554420205839  1.0000
  Se  Se17      1.0  0.8549141049999999  0.39426129  0.5334029657403455  1.0000
  Se  Se18      1.0  0.08617741499999997  0.62673582  0.4949818166818359  1.0000
  Se  Se19      1.0  0.6179525849999998  0.6308413500000001  0.5136020364361452  1.0000
  Se  Se20      1.0  0.8383223049999999  0.8479252200000001  0.4753080829059375  1.0000
  Se  Se21      1.0  0.06054452499999997  0.07014744000000002  0.4368817082446855  1.0000
  Se  Se22      1.0  0.33593210499999987  0.3375377100000001  0.47506856285647625  1.0000
  Se  Se23      1.0  0.5581543249999998  0.55975993  0.43664218819522427  1.0000
  Se  Se24      1.0  0.11051239499999996  0.12550297  0.5134855549497336  1.0000
  Sn  Sn1       1.0  0.6443378549999998  0.9158099100000002  0.47580074553907725  1.0000
  Sn  Sn2       1.0  0.8665600849999999  0.13803213  0.43737437087782527  1.0000
  Sn  Sn3       1.0  0.42311098499999994  0.69758371  0.5142654597317673  1.0000
  Sn  Sn4       1.0  0.13549992499999997  0.40623241  0.4745525734923652  1.0000
  Sn  Sn5       1.0  0.3577221449999999  0.62845463  0.4361261988311131  1.0000
  Sn  Sn6       1.0  0.9089876749999999  0.18465104000000007  0.5133486898084151  1.0000
  Zn  Zn1       1.0  0.15903996499999998  0.4611414700000001  0.5152971859987056  1.0000
  Zn  Zn2       1.0  0.3894406649999999  0.66054293  0.47525935441974226  1.0000
  Zn  Zn3       1.0  0.6116628849999999  0.8827651600000002  0.4368329797584903  1.0000
