data_image0
_chemical_formula_structural       COV6Co18V6Co18
_chemical_formula_sum              "C1 O1 V12 Co36"
_cell_length_a       13.119024106639156
_cell_length_b       4.979396724294698
_cell_length_c       104.85577703999999
_cell_angle_alpha    60.00000002853106
_cell_angle_beta     67.69385285569957
_cell_angle_gamma    79.06018807902437

_space_group_name_H-M_alt    "P 1"
_space_group_IT_number       1

loop_
  _space_group_symop_operation_xyz
  'x, y, z'

loop_
  _atom_site_type_symbol
  _atom_site_label
  _atom_site_symmetry_multiplicity
  _atom_site_fract_x
  _atom_site_fract_y
  _atom_site_fract_z
  _atom_site_occupancy
  C   C1        1.0  0.64987548  0.6395324299999999  0.5448280830459825  1.0000
  O   O1        1.0  0.6219942599999999  0.50562081  0.5588954419817403  1.0000
  V   V1        1.0  0.7466711999999999  0.99730621  0.5059172840120434  1.0000
  V   V2        1.0  0.25471669999999996  0.01902706999999998  0.5272752187745987  1.0000
  V   V3        1.0  0.09067510999999998  0.68617794  0.5192233496198139  1.0000
  V   V4        1.0  0.40792042  0.66903835  0.5057181333632746  1.0000
  V   V5        1.0  0.91167649  0.35062682  0.5120249262598027  1.0000
  V   V6        1.0  0.5877192099999999  0.35888500999999995  0.5266610662297377  1.0000
  Co  Co1       1.0  0.74620563  0.51821928  0.5285385007150356  1.0000
  Co  Co2       1.0  0.7493669799999999  0.5170774699999999  0.5039301986621104  1.0000
  Co  Co3       1.0  0.74644567  0.0014427299999999782  0.528508546675709  1.0000
  Co  Co4       1.0  0.24694597999999998  0.5062541199999999  0.5045968696696637  1.0000
  Co  Co5       1.0  0.24795990999999998  0.50987023  0.5284613269299945  1.0000
  Co  Co6       1.0  0.24696015999999998  0.017000859999999982  0.5045911919980213  1.0000
  Co  Co7       1.0  0.9167676699999999  0.8457759  0.4885926102837304  1.0000
  Co  Co8       1.0  0.5789913299999999  0.8414297199999999  0.5287448614749239  1.0000
  Co  Co9       1.0  0.58178144  0.34314976999999997  0.504661950147073  1.0000
  Co  Co10      1.0  0.9167676699999999  0.34379633000000004  0.48859261028373036  1.0000
  Co  Co11      1.0  0.91785451  0.8362554099999999  0.5130699502583792  1.0000
  Co  Co12      1.0  0.5817800799999999  0.84361594  0.5046509704342892  1.0000
  Co  Co13      1.0  0.08214548999999999  0.17778951999999998  0.4965058185970516  1.0000
  Co  Co14      1.0  0.41503180999999995  0.17683029999999997  0.5046451930377349  1.0000
  Co  Co15      1.0  0.41386855  0.67814084  0.528016065171513  1.0000
  Co  Co16      1.0  0.08214548999999999  0.67976909  0.4965058185970516  1.0000
  Co  Co17      1.0  0.08324212999999997  0.17909472999999995  0.5202068200786933  1.0000
  Co  Co18      1.0  0.4139608999999999  0.18492751999999998  0.528016477367815  1.0000
  V   V7        1.0  0.74945658  0.01178270999999998  0.4569331752412879  1.0000
  V   V8        1.0  0.24945657999999998  0.01178270999999998  0.4806772013740233  1.0000
  V   V9        1.0  0.08833791999999999  0.67844938  0.47249906386014184  1.0000
  V   V10       1.0  0.41057523999999995  0.67844938  0.4571966384856455  1.0000
  V   V11       1.0  0.9105752399999999  0.34511603999999996  0.46511131607933315  1.0000
  V   V12       1.0  0.58833792  0.34511603999999996  0.4804137381296657  1.0000
  Co  Co19      1.0  0.74945658  0.51632717  0.4808930094072183  1.0000
  Co  Co20      1.0  0.74945658  0.51632717  0.4565015591748979  1.0000
  Co  Co21      1.0  0.74945658  0.002693789999999918  0.48089300940721824  1.0000
  Co  Co22      1.0  0.24945657999999998  0.50723825  0.456717367208093  1.0000
  Co  Co23      1.0  0.24945657999999998  0.50723825  0.48110881744041334  1.0000
  Co  Co24      1.0  0.24945657999999998  0.020871629999999978  0.4567173672080929  1.0000
  Co  Co25      1.0  0.9167676699999999  0.8457759  0.44110455801825976  1.0000
  Co  Co26      1.0  0.5821454899999999  0.8457759  0.4806451331665676  1.0000
  Co  Co27      1.0  0.5821454899999999  0.34379633000000004  0.4569951143839771  1.0000
  Co  Co28      1.0  0.9167676699999999  0.34379633000000004  0.44110455801825965  1.0000
  Co  Co29      1.0  0.9167676699999999  0.8457759  0.46475457680085014  1.0000
  Co  Co30      1.0  0.5821454899999999  0.8457759  0.45699511438397716  1.0000
  Co  Co31      1.0  0.08214548999999999  0.17778951999999998  0.44901776633158086  1.0000
  Co  Co32      1.0  0.4167676699999999  0.17778951999999998  0.4569652434487436  1.0000
  Co  Co33      1.0  0.4167676699999999  0.67976909  0.48061526555549783  1.0000
  Co  Co34      1.0  0.08214548999999999  0.67976909  0.44901776633158086  1.0000
  Co  Co35      1.0  0.08214548999999999  0.17778951999999998  0.4728557998144611  1.0000
  Co  Co36      1.0  0.4167676699999999  0.17778951999999998  0.4806152655554979  1.0000
