data_image0
_chemical_formula_structural       COCrPd3CrPd3CrPd3CrPd3CrPd3CrPd3CrPd3CrPd3
_chemical_formula_sum              "C1 O1 Cr8 Pd24"
_cell_length_a       7.78443386
_cell_length_b       7.78443386
_cell_length_c       101.13773544
_cell_angle_alpha    90.0
_cell_angle_beta     90.0
_cell_angle_gamma    90.0

_space_group_name_H-M_alt    "P 1"
_space_group_IT_number       1

loop_
  _space_group_symop_operation_xyz
  'x, y, z'

loop_
  _atom_site_type_symbol
  _atom_site_label
  _atom_site_symmetry_multiplicity
  _atom_site_fract_x
  _atom_site_fract_y
  _atom_site_fract_z
  _atom_site_occupancy
  C   C1        1.0  0.06500275  0.12431479499999996  0.5309897553989725  1.0000
  O   O1        1.0  0.057783309999999984  0.131455015  0.5426400765136831  1.0000
  Cr  Cr1       1.0  0.19054952000000003  0.998991355  0.49682316406233484  1.0000
  Pd  Pd1       1.0  0.43000777  0.253395145  0.4958124857833689  1.0000
  Pd  Pd2       1.0  0.43694290999999996  0.0010086449999999747  0.5145276443688689  1.0000
  Pd  Pd3       1.0  0.18747838  0.247261335  0.515822764871803  1.0000
  Cr  Cr2       1.0  0.18654531999999996  0.0028346249999999782  0.4573599234863169  1.0000
  Pd  Pd4       1.0  0.43654531999999996  0.252834625  0.4573599234863169  1.0000
  Pd  Pd5       1.0  0.43654531999999996  0.0028346249999999782  0.47660208326509235  1.0000
  Pd  Pd6       1.0  0.18654531999999996  0.252834625  0.47660208326509235  1.0000
  Cr  Cr3       1.0  0.18701679  0.507285605  0.4974823819838823  1.0000
  Pd  Pd7       1.0  0.43810812999999993  0.7513254349999999  0.4956288632404048  1.0000
  Pd  Pd8       1.0  0.43642769  0.502878405  0.5146223311887083  1.0000
  Pd  Pd9       1.0  0.18823084999999998  0.7523648249999999  0.5145233433613151  1.0000
  Cr  Cr4       1.0  0.18654531999999996  0.502834625  0.4573599234863169  1.0000
  Pd  Pd10      1.0  0.43654531999999996  0.752834625  0.4573599234863169  1.0000
  Pd  Pd11      1.0  0.43654531999999996  0.502834625  0.47660208326509235  1.0000
  Pd  Pd12      1.0  0.18654531999999996  0.752834625  0.47660208326509235  1.0000
  Cr  Cr5       1.0  0.68218613  0.0025465149999999784  0.4974825451573972  1.0000
  Pd  Pd13      1.0  0.9399247399999999  0.24955990499999997  0.49573256770600294  1.0000
  Pd  Pd14      1.0  0.94221669  0.0020506249999999782  0.5158189072036106  1.0000
  Pd  Pd15      1.0  0.6852409399999999  0.252516405  0.5142348649019117  1.0000
  Cr  Cr6       1.0  0.6865453199999999  0.0028346249999999782  0.4573599234863169  1.0000
  Pd  Pd16      1.0  0.9365453199999999  0.252834625  0.4573599234863169  1.0000
  Pd  Pd17      1.0  0.9365453199999999  0.0028346249999999782  0.47660208326509235  1.0000
  Pd  Pd18      1.0  0.6865453199999999  0.252834625  0.47660208326509235  1.0000
  Cr  Cr7       1.0  0.68638563  0.503257115  0.49768742335973937  1.0000
  Pd  Pd19      1.0  0.93593772  0.759320135  0.4958020980958339  1.0000
  Pd  Pd20      1.0  0.93682232  0.504114425  0.5142454742591274  1.0000
  Pd  Pd21      1.0  0.68665992  0.753164235  0.5146142956627846  1.0000
  Cr  Cr8       1.0  0.6865453199999999  0.502834625  0.4573599234863169  1.0000
  Pd  Pd22      1.0  0.9365453199999999  0.752834625  0.4573599234863169  1.0000
  Pd  Pd23      1.0  0.9365453199999999  0.502834625  0.47660208326509235  1.0000
  Pd  Pd24      1.0  0.6865453199999999  0.752834625  0.47660208326509235  1.0000
