data_image0
_chemical_formula_structural       COAu16Mn4
_chemical_formula_sum              "C1 O1 Au16 Mn4"
_cell_length_a       9.25567058
_cell_length_b       5.036946443287117
_cell_length_c       99.33676122
_cell_angle_alpha    85.13891560486417
_cell_angle_beta     90.0
_cell_angle_gamma    90.0

_space_group_name_H-M_alt    "P 1"
_space_group_IT_number       1

loop_
  _space_group_symop_operation_xyz
  'x, y, z'

loop_
  _atom_site_type_symbol
  _atom_site_label
  _atom_site_symmetry_multiplicity
  _atom_site_fract_x
  _atom_site_fract_y
  _atom_site_fract_z
  _atom_site_occupancy
  C   C1        1.0  0.922006285  0.96074077  0.5366900439219235  1.0000
  O   O1        1.0  0.9030042450000001  0.06401507999999999  0.5465388256209203  1.0000
  Au  Au1       1.0  0.25298605499999993  0.03925922999999987  0.5127995554075713  1.0000
  Au  Au2       1.0  0.7501573049999999  0.93994658  0.49447484303838923  1.0000
  Au  Au3       1.0  0.6398007250000001  0.69876234  0.5198294915765576  1.0000
  Au  Au4       1.0  0.13118328499999998  0.56343586  0.5023688774723784  1.0000
  Au  Au5       1.0  0.4553444949999999  0.76383716  0.4969192502199092  1.0000
  Au  Au6       1.0  0.9581219750000001  0.9186238099999998  0.5169338405276558  1.0000
  Au  Au7       1.0  0.8384268049999999  0.40305179  0.5061331039334603  1.0000
  Au  Au8       1.0  0.361647385  0.49999516000000005  0.522155579216844  1.0000
  Au  Au9       1.0  0.23987835499999996  0.80116483  0.475489417741806  1.0000
  Au  Au10      1.0  0.739878355  0.67616483  0.4570315220571534  1.0000
  Au  Au11      1.0  0.638594025  0.44191841  0.48306762724420915  1.0000
  Au  Au12      1.0  0.13859402499999998  0.31691841  0.4646097315595566  1.0000
  Au  Au13      1.0  0.4451620249999999  0.49891725000000003  0.4607705158365187  1.0000
  Au  Au14      1.0  0.9451620250000001  0.62391725  0.47922841152117124  1.0000
  Au  Au15      1.0  0.8438776949999999  0.13967083  0.46834872238565856  1.0000
  Au  Au16      1.0  0.343877695  0.26467082999999997  0.486806618070311  1.0000
  Mn  Mn1       1.0  0.544041745  0.23957181999999996  0.5073380560365977  1.0000
  Mn  Mn2       1.0  0.041878024999999985  0.09541783  0.49037696574838485  1.0000
  Mn  Mn3       1.0  0.5418780249999999  0.9704178299999998  0.4719190700637323  1.0000
  Mn  Mn4       1.0  0.041878024999999985  0.84541783  0.4534611743790797  1.0000
