data_image0
_chemical_formula_structural       COCu8Ge4Se16Zn4
_chemical_formula_sum              "C1 O1 Cu8 Ge4 Se16 Zn4"
_cell_length_a       8.10952457
_cell_length_b       7.017223904281049
_cell_length_c       109.71190713
_cell_angle_alpha    90.06732396008894
_cell_angle_beta     90.0
_cell_angle_gamma    90.0

_space_group_name_H-M_alt    "P 1"
_space_group_IT_number       1

loop_
  _space_group_symop_operation_xyz
  'x, y, z'

loop_
  _atom_site_type_symbol
  _atom_site_label
  _atom_site_symmetry_multiplicity
  _atom_site_fract_x
  _atom_site_fract_y
  _atom_site_fract_z
  _atom_site_occupancy
  C   C1        1.0  0.37980259499999997  0.34242258  0.5646226267031598  1.0000
  O   O1        1.0  0.476718405  0.3799671699999999  0.571871941728645  1.0000
  Cu  Cu1       1.0  0.046403974999999986  0.52372421  0.48845561155820755  1.0000
  Cu  Cu2       1.0  0.546403975  0.85705755  0.45829183491478126  1.0000
  Cu  Cu3       1.0  0.545071185  0.15451934999999997  0.5195792189176378  1.0000
  Cu  Cu4       1.0  0.046403974999999986  0.19039087999999996  0.428128058271355  1.0000
  Cu  Cu5       1.0  0.546403975  0.52372421  0.48845561155820755  1.0000
  Cu  Cu6       1.0  0.046403974999999986  0.85705755  0.45829183491478126  1.0000
  Cu  Cu7       1.0  0.03901089499999999  0.18670403  0.5202206902632532  1.0000
  Cu  Cu8       1.0  0.546403975  0.19039087999999996  0.428128058271355  1.0000
  Ge  Ge1       1.0  0.7964039749999999  0.023724209999999975  0.48845561155820755  1.0000
  Ge  Ge2       1.0  0.296403975  0.35705755  0.45829183491478126  1.0000
  Ge  Ge3       1.0  0.300713415  0.69643444  0.5180843165660063  1.0000
  Ge  Ge4       1.0  0.7964039749999999  0.69039088  0.428128058271355  1.0000
  Se  Se1       1.0  0.5507915549999999  0.85030137  0.480608981338226  1.0000
  Se  Se2       1.0  0.050791554999999995  0.18363469999999998  0.4504452010751463  1.0000
  Se  Se3       1.0  0.050791554999999995  0.51696803  0.5107727579816522  1.0000
  Se  Se4       1.0  0.543302155  0.97627579  0.5404450436156886  1.0000
  Se  Se5       1.0  0.7964039749999999  0.70007212  0.45079188423293615  1.0000
  Se  Se6       1.0  0.34023272499999996  0.7339413199999999  0.5404364686569214  1.0000
  Se  Se7       1.0  0.296403975  0.36673878  0.48095566449601573  1.0000
  Se  Se8       1.0  0.7964039749999999  0.033405449999999975  0.511119441139442  1.0000
  Se  Se9       1.0  0.7964039749999999  0.36088866999999997  0.48148504965624284  1.0000
  Se  Se10      1.0  0.296403975  0.694222  0.45132126939316325  1.0000
  Se  Se11      1.0  0.296403975  0.027555339999999977  0.5116488262996691  1.0000
  Se  Se12      1.0  0.824900155  0.8189074599999999  0.541030345180743  1.0000
  Se  Se13      1.0  0.04201638499999999  0.85030137  0.480608981338226  1.0000
  Se  Se14      1.0  0.542016385  0.18363469999999998  0.4504452010751463  1.0000
  Se  Se15      1.0  0.542016385  0.51696803  0.5107727579816522  1.0000
  Se  Se16      1.0  0.960989105  0.11509667999999997  0.5409278148801775  1.0000
  Zn  Zn1       1.0  0.798474075  0.6987635499999999  0.5182111130225765  1.0000
  Zn  Zn2       1.0  0.296403975  0.023724209999999975  0.48845561155820755  1.0000
  Zn  Zn3       1.0  0.296403975  0.69039088  0.428128058271355  1.0000
  Zn  Zn4       1.0  0.7964039749999999  0.35705755  0.45829183491478126  1.0000
