data_image0
_chemical_formula_structural       COAl12Cu12Se24
_chemical_formula_sum              "C1 O1 Al12 Cu12 Se24"
_cell_length_a       5.70772972
_cell_length_b       16.0422566031733
_cell_length_c       107.90217874
_cell_angle_alpha    72.2216845373845
_cell_angle_beta     90.0
_cell_angle_gamma    90.0

_space_group_name_H-M_alt    "P 1"
_space_group_IT_number       1

loop_
  _space_group_symop_operation_xyz
  'x, y, z'

loop_
  _atom_site_type_symbol
  _atom_site_label
  _atom_site_symmetry_multiplicity
  _atom_site_fract_x
  _atom_site_fract_y
  _atom_site_fract_z
  _atom_site_occupancy
  C   C1        1.0  0.8833956450000001  0.735174465  0.5543667217819129  1.0000
  O   O1        1.0  0.893419975  0.7255412850000001  0.5653671205279606  1.0000
  Al  Al1       1.0  0.10658002500000004  0.8544728350000002  0.49324862017254284  1.0000
  Al  Al2       1.0  0.10658002500000004  0.18780617500000002  0.4542192585748736  1.0000
  Al  Al3       1.0  0.21010141500000004  0.5425768049999999  0.5260187477565592  1.0000
  Al  Al4       1.0  0.10658002500000004  0.604472835  0.4932486201725429  1.0000
  Al  Al5       1.0  0.10658002500000004  0.937806175  0.4542192585748736  1.0000
  Al  Al6       1.0  0.19808751500000005  0.29623890500000005  0.5233077604670029  1.0000
  Al  Al7       1.0  0.6065800250000001  0.5211395050000001  0.4737339376173869  1.0000
  Al  Al8       1.0  0.6065800250000001  0.8544728350000002  0.4347045760197177  1.0000
  Al  Al9       1.0  0.6099847350000001  0.180025405  0.5125974006186965  1.0000
  Al  Al10      1.0  0.591486625  0.9311900649999999  0.5138367979135988  1.0000
  Al  Al11      1.0  0.6065800250000001  0.271139505  0.4737339376173869  1.0000
  Al  Al12      1.0  0.6065800250000001  0.604472835  0.4347045760197176  1.0000
  Cu  Cu1       1.0  0.5473741350000001  0.687497855  0.514861994264039  1.0000
  Cu  Cu2       1.0  0.6065800250000001  0.021139505  0.4737339376173869  1.0000
  Cu  Cu3       1.0  0.6065800250000001  0.354472835  0.4347045760197176  1.0000
  Cu  Cu4       1.0  0.6065800250000001  0.7711395050000001  0.4737339376173869  1.0000
  Cu  Cu5       1.0  0.6065800250000001  0.104472835  0.4347045760197176  1.0000
  Cu  Cu6       1.0  0.5814911850000001  0.4371750850000001  0.5142459189074079  1.0000
  Cu  Cu7       1.0  0.10658002500000004  0.687806175  0.4542192585748736  1.0000
  Cu  Cu8       1.0  0.19624270500000005  0.030504385000000005  0.5264003296325496  1.0000
  Cu  Cu9       1.0  0.10658002500000004  0.354472835  0.49324862017254284  1.0000
  Cu  Cu10      1.0  0.19604315500000005  0.779834075  0.5273242494721543  1.0000
  Cu  Cu11      1.0  0.10658002500000004  0.104472835  0.49324862017254284  1.0000
  Cu  Cu12      1.0  0.10658002500000004  0.437806175  0.4542192585748736  1.0000
  Se  Se1       1.0  0.863666405  0.5644121649999999  0.512645154994557  1.0000
  Se  Se2       1.0  0.8584170550000002  0.8961395050000001  0.4737339376173869  1.0000
  Se  Se3       1.0  0.8584170550000002  0.22947283500000001  0.4347045760197176  1.0000
  Se  Se4       1.0  0.374520815  0.6359023650000001  0.5361522895416966  1.0000
  Se  Se5       1.0  0.3565800250000001  0.9788604949999999  0.4933203167202211  1.0000
  Se  Se6       1.0  0.3565800250000001  0.312193825  0.45429095512255185  1.0000
  Se  Se7       1.0  0.8538274450000001  0.8104457049999999  0.5125166976554459  1.0000
  Se  Se8       1.0  0.8565800250000001  0.14675184499999996  0.47366224106970867  1.0000
  Se  Se9       1.0  0.8565800250000001  0.480085185  0.43463287947203944  1.0000
  Se  Se10      1.0  0.35474299500000006  0.729472835  0.4932486201725429  1.0000
  Se  Se11      1.0  0.35474299500000006  0.062806175  0.4542192585748736  1.0000
  Se  Se12      1.0  0.3501387350000001  0.393364785  0.5343901618540553  1.0000
  Se  Se13      1.0  0.389424995  0.893546915  0.5337693268667298  1.0000
  Se  Se14      1.0  0.35841705500000015  0.22947283500000001  0.49324862017254284  1.0000
  Se  Se15      1.0  0.35841705500000015  0.5628061750000002  0.4542192585748736  1.0000
  Se  Se16      1.0  0.8565800250000001  0.6455271650000001  0.47380563767770784  1.0000
  Se  Se17      1.0  0.8565800250000001  0.9788604949999999  0.43477627608003855  1.0000
  Se  Se18      1.0  0.835565295  0.31490455500000003  0.5120685406646575  1.0000
  Se  Se19      1.0  0.3565800250000001  0.480085185  0.493176920112222  1.0000
  Se  Se20      1.0  0.3565800250000001  0.8134185150000002  0.4541475585145527  1.0000
  Se  Se21      1.0  0.3690651750000001  0.154838745  0.5318137614649102  1.0000
  Se  Se22      1.0  0.8547429950000001  0.729472835  0.4347045760197176  1.0000
  Se  Se23      1.0  0.8521282950000001  0.058595615000000004  0.5126042889107938  1.0000
  Se  Se24      1.0  0.8547429950000001  0.396139505  0.4737339376173869  1.0000
