data_image0
_chemical_formula_structural       COZn4Cu8Ge4Se16
_chemical_formula_sum              "C1 O1 Zn4 Cu8 Ge4 Se16"
_cell_length_a       8.10952457
_cell_length_b       12.8095094034769
_cell_length_c       102.43809829
_cell_angle_alpha    108.45399672636918
_cell_angle_beta     90.0
_cell_angle_gamma    71.54600327363082

_space_group_name_H-M_alt    "P 1"
_space_group_IT_number       1

loop_
  _space_group_symop_operation_xyz
  'x, y, z'

loop_
  _atom_site_type_symbol
  _atom_site_label
  _atom_site_symmetry_multiplicity
  _atom_site_fract_x
  _atom_site_fract_y
  _atom_site_fract_z
  _atom_site_occupancy
  C   C1        1.0  0.379101675  0.9284008149999999  0.5462878707194918  1.0000
  O   O1        1.0  0.37852296499999977  0.8637137250000001  0.5519134361369494  1.0000
  Zn  Zn1       1.0  0.7990534449999999  0.10713761499999995  0.5128126644542744  1.0000
  Zn  Zn2       1.0  0.5326391849999998  0.053429744999999945  0.4825207352531414  1.0000
  Zn  Zn3       1.0  0.781263995  0.544714225  0.5038462928793024  1.0000
  Zn  Zn4       1.0  0.2826391849999999  0.553429745  0.4627294546947545  1.0000
  Cu  Cu1       1.0  0.15763918499999996  0.303429745  0.472625094973948  1.0000
  Cu  Cu2       1.0  0.6457656649999999  0.31421042499999996  0.5118126632966399  1.0000
  Cu  Cu3       1.0  0.6576391849999998  0.303429745  0.472625094973948  1.0000
  Cu  Cu4       1.0  0.155875555  0.320794345  0.5108889266511601  1.0000
  Cu  Cu5       1.0  0.40759220500000004  0.805103175  0.49395160891478557  1.0000
  Cu  Cu6       1.0  0.9076391850000001  0.8034297450000002  0.4528338144155611  1.0000
  Cu  Cu7       1.0  0.912386375  0.8063608950000001  0.4935348488786944  1.0000
  Cu  Cu8       1.0  0.40763918499999985  0.8034297450000002  0.4528338144155611  1.0000
  Ge  Ge1       1.0  0.032639184999999946  0.053429744999999945  0.4825207352531414  1.0000
  Ge  Ge2       1.0  0.4614121649999999  0.15380386499999996  0.5159720209850247  1.0000
  Ge  Ge3       1.0  0.782639185  0.553429745  0.4627294546947545  1.0000
  Ge  Ge4       1.0  0.27647104499999986  0.558278425  0.5025029937524045  1.0000
  Se  Se1       1.0  0.721993205  0.18349687499999998  0.4876691249798241  1.0000
  Se  Se2       1.0  0.22199320499999994  0.18349687499999998  0.44808656386305035  1.0000
  Se  Se3       1.0  0.8489271049999998  0.41841305500000003  0.5183374590043386  1.0000
  Se  Se4       1.0  0.34767275499999994  0.42336261499999994  0.47771968725016567  1.0000
  Se  Se5       1.0  0.847672755  0.42336261499999994  0.47702500063614667  1.0000
  Se  Se6       1.0  0.3416710549999999  0.437843885  0.5179274818359203  1.0000
  Se  Se7       1.0  0.21321803499999994  0.18349687499999998  0.4876691249798241  1.0000
  Se  Se8       1.0  0.7132180349999998  0.18349687499999998  0.44808656386305035  1.0000
  Se  Se9       1.0  0.967360815  0.682226015  0.5079255544636162  1.0000
  Se  Se10      1.0  0.47199320499999986  0.683496875  0.4678778444214372  1.0000
  Se  Se11      1.0  0.5832611249999998  0.939216275  0.49921517122789855  1.0000
  Se  Se12      1.0  0.09767275499999992  0.9233626149999999  0.45792840669177876  1.0000
  Se  Se13      1.0  0.597672755  0.9233626149999999  0.45723372007775986  1.0000
  Se  Se14      1.0  0.0752062249999999  0.946570255  0.4991846483233702  1.0000
  Se  Se15      1.0  0.4594123649999999  0.683282955  0.508306984688957  1.0000
  Se  Se16      1.0  0.963218035  0.683496875  0.4678778444214372  1.0000
