data_image0
_chemical_formula_structural       COCu18As6Se24
_chemical_formula_sum              "C1 O1 Cu18 As6 Se24"
_cell_length_a       5.71106859
_cell_length_b       16.080016400755675
_cell_length_c       108.03238259
_cell_angle_alpha    72.03699063913652
_cell_angle_beta     90.0
_cell_angle_gamma    90.0

_space_group_name_H-M_alt    "P 1"
_space_group_IT_number       1

loop_
  _space_group_symop_operation_xyz
  'x, y, z'

loop_
  _atom_site_type_symbol
  _atom_site_label
  _atom_site_symmetry_multiplicity
  _atom_site_fract_x
  _atom_site_fract_y
  _atom_site_fract_z
  _atom_site_occupancy
  C   C1        1.0  0.7921100500000001  0.5104440599999999  0.5576766756264904  1.0000
  O   O1        1.0  0.71696658  0.54025021  0.5652211193211205  1.0000
  Cu  Cu1       1.0  0.4988026400000001  0.9424015799999998  0.51483613234721  1.0000
  Cu  Cu2       1.0  0.5155523200000001  0.27058242999999993  0.4745428118263748  1.0000
  Cu  Cu3       1.0  0.5155523200000001  0.6039157599999999  0.43542657515540156  1.0000
  Cu  Cu4       1.0  0.5155523200000001  0.7705824299999998  0.4745428118263748  1.0000
  Cu  Cu5       1.0  0.5155523200000001  0.10391575999999998  0.43542657515540156  1.0000
  Cu  Cu6       1.0  0.48355739000000003  0.4317836299999999  0.5154593525765272  1.0000
  Cu  Cu7       1.0  0.015552320000000015  0.8539157599999999  0.49410093192209215  1.0000
  Cu  Cu8       1.0  0.015552320000000015  0.18724909999999997  0.45498469525111884  1.0000
  Cu  Cu9       1.0  0.09068820000000001  0.53201068  0.527641856221424  1.0000
  Cu  Cu10      1.0  0.015552320000000015  0.6039157599999999  0.49410093192209215  1.0000
  Cu  Cu11      1.0  0.015552320000000015  0.9372490999999998  0.45498469525111884  1.0000
  Cu  Cu12      1.0  0.07191395000000002  0.2745411  0.528382416947518  1.0000
  Cu  Cu13      1.0  0.08482391000000002  0.7928887099999999  0.5272171935318956  1.0000
  Cu  Cu14      1.0  0.015552320000000015  0.10391575999999998  0.4941009319220922  1.0000
  Cu  Cu15      1.0  0.015552320000000015  0.4372491  0.45498469525111884  1.0000
  Cu  Cu16      1.0  0.5155523200000001  0.5205824299999999  0.47454281182637487  1.0000
  Cu  Cu17      1.0  0.5155523200000001  0.8539157599999999  0.43542657515540156  1.0000
  Cu  Cu18      1.0  0.50300857  0.18162471  0.5140804758829092  1.0000
  As  As1       1.0  0.52336232  0.6899762899999999  0.5132418210221604  1.0000
  As  As2       1.0  0.5155523200000001  0.02058243  0.4745428118263748  1.0000
  As  As3       1.0  0.5155523200000001  0.35391575999999997  0.43542657515540156  1.0000
  As  As4       1.0  0.015552320000000015  0.6872491  0.45498469525111884  1.0000
  As  As5       1.0  0.9844476800000002  0.02217701  0.5344532764976799  1.0000
  As  As6       1.0  0.015552320000000015  0.35391575999999997  0.49410093192209215  1.0000
  Se  Se1       1.0  0.7571893100000001  0.8235336099999998  0.5131547494519473  1.0000
  Se  Se2       1.0  0.7700681  0.14909475999999997  0.47483722448740906  1.0000
  Se  Se3       1.0  0.7700681  0.48242809  0.4357209878164358  1.0000
  Se  Se4       1.0  0.26103654000000004  0.7284139599999998  0.49345323744556996  1.0000
  Se  Se5       1.0  0.26103654000000004  0.06174728999999999  0.45433700077459654  1.0000
  Se  Se6       1.0  0.23837073  0.39005324999999996  0.5341505133023576  1.0000
  Se  Se7       1.0  0.27976082  0.6535011599999999  0.5323242387799059  1.0000
  Se  Se8       1.0  0.26103654000000004  0.9794175699999998  0.49474862639861444  1.0000
  Se  Se9       1.0  0.26103654000000004  0.31275089999999994  0.4556323862071798  1.0000
  Se  Se10      1.0  0.7623121200000001  0.5543706799999999  0.5135079995832832  1.0000
  Se  Se11      1.0  0.7700681  0.8920700999999999  0.47424839916534056  1.0000
  Se  Se12      1.0  0.7700681  0.22540343999999998  0.4351321624943673  1.0000
  Se  Se13      1.0  0.27006810000000003  0.48242809  0.49439534458312645  1.0000
  Se  Se14      1.0  0.27006810000000003  0.81576142  0.4552791079121531  1.0000
  Se  Se15      1.0  0.26554711000000003  0.13727910999999998  0.5339196696116602  1.0000
  Se  Se16      1.0  0.7610365400000002  0.7284139599999998  0.43477888067887926  1.0000
  Se  Se17      1.0  0.7667458800000002  0.06384677  0.5131790300737787  1.0000
  Se  Se18      1.0  0.7610365400000002  0.39508062  0.4738951173498525  1.0000
  Se  Se19      1.0  0.7610365400000002  0.6460842399999999  0.4751905063028971  1.0000
  Se  Se20      1.0  0.7610365400000002  0.9794175699999998  0.43607426963192386  1.0000
  Se  Se21      1.0  0.7464359800000001  0.31152296999999995  0.5139007176066526  1.0000
  Se  Se22      1.0  0.25592243000000003  0.9051845899999998  0.5340591749330057  1.0000
  Se  Se23      1.0  0.27006810000000003  0.22540343999999998  0.4938065192610579  1.0000
  Se  Se24      1.0  0.27006810000000003  0.5587367699999999  0.4546902790696233  1.0000
