data_image0
_chemical_formula_structural       COGa12
_chemical_formula_sum              "C1 O1 Ga12"
_cell_length_a       4.634366055400175
_cell_length_b       6.524406775103995
_cell_length_c       106.12765726
_cell_angle_alpha    88.43810204477286
_cell_angle_beta     86.32259561545607
_cell_angle_gamma    69.19698682094624

_space_group_name_H-M_alt    "P 1"
_space_group_IT_number       1

loop_
  _space_group_symop_operation_xyz
  'x, y, z'

loop_
  _atom_site_type_symbol
  _atom_site_label
  _atom_site_symmetry_multiplicity
  _atom_site_fract_x
  _atom_site_fract_y
  _atom_site_fract_z
  _atom_site_occupancy
  C   C1        1.0  0.4680054499999999  0.21263184499999996  0.5457636103437122  1.0000
  O   O1        1.0  0.5055843599999998  0.08868750499999996  0.553989926391456  1.0000
  Ga  Ga1       1.0  0.14184875000000002  0.28139318499999993  0.4460100736085439  1.0000
  Ga  Ga2       1.0  0.46289866  0.47313666499999996  0.5039037760459509  1.0000
  Ga  Ga3       1.0  0.80851542  0.864726515  0.47437815467528016  1.0000
  Ga  Ga4       1.0  0.17538717000000006  0.911312495  0.5099316519620515  1.0000
  Ga  Ga5       1.0  0.57935399  0.31263008499999995  0.47792505797769036  1.0000
  Ga  Ga6       1.0  0.9126873200000002  0.729296755  0.44955697691095414  1.0000
  Ga  Ga7       1.0  0.5580143999999999  0.10845390499999995  0.5171146137756145  1.0000
  Ga  Ga8       1.0  0.8586592600000001  0.6976152449999998  0.496142135993007  1.0000
  Ga  Ga9       1.0  0.19148458000000002  0.11640154499999995  0.4683822677433934  1.0000
  Ga  Ga10      1.0  0.42064601  0.6684979749999999  0.46483536784515306  1.0000
  Ga  Ga11      1.0  0.79761689  0.657241785  0.5235723206037849  1.0000
  Ga  Ga12      1.0  0.08731268  0.251831315  0.4932034489118893  1.0000
