data_image0
_chemical_formula_structural       COCu4Se8Sn2Zn2
_chemical_formula_sum              "C1 O1 Cu4 Se8 Sn2 Zn2"
_cell_length_a       7.15127973
_cell_length_b       7.151279739361461
_cell_length_c       103.02027121
_cell_angle_alpha    90.0
_cell_angle_beta     90.0
_cell_angle_gamma    109.49593433118005

_space_group_name_H-M_alt    "P 1"
_space_group_IT_number       1

loop_
  _space_group_symop_operation_xyz
  'x, y, z'

loop_
  _atom_site_type_symbol
  _atom_site_label
  _atom_site_symmetry_multiplicity
  _atom_site_fract_x
  _atom_site_fract_y
  _atom_site_fract_z
  _atom_site_occupancy
  C   C1        1.0  0.9203539649999998  0.15978752  0.5383904339072554  1.0000
  O   O1        1.0  0.8668193949999998  0.21316215  0.5477382935856246  1.0000
  Cu  Cu1       1.0  0.554095815  0.02549140999999998  0.4529873683946962  1.0000
  Cu  Cu2       1.0  0.06206241499999999  0.52772576  0.49376768060847914  1.0000
  Cu  Cu3       1.0  0.05409581499999999  0.52549141  0.4529873683946962  1.0000
  Cu  Cu4       1.0  0.5523031150000001  0.017467529999999978  0.49375826046466215  1.0000
  Se  Se1       1.0  0.446524795  0.13268909999999998  0.5138090894652346  1.0000
  Se  Se2       1.0  0.930239815  0.6312354099999998  0.47301999815178697  1.0000
  Se  Se3       1.0  0.418895815  0.6606914099999999  0.4537130303750171  1.0000
  Se  Se4       1.0  0.9231058750000001  0.15655157  0.4940729586546526  1.0000
  Se  Se5       1.0  0.424843405  0.6547591899999999  0.49278536378093124  1.0000
  Se  Se6       1.0  0.9188958150000001  0.16069140999999998  0.4522617064143754  1.0000
  Se  Se7       1.0  0.945904185  0.6323048499999999  0.5138184647359609  1.0000
  Se  Se8       1.0  0.448351815  0.14934740999999999  0.47301999815178697  1.0000
  Sn  Sn1       1.0  0.05409581499999999  0.02549140999999998  0.47301999815178697  1.0000
  Sn  Sn2       1.0  0.544535805  0.53377249  0.5156010162100583  1.0000
  Zn  Zn1       1.0  0.5540958149999999  0.52549141  0.47301999815178697  1.0000
  Zn  Zn2       1.0  0.09632410500000003  0.98253247  0.5085714766821139  1.0000
