data_image0
_chemical_formula_structural       Ga4Ni8Ga4Ni8CO
_chemical_formula_sum              "Ga8 Ni16 C1 O1"
_cell_length_a       7.07921818
_cell_length_b       6.5162551376509805
_cell_length_c       37.30249184
_cell_angle_alpha    71.72278729625988
_cell_angle_beta     90.0
_cell_angle_gamma    57.09847323240441

_space_group_name_H-M_alt    "P 1"
_space_group_IT_number       1

loop_
  _space_group_symop_operation_xyz
  'x, y, z'

loop_
  _atom_site_type_symbol
  _atom_site_label
  _atom_site_symmetry_multiplicity
  _atom_site_fract_x
  _atom_site_fract_y
  _atom_site_fract_z
  _atom_site_occupancy
  Ga  Ga1       1.0  0.121513105  0.257725345  0.5213496739970422  1.0000
  Ga  Ga2       1.0  0.5919600150000001  0.30988519499999995  0.5657912094198426  1.0000
  Ga  Ga3       1.0  0.4818628950000001  0.8743203949999999  0.4827396520082477  1.0000
  Ga  Ga4       1.0  0.951062915  0.910402775  0.5378053532515936  1.0000
  Ni  Ni1       1.0  0.02083333500000001  0.10079112499999997  0.4711299544568135  1.0000
  Ni  Ni2       1.0  0.536995685  0.08959722499999997  0.5247554135324788  1.0000
  Ni  Ni3       1.0  0.732339495  0.388169165  0.508718216893317  1.0000
  Ni  Ni4       1.0  0.20607591500000005  0.4510922949999999  0.5574819163615522  1.0000
  Ni  Ni5       1.0  0.8737534450000001  0.7435723049999999  0.4927952522813797  1.0000
  Ni  Ni6       1.0  0.34861337500000006  0.784244885  0.5406239969675513  1.0000
  Ni  Ni7       1.0  0.793163595  0.568839265  0.5565647204873427  1.0000
  Ni  Ni8       1.0  0.28709216500000007  0.597986595  0.49502084840173155  1.0000
  Ga  Ga5       1.0  0.06250000499999998  0.350791125  0.40264946698812437  1.0000
  Ga  Ga6       1.0  0.5625000050000001  0.350791125  0.4574338569630757  1.0000
  Ga  Ga7       1.0  0.47916666500000005  0.850791125  0.37525727200064873  1.0000
  Ga  Ga8       1.0  0.9791666649999998  0.850791125  0.43004166197559995  1.0000
  Ni  Ni9       1.0  0.02083333500000001  0.10079112499999997  0.3615611745069109  1.0000
  Ni  Ni10      1.0  0.5208333350000001  0.10079112499999997  0.41634556448186216  1.0000
  Ni  Ni11      1.0  0.7291666649999999  0.350791125  0.40264946698812437  1.0000
  Ni  Ni12      1.0  0.229166665  0.350791125  0.4574338569630757  1.0000
  Ni  Ni13      1.0  0.8125000049999999  0.850791125  0.37525727200064873  1.0000
  Ni  Ni14      1.0  0.312500005  0.850791125  0.43004166197559995  1.0000
  Ni  Ni15      1.0  0.7708333350000001  0.600791125  0.44373775946933786  1.0000
  Ni  Ni16      1.0  0.270833335  0.600791125  0.3889533694943865  1.0000
  C   C1        1.0  0.816027825  0.5179880849999999  0.6060457536096566  1.0000
  O   O1        1.0  0.8233809249999999  0.49702659499999996  0.6384388254930888  1.0000
