data_image0
_chemical_formula_structural       COAl8Cu8Se16
_chemical_formula_sum              "C1 O1 Al8 Cu8 Se16"
_cell_length_a       8.07194878
_cell_length_b       6.931768170199857
_cell_length_c       109.37850739000001
_cell_angle_alpha    89.31329919305767
_cell_angle_beta     90.0
_cell_angle_gamma    90.0

_space_group_name_H-M_alt    "P 1"
_space_group_IT_number       1

loop_
  _space_group_symop_operation_xyz
  'x, y, z'

loop_
  _atom_site_type_symbol
  _atom_site_label
  _atom_site_symmetry_multiplicity
  _atom_site_fract_x
  _atom_site_fract_y
  _atom_site_fract_z
  _atom_site_occupancy
  C   C1        1.0  0.8827267400000001  0.7597085799999999  0.5527748809755154  1.0000
  O   O1        1.0  0.89223386  0.7654865999999999  0.5633240331186246  1.0000
  Al  Al1       1.0  0.60868466  0.9166666599999999  0.5042349304076681  1.0000
  Al  Al2       1.0  0.10868465999999999  0.58333333  0.47423321779220223  1.0000
  Al  Al3       1.0  0.14561495  0.24380927  0.5244819661682368  1.0000
  Al  Al4       1.0  0.60868466  0.24999999999999997  0.4442315087769417  1.0000
  Al  Al5       1.0  0.85868466  0.41666665999999997  0.5042349304076681  1.0000
  Al  Al6       1.0  0.35868466  0.08333332999999998  0.4742332177922023  1.0000
  Al  Al7       1.0  0.38196399999999997  0.76540453  0.540402998929642  1.0000
  Al  Al8       1.0  0.85868466  0.75  0.4442315087769417  1.0000
  Cu  Cu1       1.0  0.60868466  0.58333333  0.47423321779220223  1.0000
  Cu  Cu2       1.0  0.10868465999999999  0.24999999999999997  0.4442315087769417  1.0000
  Cu  Cu3       1.0  0.10868465999999999  0.9166666599999999  0.5042349304076681  1.0000
  Cu  Cu4       1.0  0.63050721  0.24335770999999998  0.5277522233857437  1.0000
  Cu  Cu5       1.0  0.35868466  0.41666665999999997  0.5042349304076681  1.0000
  Cu  Cu6       1.0  0.85868466  0.08333332999999998  0.4742332177922023  1.0000
  Cu  Cu7       1.0  0.8783108199999999  0.77872047  0.5358549100707122  1.0000
  Cu  Cu8       1.0  0.35868466  0.75  0.4442315087769417  1.0000
  Se  Se1       1.0  0.60776614  0.24938765  0.466677675896636  1.0000
  Se  Se2       1.0  0.10776613999999998  0.9160543199999999  0.43667596688137544  1.0000
  Se  Se3       1.0  0.10776613999999998  0.58272099  0.49667938851210186  1.0000
  Se  Se4       1.0  0.6221709900000001  0.90217896  0.5264898510255607  1.0000
  Se  Se5       1.0  0.85960317  0.7493876499999998  0.466677675896636  1.0000
  Se  Se6       1.0  0.35960316999999997  0.41605432  0.4366759668813755  1.0000
  Se  Se7       1.0  0.35960316999999997  0.08272098999999997  0.49667938851210186  1.0000
  Se  Se8       1.0  0.8878822000000001  0.42320404  0.5264450356709093  1.0000
  Se  Se9       1.0  0.35776614  0.75061234  0.4667879033800356  1.0000
  Se  Se10      1.0  0.85776614  0.41727901  0.436786194364775  1.0000
  Se  Se11      1.0  0.85776614  0.08394566999999999  0.49678961599550137  1.0000
  Se  Se12      1.0  0.38314942999999996  0.43189162  0.5275574270815893  1.0000
  Se  Se13      1.0  0.60960317  0.58394567  0.4967896159955014  1.0000
  Se  Se14      1.0  0.10960316999999999  0.25061234  0.4667879033800356  1.0000
  Se  Se15      1.0  0.13519165  0.9059147999999999  0.5268993779702051  1.0000
  Se  Se16      1.0  0.60960317  0.91727901  0.43678619436477495  1.0000
