data_image0
_chemical_formula_structural       COGa2Co4Ni2Ga2Co4Ni2Ga2Co4Ni2Ga2Co4Ni2
_chemical_formula_sum              "C1 O1 Ga8 Co16 Ni8"
_cell_length_a       7.21359162
_cell_length_b       7.12741644
_cell_length_c       98.85436648
_cell_angle_alpha    90.0
_cell_angle_beta     90.0
_cell_angle_gamma    90.0

_space_group_name_H-M_alt    "P 1"
_space_group_IT_number       1

loop_
  _space_group_symop_operation_xyz
  'x, y, z'

loop_
  _atom_site_type_symbol
  _atom_site_label
  _atom_site_symmetry_multiplicity
  _atom_site_fract_x
  _atom_site_fract_y
  _atom_site_fract_z
  _atom_site_occupancy
  C   C1        1.0  0.37655279  0.6230207849999999  0.5266995421254244  1.0000
  O   O1        1.0  0.37654104  0.622909995  0.5390583503151417  1.0000
  Ga  Ga1       1.0  0.12654745  0.12294304499999999  0.4791846263910502  1.0000
  Ga  Ga2       1.0  0.37654745000000006  0.6229430449999999  0.4609416496848583  1.0000
  Co  Co1       1.0  0.37654745000000006  0.372943045  0.4791846263910502  1.0000
  Co  Co2       1.0  0.12654745  0.372943045  0.4609416496848583  1.0000
  Co  Co3       1.0  0.12654745  0.872943045  0.4609416496848583  1.0000
  Co  Co4       1.0  0.37654745000000006  0.872943045  0.4791846263910502  1.0000
  Ni  Ni1       1.0  0.37654745000000006  0.12294304499999999  0.4609416496848583  1.0000
  Ni  Ni2       1.0  0.12654745  0.6229430449999999  0.4791846263910502  1.0000
  Ga  Ga3       1.0  0.13137918  0.12289930499999999  0.51690078399183  1.0000
  Ga  Ga4       1.0  0.37655189  0.6230731549999999  0.4966361789845834  1.0000
  Co  Co5       1.0  0.37654462  0.38916498499999996  0.5152934230435722  1.0000
  Co  Co6       1.0  0.12674390000000002  0.36883657499999994  0.4978630177086367  1.0000
  Co  Co7       1.0  0.12673132  0.877100695  0.4978591151710597  1.0000
  Co  Co8       1.0  0.3765484600000001  0.856750115  0.515290994538513  1.0000
  Ni  Ni3       1.0  0.37654561000000003  0.12294395499999998  0.4980406313298482  1.0000
  Ni  Ni4       1.0  0.12343076000000001  0.6229885249999999  0.5153976911417958  1.0000
  Ga  Ga5       1.0  0.62654745  0.12294304499999999  0.4791846263910502  1.0000
  Ga  Ga6       1.0  0.8765474500000001  0.6229430449999999  0.4609416496848583  1.0000
  Co  Co9       1.0  0.8765474500000001  0.372943045  0.4791846263910502  1.0000
  Co  Co10      1.0  0.62654745  0.372943045  0.4609416496848583  1.0000
  Co  Co11      1.0  0.62654745  0.872943045  0.4609416496848583  1.0000
  Co  Co12      1.0  0.8765474500000001  0.872943045  0.4791846263910502  1.0000
  Ni  Ni5       1.0  0.8765474500000001  0.12294304499999999  0.4609416496848583  1.0000
  Ni  Ni6       1.0  0.62654745  0.6229430449999999  0.4791846263910502  1.0000
  Ga  Ga7       1.0  0.6217339900000001  0.12292561499999999  0.5169046164763765  1.0000
  Ga  Ga8       1.0  0.8765692400000001  0.623054035  0.4972312415337292  1.0000
  Co  Co13      1.0  0.8765439200000001  0.36943819499999997  0.514521464916778  1.0000
  Co  Co14      1.0  0.6263324400000001  0.368862185  0.49786302938414184  1.0000
  Co  Co15      1.0  0.6263434400000002  0.877080735  0.497859888673272  1.0000
  Co  Co16      1.0  0.8765476900000002  0.8765151749999999  0.5145193516503563  1.0000
  Ni  Ni7       1.0  0.8765315100000001  0.12290508499999998  0.49750470813286946  1.0000
  Ni  Ni8       1.0  0.6296657400000001  0.622987235  0.5153976123321364  1.0000
