data_image0
_chemical_formula_structural       COCu12Se18Sn6
_chemical_formula_sum              "C1 O1 Cu12 Se18 Sn6"
_cell_length_a       10.96651739075223
_cell_length_b       10.966517395364692
_cell_length_c       102.76152893
_cell_angle_alpha    81.95948055794548
_cell_angle_beta     85.77181226706307
_cell_angle_gamma    111.2158039635929

_space_group_name_H-M_alt    "P 1"
_space_group_IT_number       1

loop_
  _space_group_symop_operation_xyz
  'x, y, z'

loop_
  _atom_site_type_symbol
  _atom_site_label
  _atom_site_symmetry_multiplicity
  _atom_site_fract_x
  _atom_site_fract_y
  _atom_site_fract_z
  _atom_site_occupancy
  C   C1        1.0  0.32440702499999996  0.13061549999999997  0.5358128555658758  1.0000
  O   O1        1.0  0.35020502499999995  0.13387254999999992  0.5468150309436326  1.0000
  Cu  Cu1       1.0  0.4910292349999999  0.31802037999999994  0.4806353232972892  1.0000
  Cu  Cu2       1.0  0.823995205  0.9064375799999999  0.5072156193881624  1.0000
  Cu  Cu3       1.0  0.15769590499999997  0.73468705  0.4540677222693989  1.0000
  Cu  Cu4       1.0  0.8183395849999999  0.020330729999999922  0.46735152437740013  1.0000
  Cu  Cu5       1.0  0.151672925  0.60366407  0.4939191254052904  1.0000
  Cu  Cu6       1.0  0.453187115  0.21923917999999995  0.5177609669733796  1.0000
  Cu  Cu7       1.0  0.817605795  0.2768857  0.4946882798025989  1.0000
  Cu  Cu8       1.0  0.08778371499999997  0.8382074600000001  0.5157678133920431  1.0000
  Cu  Cu9       1.0  0.48427245499999994  0.6935523699999999  0.4681206787747086  1.0000
  Cu  Cu10      1.0  0.11825543499999998  0.26798690999999986  0.5038301502365131  1.0000
  Cu  Cu11      1.0  0.48206170499999995  0.06634160999999993  0.45483687666670747  1.0000
  Cu  Cu12      1.0  0.815395035  0.64967494  0.4814044776945976  1.0000
  Se  Se1       1.0  0.891266535  0.25137935  0.4719522891666325  1.0000
  Se  Se2       1.0  0.22525768499999999  0.83209708  0.4976523920986117  1.0000
  Se  Se3       1.0  0.560222025  0.43274998999999986  0.5241634838368552  1.0000
  Se  Se4       1.0  0.8847503649999999  0.8836119999999998  0.484215082385731  1.0000
  Se  Se5       1.0  0.217927505  0.4740861699999999  0.5111394140458202  1.0000
  Se  Se6       1.0  0.551417025  0.30027866999999997  0.4576474813578408  1.0000
  Se  Se7       1.0  0.9054659449999999  0.5163113299999998  0.49600980015226875  1.0000
  Se  Se8       1.0  0.22219458499999994  0.07481341999999994  0.5229870767925082  1.0000
  Se  Se9       1.0  0.5757970449999998  0.93180119  0.46906336530994425  1.0000
  Se  Se10      1.0  0.24554961499999997  0.2306624399999999  0.4852360880865215  1.0000
  Se  Se11      1.0  0.5740150449999999  0.81304497  0.5109523547476126  1.0000
  Se  Se12      1.0  0.912216285  0.64732911  0.4586684870586313  1.0000
  Se  Se13      1.0  0.574189325  0.55519347  0.4823471674179455  1.0000
  Se  Se14      1.0  0.8942816149999999  0.13833765999999997  0.5091014164775629  1.0000
  Se  Se15      1.0  0.24085599499999993  0.9718601300000002  0.45577956639005535  1.0000
  Se  Se16      1.0  0.574063665  0.19842863  0.4976238011079459  1.0000
  Se  Se17      1.0  0.873560175  0.7676772300000001  0.5253885319098137  1.0000
  Se  Se18      1.0  0.24151951499999996  0.61538115  0.47093128027772974  1.0000
  Sn  Sn1       1.0  0.15945959499999998  0.37005871  0.4664687679762564  1.0000
  Sn  Sn2       1.0  0.492792925  0.95339205  0.4930363721922589  1.0000
  Sn  Sn3       1.0  0.8357981649999999  0.5143766699999999  0.5222570277800689  1.0000
  Sn  Sn4       1.0  0.14407014499999998  0.9796692700000001  0.47975257008425765  1.0000
  Sn  Sn5       1.0  0.4736098849999999  0.56521294  0.5061435146242148  1.0000
  Sn  Sn6       1.0  0.8107368149999999  0.39633593999999994  0.45318496905636746  1.0000
