data_image0
_chemical_formula_structural       COAg6As6Se12
_chemical_formula_sum              "C1 O1 Ag6 As6 Se12"
_cell_length_a       10.486526715919785
_cell_length_b       7.023939267461076
_cell_length_c       101.45958016
_cell_angle_alpha    96.12170107253903
_cell_angle_beta     98.2132107286147
_cell_angle_gamma    71.3417906702031

_space_group_name_H-M_alt    "P 1"
_space_group_IT_number       1

loop_
  _space_group_symop_operation_xyz
  'x, y, z'

loop_
  _atom_site_type_symbol
  _atom_site_label
  _atom_site_symmetry_multiplicity
  _atom_site_fract_x
  _atom_site_fract_y
  _atom_site_fract_z
  _atom_site_occupancy
  C   C1        1.0  0.21048075499999994  0.7000524450000001  0.5397211555433722  1.0000
  O   O1        1.0  0.23291749499999997  0.7909353150000002  0.5493910506765416  1.0000
  Ag  Ag1       1.0  0.43749999500000003  0.874605965  0.46352853703314667  1.0000
  Ag  Ag2       1.0  0.8124999949999999  0.8746059649999999  0.47644812474283493  1.0000
  Ag  Ag3       1.0  0.062499994999999954  0.874605965  0.4506089493234584  1.0000
  Ag  Ag4       1.0  0.6102839449999999  0.8082425950000001  0.5080422008512229  1.0000
  Ag  Ag5       1.0  0.949712875  0.8893458649999999  0.515487315252457  1.0000
  Ag  Ag6       1.0  0.18749999499999995  0.874605965  0.4893677093518224  1.0000
  As  As1       1.0  0.499999995  0.37460596500000004  0.48290791704732866  1.0000
  As  As2       1.0  0.7499999949999999  0.37460596500000004  0.4570687447286529  1.0000
  As  As3       1.0  0.12499999499999995  0.374605965  0.46998832933764034  1.0000
  As  As4       1.0  0.6047406849999999  0.3324409550000001  0.5199850212976843  1.0000
  As  As5       1.0  0.905595515  0.391345805  0.5000484298458305  1.0000
  As  As6       1.0  0.27809850499999994  0.333220155  0.5077709515450405  1.0000
  Se  Se1       1.0  0.34083513499999996  0.13859733500000013  0.4861980675679156  1.0000
  Se  Se2       1.0  0.5908351350000001  0.13859733500000013  0.46035889524923995  1.0000
  Se  Se3       1.0  0.9658351350000001  0.13859733500000013  0.4732784798582274  1.0000
  Se  Se4       1.0  0.284164865  0.6106145950000001  0.46669817881705344  1.0000
  Se  Se5       1.0  0.6591648649999999  0.6106145950000003  0.4796177665267417  1.0000
  Se  Se6       1.0  0.909164865  0.6106145950000003  0.453778594208066  1.0000
  Se  Se7       1.0  0.463312195  0.12910165500000007  0.5241595350968897  1.0000
  Se  Se8       1.0  0.7004726450000001  0.13970671499999993  0.5000822739950873  1.0000
  Se  Se9       1.0  0.09927621499999995  0.11065413500000007  0.5109373220896007  1.0000
  Se  Se10      1.0  0.417563555  0.5908238150000001  0.5077090119458142  1.0000
  Se  Se11      1.0  0.850096125  0.6116562249999999  0.5204393173750281  1.0000
  Se  Se12      1.0  0.034164864999999954  0.6106145950000001  0.4925373542364299  1.0000
