data_image0
_chemical_formula_structural       COGe12Os6Ge12Os6
_chemical_formula_sum              "C1 O1 Ge24 Os12"
_cell_length_a       10.928223461307738
_cell_length_b       6.30017066
_cell_length_c       104.63182947
_cell_angle_alpha    90.0
_cell_angle_beta     88.97918829069263
_cell_angle_gamma    98.28667914985593

_space_group_name_H-M_alt    "P 1"
_space_group_IT_number       1

loop_
  _space_group_symop_operation_xyz
  'x, y, z'

loop_
  _atom_site_type_symbol
  _atom_site_label
  _atom_site_symmetry_multiplicity
  _atom_site_fract_x
  _atom_site_fract_y
  _atom_site_fract_z
  _atom_site_occupancy
  C   C1        1.0  0.020723799999999983  0.12375146000000006  0.5391919919611278  1.0000
  O   O1        1.0  0.041740899999999984  0.04652901000000005  0.5490832527179023  1.0000
  Ge  Ge1       1.0  0.7400419699999999  0.18623196000000006  0.5173448729206028  1.0000
  Ge  Ge2       1.0  0.07393741999999999  0.017634780000000048  0.4884362808323442  1.0000
  Ge  Ge3       1.0  0.40727075  0.35096812  0.46085398551490453  1.0000
  Ge  Ge4       1.0  0.2583407  0.31373560000000006  0.47849904259953735  1.0000
  Ge  Ge5       1.0  0.59167403  0.14706894  0.45091674728209763  1.0000
  Ge  Ge6       1.0  0.91666911  0.47724299  0.5056830738768742  1.0000
  Ge  Ge7       1.0  0.5246525099999999  0.13031356000000002  0.4859515906384976  1.0000
  Ge  Ge8       1.0  0.85798584  0.46364690000000003  0.45836929863093306  1.0000
  Ge  Ge9       1.0  0.19539025999999998  0.2963415000000001  0.5149642220330787  1.0000
  Ge  Ge10      1.0  0.47780471999999996  0.3692338300000001  0.5096073876575985  1.0000
  Ge  Ge11      1.0  0.80762561  0.20105684000000004  0.48098373279338397  1.0000
  Ge  Ge12      1.0  0.14095893999999995  0.034390160000000045  0.4534014374759443  1.0000
  Os  Os1       1.0  0.69458619  0.4254827500000001  0.4974322038053644  1.0000
  Os  Os2       1.0  0.030650909999999983  0.25681316000000004  0.46993405213458045  1.0000
  Os  Os3       1.0  0.35922413  0.07668255000000004  0.5227713106611024  1.0000
  Os  Os4       1.0  0.2996330199999999  0.07463602000000004  0.4965850180856313  1.0000
  Os  Os5       1.0  0.63496054  0.40789057000000006  0.4694189792897366  1.0000
  Os  Os6       1.0  0.9792761999999999  0.24874713999999998  0.5234784059141254  1.0000
  Ge  Ge13      1.0  0.7376828499999999  0.6845929599999999  0.5175068184930822  1.0000
  Ge  Ge14      1.0  0.07393741999999999  0.51763478  0.4884362808323442  1.0000
  Ge  Ge15      1.0  0.40727075  0.8509681200000001  0.46085398551490453  1.0000
  Ge  Ge16      1.0  0.2583407  0.8137356000000002  0.47849904259953735  1.0000
  Ge  Ge17      1.0  0.59167403  0.6470689399999999  0.45091674728209763  1.0000
  Ge  Ge18      1.0  0.92116823  0.9823652199999999  0.5064821571807137  1.0000
  Ge  Ge19      1.0  0.5246525099999999  0.6303135599999999  0.4859515906384976  1.0000
  Ge  Ge20      1.0  0.85798584  0.9636468999999999  0.45836929863093306  1.0000
  Ge  Ge21      1.0  0.18817806999999995  0.7929866299999998  0.5140445334976744  1.0000
  Ge  Ge22      1.0  0.47787588  0.8668023400000001  0.5085417567961779  1.0000
  Ge  Ge23      1.0  0.80762561  0.7010568400000001  0.48098373279338397  1.0000
  Ge  Ge24      1.0  0.14095893999999995  0.53439016  0.4534014374759443  1.0000
  Os  Os7       1.0  0.6976637099999998  0.92530242  0.4976018911758741  1.0000
  Os  Os8       1.0  0.030650909999999983  0.7568131600000001  0.46993405213458045  1.0000
  Os  Os9       1.0  0.3577463699999999  0.59929879  0.5228232194334452  1.0000
  Os  Os10      1.0  0.29961161  0.5725925900000001  0.4965768261445775  1.0000
  Os  Os11      1.0  0.63496054  0.9078905700000001  0.4694189792897366  1.0000
  Os  Os12      1.0  0.97091561  0.7327547700000001  0.5226329711183589  1.0000
