data_image0
_chemical_formula_structural       COGe8Pt8Ge8Pt8
_chemical_formula_sum              "C1 O1 Ge16 Pt16"
_cell_length_a       12.385994746535443
_cell_length_b       6.21741318
_cell_length_c       99.9972804
_cell_angle_alpha    90.0
_cell_angle_beta     72.37812043320028
_cell_angle_gamma    90.0

_space_group_name_H-M_alt    "P 1"
_space_group_IT_number       1

loop_
  _space_group_symop_operation_xyz
  'x, y, z'

loop_
  _atom_site_type_symbol
  _atom_site_label
  _atom_site_symmetry_multiplicity
  _atom_site_fract_x
  _atom_site_fract_y
  _atom_site_fract_z
  _atom_site_occupancy
  C   C1        1.0  0.8503211300000002  0.34991258999999997  0.5385560626132644  1.0000
  O   O1        1.0  0.7919495900000002  0.40462623  0.5493810436265582  1.0000
  Ge  Ge1       1.0  0.08113832000000004  0.4485674699999999  0.5149566863025239  1.0000
  Ge  Ge2       1.0  0.59844154  0.42185925999999996  0.49317630155296466  1.0000
  Ge  Ge3       1.0  0.38318981  0.5373411399999999  0.5174218068583648  1.0000
  Ge  Ge4       1.0  0.8945934700000001  0.59231545  0.5013485119192714  1.0000
  Ge  Ge5       1.0  0.3334404600000001  0.08533921999999998  0.5046309156078024  1.0000
  Ge  Ge6       1.0  0.8390239300000002  0.06940893999999999  0.5204192526312045  1.0000
  Ge  Ge7       1.0  0.15645929000000006  0.9305910599999999  0.4908848789737139  1.0000
  Ge  Ge8       1.0  0.64582205  0.91412498  0.5118881720399098  1.0000
  Pt  Pt1       1.0  0.49799459000000007  0.8035013699999999  0.4980356691624978  1.0000
  Pt  Pt2       1.0  0.002685550000000041  0.8165051699999999  0.512626914157055  1.0000
  Pt  Pt3       1.0  0.9995366400000001  0.22083994999999998  0.4983201621076974  1.0000
  Pt  Pt4       1.0  0.49355734000000007  0.19776438999999998  0.5130985802236706  1.0000
  Pt  Pt5       1.0  0.2500270500000001  0.6981303999999999  0.5058810412709693  1.0000
  Pt  Pt6       1.0  0.7504633600000001  0.70032378  0.48812176932918033  1.0000
  Pt  Pt7       1.0  0.25060182000000003  0.31343186  0.48811657665872316  1.0000
  Pt  Pt8       1.0  0.7449930800000002  0.30140407999999996  0.5058088898499212  1.0000
  Ge  Ge9       1.0  0.09436111000000004  0.41998062999999997  0.4752264217077414  1.0000
  Ge  Ge10      1.0  0.59436111  0.41998062999999997  0.4564776115651008  1.0000
  Ge  Ge11      1.0  0.40670407000000003  0.5937750099999999  0.48226311413752126  1.0000
  Ge  Ge12      1.0  0.9067040700000001  0.5937750099999999  0.4635143039948806  1.0000
  Ge  Ge13      1.0  0.34436111  0.09377500999999998  0.4658520166364211  1.0000
  Ge  Ge14      1.0  0.84436111  0.09377500999999998  0.48460082677906174  1.0000
  Ge  Ge15      1.0  0.15670407000000006  0.9199806299999999  0.4541398989235603  1.0000
  Ge  Ge16      1.0  0.6567040700000001  0.9199806299999999  0.47288870906620095  1.0000
  Pt  Pt9       1.0  0.50046336  0.81343186  0.4599985541152193  1.0000
  Pt  Pt10      1.0  0.0004633600000001348  0.81343186  0.4787473642578599  1.0000
  Pt  Pt11      1.0  0.0006018200000000403  0.20032377999999998  0.4599933614447622  1.0000
  Pt  Pt12      1.0  0.5006018200000001  0.20032377999999998  0.47874217158740284  1.0000
  Pt  Pt13      1.0  0.2504633600000001  0.70032378  0.4693729591865396  1.0000
  Pt  Pt14      1.0  0.7504633600000001  0.70032378  0.450624149043899  1.0000
  Pt  Pt15      1.0  0.25060182000000003  0.31343186  0.45061895637344185  1.0000
  Pt  Pt16      1.0  0.7506018200000001  0.31343186  0.4693677665160825  1.0000
