data_image0
_chemical_formula_structural       COTi8As16Ti8As16Ti8As16
_chemical_formula_sum              "C1 O1 Ti24 As48"
_cell_length_a       9.0148605
_cell_length_b       13.827393682807761
_cell_length_c       101.77448083
_cell_angle_alpha    104.79292339408279
_cell_angle_beta     90.0
_cell_angle_gamma    90.0

_space_group_name_H-M_alt    "P 1"
_space_group_IT_number       1

loop_
  _space_group_symop_operation_xyz
  'x, y, z'

loop_
  _atom_site_type_symbol
  _atom_site_label
  _atom_site_symmetry_multiplicity
  _atom_site_fract_x
  _atom_site_fract_y
  _atom_site_fract_z
  _atom_site_occupancy
  C   C1        1.0  0.4884712600000001  0.36093643999999997  0.5514530484582549  1.0000
  O   O1        1.0  0.49580686000000007  0.41547803999999994  0.5622148320054432  1.0000
  Ti  Ti1       1.0  0.6740927900000001  0.49278864  0.43778516799455697  1.0000
  Ti  Ti2       1.0  0.5197241699999999  0.74650514  0.4465864459270881  1.0000
  Ti  Ti3       1.0  0.48351101000000013  0.25349486  0.46417362570604215  1.0000
  Ti  Ti4       1.0  0.82914239  0.9927886399999999  0.43778516799455697  1.0000
  Ti  Ti5       1.0  0.9835110100000001  0.24650514000000004  0.4465864459270881  1.0000
  Ti  Ti6       1.0  0.17409278999999997  0.0072113600000000165  0.438285482421164  1.0000
  Ti  Ti7       1.0  0.019724169999999996  0.7534948599999999  0.4641736257060421  1.0000
  Ti  Ti8       1.0  0.32914238999999995  0.5072113599999999  0.438285482421164  1.0000
  As  As1       1.0  0.49015184000000006  0.4002199699999999  0.4519187258532203  1.0000
  As  As2       1.0  0.72662283  0.80137348  0.46583450837982193  1.0000
  As  As3       1.0  0.013083339999999995  0.9002199699999999  0.4519187258532203  1.0000
  As  As4       1.0  0.7766123500000001  0.30137348  0.4658345083798219  1.0000
  As  As5       1.0  0.11585468999999998  0.55897625  0.45742588729475553  1.0000
  As  As6       1.0  0.33671243  0.8384960599999999  0.4671222688601022  1.0000
  As  As7       1.0  0.66652275  0.16150394  0.443637802773028  1.0000
  As  As8       1.0  0.16652274999999997  0.33849605999999993  0.4671222688601022  1.0000
  As  As9       1.0  0.61585469  0.94102375  0.45333418433837475  1.0000
  As  As10      1.0  0.38738049  0.058976250000000015  0.45742588729475553  1.0000
  As  As11      1.0  0.22662283  0.6986265199999999  0.44492556637535635  1.0000
  As  As12      1.0  0.99015184  0.09978003000000002  0.458841348901958  1.0000
  As  As13      1.0  0.27661234999999995  0.19862652  0.44492556637535635  1.0000
  As  As14      1.0  0.5130833400000001  0.59978003  0.458841348901958  1.0000
  As  As15      1.0  0.8367124300000001  0.66150394  0.44363780277302806  1.0000
  As  As16      1.0  0.8873804900000001  0.44102374999999994  0.45333418433837475  1.0000
  Ti  Ti9       1.0  0.6740927900000001  0.49278864  0.4724745892119663  1.0000
  Ti  Ti10      1.0  0.5197241699999999  0.74650514  0.48127586714449744  1.0000
  Ti  Ti11      1.0  0.48351101000000013  0.25349486  0.49886304692345157  1.0000
  Ti  Ti12      1.0  0.82914239  0.9927886399999999  0.47247458921196633  1.0000
  Ti  Ti13      1.0  0.9835110100000001  0.24650514000000004  0.4812758671444975  1.0000
  Ti  Ti14      1.0  0.17409278999999997  0.0072113600000000165  0.4729749067606213  1.0000
  Ti  Ti15      1.0  0.019724169999999996  0.7534948599999999  0.49886304692345146  1.0000
  Ti  Ti16      1.0  0.32914238999999995  0.5072113599999999  0.47297490676062126  1.0000
  As  As17      1.0  0.49015184000000006  0.4002199699999999  0.4866081470706296  1.0000
  As  As18      1.0  0.72662283  0.80137348  0.5005239295972312  1.0000
  As  As19      1.0  0.013083339999999995  0.9002199699999999  0.48660814707062955  1.0000
  As  As20      1.0  0.7766123500000001  0.30137348  0.5005239295972312  1.0000
  As  As21      1.0  0.11585468999999998  0.55897625  0.49211531163421285  1.0000
  As  As22      1.0  0.33671243  0.8384960599999999  0.5018116900775116  1.0000
  As  As23      1.0  0.66652275  0.16150394  0.47832722711248526  1.0000
  As  As24      1.0  0.16652274999999997  0.33849605999999993  0.5018116900775116  1.0000
  As  As25      1.0  0.61585469  0.94102375  0.48802360555578406  1.0000
  As  As26      1.0  0.38738049  0.058976250000000015  0.49211531163421285  1.0000
  As  As27      1.0  0.22662283  0.6986265199999999  0.47961498759276566  1.0000
  As  As28      1.0  0.99015184  0.09978003000000002  0.49353077011936736  1.0000
  As  As29      1.0  0.27661234999999995  0.19862652  0.47961498759276566  1.0000
  As  As30      1.0  0.5130833400000001  0.59978003  0.4935307701193673  1.0000
  As  As31      1.0  0.8367124300000001  0.66150394  0.47832722711248526  1.0000
  As  As32      1.0  0.8873804900000001  0.44102374999999994  0.48802360555578406  1.0000
  Ti  Ti17      1.0  0.67170187  0.48678735999999995  0.5065005689978624  1.0000
  Ti  Ti18      1.0  0.51260866  0.7402974  0.5159555912810028  1.0000
  Ti  Ti19      1.0  0.47682332  0.26168434999999995  0.5315578978611218  1.0000
  Ti  Ti20      1.0  0.8316699200000001  0.9867543399999998  0.506508767495755  1.0000
  Ti  Ti21      1.0  0.99035182  0.23895856999999998  0.5155313236981374  1.0000
  Ti  Ti22      1.0  0.17644826999999996  0.0077076300000000165  0.5072684054684197  1.0000
  Ti  Ti23      1.0  0.028602469999999994  0.76086217  0.5311352818416171  1.0000
  Ti  Ti24      1.0  0.32725235  0.5073593399999999  0.5072857328344911  1.0000
  As  As33      1.0  0.49379953  0.41130982999999993  0.5216420082271064  1.0000
  As  As34      1.0  0.7297078300000001  0.78686278  0.534832170615406  1.0000
  As  As35      1.0  0.009648179999999996  0.90988891  0.5215068766260853  1.0000
  As  As36      1.0  0.7788132700000001  0.28538516999999997  0.5349446985893358  1.0000
  As  As37      1.0  0.14646186  0.5745060399999999  0.5283643050697234  1.0000
  As  As38      1.0  0.31590359999999995  0.8079806999999999  0.5362343760070518  1.0000
  As  As39      1.0  0.67455213  0.16154084000000002  0.5141795144043517  1.0000
  As  As40      1.0  0.18238985  0.30863335  0.5362428305128756  1.0000
  As  As41      1.0  0.6358694300000001  0.92279863  0.523799202862033  1.0000
  As  As42      1.0  0.35548289  0.07533875000000001  0.5283820601563626  1.0000
  As  As43      1.0  0.22474137999999996  0.69596239  0.5133076075877363  1.0000
  As  As44      1.0  0.08013626999999998  0.13098066  0.5344084337806906  1.0000
  As  As45      1.0  0.27853875  0.19798972  0.5135024202571935  1.0000
  As  As46      1.0  0.42187275999999996  0.62962597  0.5343968478607825  1.0000
  As  As47      1.0  0.8322567900000001  0.66016188  0.5141472043302124  1.0000
  As  As48      1.0  0.86949198  0.42181124  0.5237679324298581  1.0000
