data_image0
_chemical_formula_structural       COGa12Ti4
_chemical_formula_sum              "C1 O1 Ga12 Ti4"
_cell_length_a       5.20584302
_cell_length_b       5.205843022274845
_cell_length_c       102.54830303
_cell_angle_alpha    90.0
_cell_angle_beta     90.0
_cell_angle_gamma    117.19834363969301

_space_group_name_H-M_alt    "P 1"
_space_group_IT_number       1

loop_
  _space_group_symop_operation_xyz
  'x, y, z'

loop_
  _atom_site_type_symbol
  _atom_site_label
  _atom_site_symmetry_multiplicity
  _atom_site_fract_x
  _atom_site_fract_y
  _atom_site_fract_z
  _atom_site_occupancy
  C   C1        1.0  0.999999545  0.24999654  0.5500569809935343  1.0000
  O   O1        1.0  6.20499999995491e-06  0.25000327  0.5614259882661442  1.0000
  Ga  Ga1       1.0  1.884999999903385e-06  0.7499986399999999  0.4385740117338558  1.0000
  Ga  Ga2       1.0  0.500001885  0.24999863999999997  0.46502358132395916  1.0000
  Ga  Ga3       1.0  0.500001885  0.24999863999999997  0.4385740117338558  1.0000
  Ga  Ga4       1.0  1.884999999903385e-06  0.7499986399999999  0.46502358132395916  1.0000
  Ga  Ga5       1.0  0.500001885  0.7499986399999999  0.47824836770598506  1.0000
  Ga  Ga6       1.0  1.884999999946038e-06  0.24999863999999997  0.45179879494193326  1.0000
  Ga  Ga7       1.0  1.884999999903385e-06  0.7499986399999999  0.4914731509140625  1.0000
  Ga  Ga8       1.0  0.500007105  0.25001217  0.5195228571073883  1.0000
  Ga  Ga9       1.0  0.500001885  0.24999863999999997  0.4914731509140625  1.0000
  Ga  Ga10      1.0  1.6134999999965086e-05  0.75000346  0.5195222857966624  1.0000
  Ga  Ga11      1.0  0.499995005  0.74998866  0.5331611804105314  1.0000
  Ga  Ga12      1.0  4.5499999989928597e-07  0.24999899  0.5039799711067259  1.0000
  Ti  Ti1       1.0  0.500001885  0.7499986399999999  0.45179879494193326  1.0000
  Ti  Ti2       1.0  1.884999999946038e-06  0.24999863999999997  0.47824836770598506  1.0000
  Ti  Ti3       1.0  0.49999991499999996  0.7499966  0.5040568568346514  1.0000
  Ti  Ti4       1.0  4.474999999958614e-06  0.25000047000000003  0.5292462641387801  1.0000
