data_image0
_chemical_formula_structural       COGe8Re4Ge8Re4
_chemical_formula_sum              "C1 O1 Ge16 Re8"
_cell_length_a       7.006610398226708
_cell_length_b       6.444167977625702
_cell_length_c       106.54862029
_cell_angle_alpha    92.5263832445182
_cell_angle_beta     92.5377666940112
_cell_angle_gamma    76.70694799354202

_space_group_name_H-M_alt    "P 1"
_space_group_IT_number       1

loop_
  _space_group_symop_operation_xyz
  'x, y, z'

loop_
  _atom_site_type_symbol
  _atom_site_label
  _atom_site_symmetry_multiplicity
  _atom_site_fract_x
  _atom_site_fract_y
  _atom_site_fract_z
  _atom_site_occupancy
  C   C1        1.0  0.9389968100000001  0.17309986499999996  0.5377099569189947  1.0000
  O   O1        1.0  0.9755345300000001  0.172486255  0.5487451075958893  1.0000
  Ge  Ge1       1.0  0.50746079  0.28881088499999996  0.5320759904689887  1.0000
  Ge  Ge2       1.0  0.44199584000000003  0.01599188499999999  0.49106627470306874  1.0000
  Ge  Ge3       1.0  0.5793013300000001  0.5070229549999999  0.5131447159910696  1.0000
  Ge  Ge4       1.0  0.45731379000000005  0.24702116500000001  0.4702911078880689  1.0000
  Ge  Ge5       1.0  0.87484415  0.160014705  0.494132759088967  1.0000
  Ge  Ge6       1.0  0.7498441500000002  0.410014705  0.4512548924041107  1.0000
  Ge  Ge7       1.0  0.02446547000000002  0.10299834499999999  0.4672246235021707  1.0000
  Ge  Ge8       1.0  0.13993971000000002  0.34437497499999997  0.5102782448474537  1.0000
  Re  Re1       1.0  0.8535436500000001  0.184058175  0.5200756967455405  1.0000
  Re  Re2       1.0  0.7462495000000001  0.4289106650000001  0.47594884239713575  1.0000
  Re  Re3       1.0  0.26515423000000005  0.048996664999999974  0.5272484949471968  1.0000
  Re  Re4       1.0  0.15306012000000005  0.33410237499999995  0.48540854019400204  1.0000
  Ge  Ge9       1.0  0.57797337  0.7630944550000001  0.5342865880428758  1.0000
  Ge  Ge10      1.0  0.44199584000000003  0.5159918849999999  0.49106627470306874  1.0000
  Ge  Ge11      1.0  0.58124794  0.984008115  0.5134099687650702  1.0000
  Ge  Ge12      1.0  0.45731379000000005  0.747021165  0.4702911078880689  1.0000
  Ge  Ge13      1.0  0.87484415  0.660014705  0.4941327590889671  1.0000
  Ge  Ge14      1.0  0.7498441500000002  0.9100147049999999  0.4512548924041107  1.0000
  Ge  Ge15      1.0  0.02446547000000002  0.602998345  0.4672246235021707  1.0000
  Ge  Ge16      1.0  0.12886966000000002  0.8654603249999999  0.5086669151988128  1.0000
  Re  Re5       1.0  0.8847143300000001  0.667090945  0.5195457571853798  1.0000
  Re  Re6       1.0  0.7462495000000001  0.928910665  0.47594884239713575  1.0000
  Re  Re7       1.0  0.24574705000000008  0.6373359450000001  0.5266489080106224  1.0000
  Re  Re8       1.0  0.15306012000000005  0.8341023750000002  0.48540854019400204  1.0000
