data_image0
_chemical_formula_structural       COAs12Rh12As12Rh12
_chemical_formula_sum              "C1 O1 As24 Rh24"
_cell_length_a       13.627699440379097
_cell_length_b       7.30824082
_cell_length_c       103.74261736
_cell_angle_alpha    90.0
_cell_angle_beta     112.17719386459838
_cell_angle_gamma    90.0

_space_group_name_H-M_alt    "P 1"
_space_group_IT_number       1

loop_
  _space_group_symop_operation_xyz
  'x, y, z'

loop_
  _atom_site_type_symbol
  _atom_site_label
  _atom_site_symmetry_multiplicity
  _atom_site_fract_x
  _atom_site_fract_y
  _atom_site_fract_z
  _atom_site_occupancy
  C   C1        1.0  0.2863008249999999  0.38032633499999996  0.5374903838921458  1.0000
  O   O1        1.0  0.3006990749999999  0.380331035  0.5493378094424487  1.0000
  As  As1       1.0  0.8679177749999998  0.12933123500000002  0.5254618508599177  1.0000
  As  As2       1.0  0.533505015  0.130391545  0.47168449798415557  1.0000
  As  As3       1.0  0.20192194499999994  0.13067250500000002  0.49933570938735256  1.0000
  As  As4       1.0  0.459265665  0.380411005  0.5262059651107499  1.0000
  As  As5       1.0  0.12670466499999994  0.38039154499999994  0.47299419175663726  1.0000
  As  As6       1.0  0.8003289049999999  0.380392115  0.4999014060001508  1.0000
  As  As7       1.0  0.589087575  0.131005875  0.5079847641870333  1.0000
  As  As8       1.0  0.25693585499999994  0.130391545  0.4535165963008813  1.0000
  As  As9       1.0  0.9236025249999997  0.130391545  0.48062103106941223  1.0000
  As  As10      1.0  0.7366071549999998  0.38039154499999994  0.46405765867138055  1.0000
  As  As11      1.0  0.4032738149999999  0.38039154499999994  0.49116209018737955  1.0000
  As  As12      1.0  0.06139064499999998  0.380405085  0.5179420393622396  1.0000
  Rh  Rh1       1.0  0.5996198649999999  0.130391545  0.45066219055755113  1.0000
  Rh  Rh2       1.0  0.26628653499999994  0.130391545  0.47776662207355014  1.0000
  Rh  Rh3       1.0  0.9394101949999999  0.11953620500000002  0.5053656953901974  1.0000
  Rh  Rh4       1.0  0.7384669049999999  0.380318695  0.5186691688914272  1.0000
  Rh  Rh5       1.0  0.393923145  0.38039154499999994  0.4669120644147108  1.0000
  Rh  Rh6       1.0  0.06058980499999997  0.38039154499999994  0.49401649593070973  1.0000
  Rh  Rh7       1.0  0.401905965  0.12893648500000005  0.5086816516745029  1.0000
  Rh  Rh8       1.0  0.06254113499999997  0.130391545  0.4536771835589736  1.0000
  Rh  Rh9       1.0  0.7292078049999999  0.130391545  0.4807816183275045  1.0000
  Rh  Rh10      1.0  0.9310018749999998  0.38039154499999994  0.46389706816075643  1.0000
  Rh  Rh11      1.0  0.597668545  0.38039154499999994  0.49100150292928735  1.0000
  Rh  Rh12      1.0  0.26839495499999994  0.380508295  0.5185270430044677  1.0000
  As  As13      1.0  0.8678407449999997  0.6314623450000001  0.5254538821567333  1.0000
  As  As14      1.0  0.533505015  0.630391545  0.47168449798415557  1.0000
  As  As15      1.0  0.20189285499999995  0.6299743449999999  0.49931359867541464  1.0000
  As  As16      1.0  0.453513815  0.8803737650000001  0.5264138246676514  1.0000
  As  As17      1.0  0.12670466499999994  0.8803915449999999  0.47299419175663726  1.0000
  As  As18      1.0  0.7948878649999997  0.880396825  0.4995943995129752  1.0000
  As  As19      1.0  0.589103065  0.6297899650000001  0.5079856326130539  1.0000
  As  As20      1.0  0.25693585499999994  0.630391545  0.4535165963008813  1.0000
  As  As21      1.0  0.9236025249999997  0.630391545  0.48062103106941223  1.0000
  As  As22      1.0  0.7366071549999998  0.8803915449999999  0.46405765867138055  1.0000
  As  As23      1.0  0.4032738149999999  0.8803915449999999  0.49116209018737955  1.0000
  As  As24      1.0  0.07959395499999997  0.880386455  0.518332460282831  1.0000
  Rh  Rh13      1.0  0.5996198649999999  0.630391545  0.45066219055755113  1.0000
  Rh  Rh14      1.0  0.26628653499999994  0.630391545  0.47776662207355014  1.0000
  Rh  Rh15      1.0  0.9393993949999999  0.641248965  0.5053647521559429  1.0000
  Rh  Rh16      1.0  0.7369614949999999  0.8804637949999999  0.5186668270684506  1.0000
  Rh  Rh17      1.0  0.393923145  0.8803915449999999  0.4669120644147108  1.0000
  Rh  Rh18      1.0  0.06058980499999997  0.8803915449999999  0.49401649593070973  1.0000
  Rh  Rh19      1.0  0.4019185149999999  0.6318538250000001  0.5086803376516105  1.0000
  Rh  Rh20      1.0  0.06254113499999997  0.630391545  0.4536771835589736  1.0000
  Rh  Rh21      1.0  0.7292078049999999  0.630391545  0.4807816183275045  1.0000
  Rh  Rh22      1.0  0.9310018749999998  0.8803915449999999  0.46389706816075643  1.0000
  Rh  Rh23      1.0  0.597668545  0.8803915449999999  0.49100150292928735  1.0000
  Rh  Rh24      1.0  0.2617947749999999  0.8802706149999999  0.5160640502039621  1.0000
