data_image0
_chemical_formula_structural       COSb4Pt4Sb4Pt4
_chemical_formula_sum              "C1 O1 Sb8 Pt8"
_cell_length_a       7.036472179504116
_cell_length_b       7.3304288
_cell_length_c       103.85780034
_cell_angle_alpha    90.0
_cell_angle_beta     72.49825376733929
_cell_angle_gamma    58.608159778119145

_space_group_name_H-M_alt    "P 1"
_space_group_IT_number       1

loop_
  _space_group_symop_operation_xyz
  'x, y, z'

loop_
  _atom_site_type_symbol
  _atom_site_label
  _atom_site_symmetry_multiplicity
  _atom_site_fract_x
  _atom_site_fract_y
  _atom_site_fract_z
  _atom_site_occupancy
  C   C1        1.0  0.746609945  0.21391697499999993  0.5392174640100745  1.0000
  O   O1        1.0  0.672293395  0.27553508499999996  0.5510780674585135  1.0000
  Sb  Sb1       1.0  0.125447705  0.821522455  0.4947658957029008  1.0000
  Sb  Sb2       1.0  0.12172980500000001  0.324738395  0.5153623193904241  1.0000
  Sb  Sb3       1.0  0.6167840550000001  0.40106806499999986  0.5056517415789938  1.0000
  Sb  Sb4       1.0  0.6536230949999999  0.869798045  0.5232969159240455  1.0000
  Pt  Pt1       1.0  0.871144905  0.09514421500000003  0.5201359139462836  1.0000
  Pt  Pt2       1.0  0.8782701949999999  0.5925476449999999  0.49873274408761964  1.0000
  Pt  Pt3       1.0  0.37544770499999996  0.36318912500000006  0.48967212201829924  1.0000
  Pt  Pt4       1.0  0.37970911500000004  0.876768155  0.5090648307488895  1.0000
  Sb  Sb5       1.0  0.125447705  0.821522455  0.45401570622608795  1.0000
  Sb  Sb6       1.0  0.125447705  0.32152245499999993  0.47439080096449443  1.0000
  Sb  Sb7       1.0  0.625447705  0.404855785  0.4642032535952912  1.0000
  Sb  Sb8       1.0  0.625447705  0.904855785  0.4845783483336977  1.0000
  Pt  Pt5       1.0  0.8754477049999999  0.11318912500000008  0.479484574649096  1.0000
  Pt  Pt6       1.0  0.8754477049999999  0.6131891250000002  0.45910947991068957  1.0000
  Pt  Pt7       1.0  0.37544770499999996  0.36318912500000006  0.4489219325414863  1.0000
  Pt  Pt8       1.0  0.37544770499999996  0.8631891250000001  0.46929702727989275  1.0000
