data_image0
_chemical_formula_structural       COCu6Ti3Zn3Cu6Ti3Zn3Cu6Ti3Zn3Cu6Ti3Zn3
_chemical_formula_sum              "C1 O1 Cu24 Ti12 Zn12"
_cell_length_a       8.573426767235372
_cell_length_b       8.57342676
_cell_length_c       101.50078136
_cell_angle_alpha    90.0
_cell_angle_beta     90.0
_cell_angle_gamma    119.99999997208302

_space_group_name_H-M_alt    "P 1"
_space_group_IT_number       1

loop_
  _space_group_symop_operation_xyz
  'x, y, z'

loop_
  _atom_site_type_symbol
  _atom_site_label
  _atom_site_symmetry_multiplicity
  _atom_site_fract_x
  _atom_site_fract_y
  _atom_site_fract_z
  _atom_site_occupancy
  C   C1        1.0  0.08370496000000001  0.5001863950000002  0.5500004391269633  1.0000
  O   O1        1.0  0.08384458  0.5002764350000002  0.5614564837207885  1.0000
  Cu  Cu1       1.0  0.41714738999999995  0.16691125500000012  0.44716435409663347  1.0000
  Cu  Cu2       1.0  0.08381406000000001  0.00024458500000017186  0.48164770226282044  1.0000
  Cu  Cu3       1.0  0.25023436  0.33381282500000026  0.5178301615638635  1.0000
  Cu  Cu4       1.0  0.08285261000000001  0.9997539750000002  0.5312900066426524  1.0000
  Cu  Cu5       1.0  0.25048073  0.33357791500000017  0.4644060266279763  1.0000
  Cu  Cu6       1.0  0.41714738999999995  0.16691125500000012  0.49888937479416334  1.0000
  Ti  Ti1       1.0  0.25048073  0.33357791500000017  0.49026854008024257  1.0000
  Ti  Ti2       1.0  0.41712098000000003  0.16689094500000018  0.5239304348838707  1.0000
  Ti  Ti3       1.0  0.08381406000000001  0.00024458500000017186  0.4557851888105542  1.0000
  Zn  Zn1       1.0  0.08483923000000002  0.0007525350000001645  0.5067230932846385  1.0000
  Zn  Zn2       1.0  0.25048073  0.33357791500000017  0.43854351627921134  1.0000
  Zn  Zn3       1.0  0.41714738999999995  0.16691125500000012  0.47302686444539843  1.0000
  Cu  Cu7       1.0  0.41714738999999995  0.6669112550000001  0.44716435409663347  1.0000
  Cu  Cu8       1.0  0.08381406000000001  0.5002445850000001  0.48164770226282044  1.0000
  Cu  Cu9       1.0  0.25023  0.8330703650000001  0.5178292429274591  1.0000
  Cu  Cu10      1.0  0.08377691000000001  0.5002118850000001  0.5318706407132158  1.0000
  Cu  Cu11      1.0  0.25048073  0.8335779150000001  0.4644060266279763  1.0000
  Cu  Cu12      1.0  0.41714738999999995  0.6669112550000001  0.49888937479416334  1.0000
  Ti  Ti4       1.0  0.25048073  0.8335779150000001  0.49026854008024257  1.0000
  Ti  Ti5       1.0  0.41832181  0.6674878950000002  0.5238273458789966  1.0000
  Ti  Ti6       1.0  0.08381406000000001  0.5002445850000001  0.4557851888105542  1.0000
  Zn  Zn4       1.0  0.08387334000000002  0.5002685450000003  0.5072960151543074  1.0000
  Zn  Zn5       1.0  0.25048073  0.8335779150000001  0.43854351627921134  1.0000
  Zn  Zn6       1.0  0.41714738999999995  0.6669112550000001  0.47302686444539843  1.0000
  Cu  Cu13      1.0  0.9171473900000001  0.1669112550000002  0.44716435409663347  1.0000
  Cu  Cu14      1.0  0.58381406  0.0002445850000001589  0.48164770226282044  1.0000
  Cu  Cu15      1.0  0.7509873600000001  0.3338208350000002  0.5178156557984789  1.0000
  Cu  Cu16      1.0  0.58424497  0.999755415  0.5312957232921686  1.0000
  Cu  Cu17      1.0  0.7504807300000002  0.3335779150000002  0.4644060266279763  1.0000
  Cu  Cu18      1.0  0.9171473900000001  0.1669112550000002  0.49888937479416334  1.0000
  Ti  Ti7       1.0  0.7504807300000002  0.3335779150000002  0.49026854008024257  1.0000
  Ti  Ti8       1.0  0.9164977400000002  0.16568123500000018  0.5238271472549092  1.0000
  Ti  Ti9       1.0  0.58381406  0.0002445850000001589  0.4557851888105542  1.0000
  Zn  Zn7       1.0  0.58332757  0.0007524550000001562  0.5067241453716016  1.0000
  Zn  Zn8       1.0  0.7504807300000002  0.3335779150000002  0.43854351627921134  1.0000
  Zn  Zn9       1.0  0.9171473900000001  0.1669112550000002  0.47302686444539843  1.0000
  Cu  Cu19      1.0  0.9171473900000001  0.6669112550000003  0.44716435409663347  1.0000
  Cu  Cu20      1.0  0.58381406  0.5002445850000001  0.48164770226282044  1.0000
  Cu  Cu21      1.0  0.7504666900000001  0.8335512150000003  0.5174876808776222  1.0000
  Cu  Cu22      1.0  0.5842452700000001  0.5011479650000001  0.5312978398801002  1.0000
  Cu  Cu23      1.0  0.7504807300000002  0.8335779150000002  0.4644060266279763  1.0000
  Cu  Cu24      1.0  0.9171473900000001  0.6669112550000003  0.49888937479416334  1.0000
  Ti  Ti10      1.0  0.7504807300000002  0.8335779150000002  0.49026854008024257  1.0000
  Ti  Ti11      1.0  0.9164965100000001  0.6674670650000001  0.5238278486462178  1.0000
  Ti  Ti12      1.0  0.58381406  0.5002445850000001  0.4557851888105542  1.0000
  Zn  Zn10      1.0  0.58332777  0.4992398250000002  0.5067250640080059  1.0000
  Zn  Zn11      1.0  0.7504807300000002  0.8335779150000002  0.43854351627921134  1.0000
  Zn  Zn12      1.0  0.9171473900000001  0.6669112550000003  0.47302686444539843  1.0000
