data_image0
_chemical_formula_structural       COCu16Si8Se24
_chemical_formula_sum              "C1 O1 Cu16 Si8 Se24"
_cell_length_a       7.975683243412154
_cell_length_b       11.97837583
_cell_length_c       103.28241915000001
_cell_angle_alpha    90.0
_cell_angle_beta     89.82729358751803
_cell_angle_gamma    90.0

_space_group_name_H-M_alt    "P 1"
_space_group_IT_number       1

loop_
  _space_group_symop_operation_xyz
  'x, y, z'

loop_
  _atom_site_type_symbol
  _atom_site_label
  _atom_site_symmetry_multiplicity
  _atom_site_fract_x
  _atom_site_fract_y
  _atom_site_fract_z
  _atom_site_occupancy
  C   C1        1.0  0.0017168050000000018  0.7969486250000001  0.5506555641869458  1.0000
  O   O1        1.0  0.010112665000000002  0.7873215250000001  0.56179878753871  1.0000
  Cu  Cu1       1.0  0.49725083500000006  0.7861791150000002  0.4787093181690341  1.0000
  Cu  Cu2       1.0  0.993461155  0.843415345  0.533482357391393  1.0000
  Cu  Cu3       1.0  0.508206565  0.7316708950000002  0.5246411613739052  1.0000
  Cu  Cu4       1.0  0.997250835  0.7761288750000002  0.4787093181690341  1.0000
  Cu  Cu5       1.0  0.740383675  0.9445232250000002  0.4523215732146322  1.0000
  Cu  Cu6       1.0  0.13284384500000002  0.9581116049999999  0.5136040699740962  1.0000
  Cu  Cu7       1.0  0.24038367500000005  0.617784765  0.4523215732146321  1.0000
  Cu  Cu8       1.0  0.703086325  0.5967066950000001  0.5099477396394771  1.0000
  Cu  Cu9       1.0  0.747250835  0.28617911500000004  0.4518554272449923  1.0000
  Cu  Cu10      1.0  0.24752407500000004  0.27740423500000005  0.5049610331222856  1.0000
  Cu  Cu11      1.0  0.247250835  0.27612887500000005  0.4518554272449923  1.0000
  Cu  Cu12      1.0  0.747453425  0.28313382500000006  0.5050444466816104  1.0000
  Cu  Cu13      1.0  0.490383675  0.444523225  0.47917546413867396  1.0000
  Cu  Cu14      1.0  0.994360155  0.484063345  0.524282732810004  1.0000
  Cu  Cu15      1.0  0.48613704500000005  0.08749465500000002  0.5244196425446563  1.0000
  Cu  Cu16      1.0  0.990383675  0.11778476500000001  0.47917546413867396  1.0000
  Si  Si1       1.0  0.766202955  0.6158366350000001  0.4520965386738429  1.0000
  Si  Si2       1.0  0.26067980500000004  0.6149566350000001  0.505136103311623  1.0000
  Si  Si3       1.0  0.266202955  0.946471355  0.4520965386738429  1.0000
  Si  Si4       1.0  0.760894245  0.9499773650000001  0.5045453864336261  1.0000
  Si  Si5       1.0  0.516202955  0.11583663500000001  0.4789504328203519  1.0000
  Si  Si6       1.0  0.994095925  0.04188839500000001  0.5336443798116863  1.0000
  Si  Si7       1.0  0.516680085  0.5468904050000001  0.5307034629396357  1.0000
  Si  Si8       1.0  0.016202955  0.44647135500000007  0.4789504328203519  1.0000
  Se  Se1       1.0  0.49473996500000006  0.9461685650000001  0.43820121246129  1.0000
  Se  Se2       1.0  0.9947399650000001  0.9461685650000001  0.4919089943093737  1.0000
  Se  Se3       1.0  0.9947399650000001  0.6161394250000001  0.43820121246129007  1.0000
  Se  Se4       1.0  0.49473996500000006  0.6161394250000001  0.4919089943093737  1.0000
  Se  Se5       1.0  0.748775365  0.773357355  0.4650665076961856  1.0000
  Se  Se6       1.0  0.23193236500000003  0.768454825  0.5190692419524207  1.0000
  Se  Se7       1.0  0.7717477150000002  0.792799565  0.5184106051366264  1.0000
  Se  Se8       1.0  0.24877536500000003  0.788950635  0.4650665076961856  1.0000
  Se  Se9       1.0  0.506538845  0.610147105  0.439175145119658  1.0000
  Se  Se10      1.0  0.006538845000000126  0.610147105  0.4928829301902087  1.0000
  Se  Se11      1.0  0.006538845000000126  0.952160885  0.439175145119658  1.0000
  Se  Se12      1.0  0.506538845  0.952160885  0.4928829301902087  1.0000
  Se  Se13      1.0  0.723728045  0.42181401500000004  0.5229063881351091  1.0000
  Se  Se14      1.0  0.24473996500000003  0.4461685650000001  0.4650551033853319  1.0000
  Se  Se15      1.0  0.7447399650000001  0.11613942500000002  0.46505510338533185  1.0000
  Se  Se16      1.0  0.21402824500000003  0.14146167500000004  0.5226403251439693  1.0000
  Se  Se17      1.0  0.998775365  0.273357355  0.43821261677214385  1.0000
  Se  Se18      1.0  0.4987753650000001  0.273357355  0.4919204018426945  1.0000
  Se  Se19      1.0  0.4987753650000001  0.288950635  0.4382126167721438  1.0000
  Se  Se20      1.0  0.998775365  0.288950635  0.4919204018426946  1.0000
  Se  Se21      1.0  0.764321405  0.10552378500000002  0.5187102945713263  1.0000
  Se  Se22      1.0  0.256538845  0.11014710500000002  0.4660290360436998  1.0000
  Se  Se23      1.0  0.756538845  0.45216088500000007  0.4660290360436998  1.0000
  Se  Se24      1.0  0.27375186500000004  0.45620983500000006  0.5187589441562259  1.0000
