data_image0
_chemical_formula_structural       Ir2W2Ir2W2Ir2W2Ir2W2CO
_chemical_formula_sum              "Ir8 W8 C1 O1"
_cell_length_a       5.56519156
_cell_length_b       4.86688538
_cell_length_c       101.47210934
_cell_angle_alpha    90.0
_cell_angle_beta     90.0
_cell_angle_gamma    90.0

_space_group_name_H-M_alt    "P 1"
_space_group_IT_number       1

loop_
  _space_group_symop_operation_xyz
  'x, y, z'

loop_
  _atom_site_type_symbol
  _atom_site_label
  _atom_site_symmetry_multiplicity
  _atom_site_fract_x
  _atom_site_fract_y
  _atom_site_fract_z
  _atom_site_occupancy
  Ir  Ir1       1.0  0.25060785  0.685388515  0.47599576249226333  1.0000
  Ir  Ir2       1.0  0.25060785  0.33423079499999997  0.4538418151695808  1.0000
  W   W1        1.0  0.000607850000000006  0.18214173499999997  0.47599576249226333  1.0000
  W   W2        1.0  0.000607850000000006  0.8374775750000001  0.4538418151695808  1.0000
  Ir  Ir3       1.0  0.25060762000000003  0.692249235  0.5204955936241235  1.0000
  Ir  Ir4       1.0  0.25060713  0.33067840499999995  0.4983048401757019  1.0000
  W   W3        1.0  0.00038619000000000603  0.16252242499999994  0.5195676307709801  1.0000
  W   W4        1.0  0.9996138099999999  0.832571815  0.4985344388164777  1.0000
  Ir  Ir5       1.0  0.75060785  0.685388515  0.47599576249226333  1.0000
  Ir  Ir6       1.0  0.75060785  0.33423079499999997  0.4538418151695808  1.0000
  W   W5        1.0  0.50060785  0.18214173499999997  0.47599576249226333  1.0000
  W   W6        1.0  0.50060785  0.8374775750000001  0.4538418151695808  1.0000
  Ir  Ir7       1.0  0.75060763  0.689161055  0.519793786688273  1.0000
  Ir  Ir8       1.0  0.7506082599999999  0.32937761499999996  0.49809721293416226  1.0000
  W   W7        1.0  0.50082986  0.16252264499999997  0.5195676307709801  1.0000
  W   W8        1.0  0.5016023399999999  0.832571775  0.4985344388164777  1.0000
  C   C1        1.0  0.25060779  0.364719135  0.5342556941519694  1.0000
  O   O1        1.0  0.25060806  0.375239145  0.5461581848304192  1.0000
