data_image0
_chemical_formula_structural       Ir2W2Ir2W2Ir2W2Ir2W2CO
_chemical_formula_sum              "Ir8 W8 C1 O1"
_cell_length_a       5.56519156
_cell_length_b       4.86688538
_cell_length_c       101.47210934
_cell_angle_alpha    90.0
_cell_angle_beta     90.0
_cell_angle_gamma    90.0

_space_group_name_H-M_alt    "P 1"
_space_group_IT_number       1

loop_
  _space_group_symop_operation_xyz
  'x, y, z'

loop_
  _atom_site_type_symbol
  _atom_site_label
  _atom_site_symmetry_multiplicity
  _atom_site_fract_x
  _atom_site_fract_y
  _atom_site_fract_z
  _atom_site_occupancy
  Ir  Ir1       1.0  0.37466678999999997  0.683417855  0.4756968069302962  1.0000
  Ir  Ir2       1.0  0.37466678999999997  0.33226013499999996  0.45354285960761365  1.0000
  W   W1        1.0  0.12466679000000003  0.18017107499999999  0.4756968069302962  1.0000
  W   W2        1.0  0.12466679000000003  0.8355069150000001  0.45354285960761365  1.0000
  Ir  Ir3       1.0  0.37561269999999997  0.6864819649999999  0.5203200147265007  1.0000
  Ir  Ir4       1.0  0.37400031  0.33100641499999994  0.4979233988200185  1.0000
  W   W3        1.0  0.12466679000000003  0.17235389499999998  0.5196064001795702  1.0000
  W   W4        1.0  0.12466679000000003  0.8329755950000001  0.49834763850123265  1.0000
  Ir  Ir5       1.0  0.87466679  0.683417855  0.4756968069302962  1.0000
  Ir  Ir6       1.0  0.87466679  0.33226013499999996  0.45354285960761365  1.0000
  W   W5        1.0  0.62466679  0.18017107499999999  0.4756968069302962  1.0000
  W   W6        1.0  0.62466679  0.8355069150000001  0.45354285960761365  1.0000
  Ir  Ir7       1.0  0.87372086  0.6864819649999999  0.5203200147265007  1.0000
  Ir  Ir8       1.0  0.8753332599999999  0.33100641499999994  0.4979233988200185  1.0000
  W   W7        1.0  0.62466679  0.16449308499999998  0.5185960135637643  1.0000
  W   W8        1.0  0.62466678  0.834003225  0.49796871250477853  1.0000
  C   C1        1.0  0.12466674000000003  0.5145556950000001  0.5346032665523084  1.0000
  O   O1        1.0  0.12466674000000003  0.523847545  0.5464571403923865  1.0000
