data_image0
_chemical_formula_structural       COFe4Sb8Fe4Sb8Fe4Sb8
_chemical_formula_sum              "C1 O1 Fe12 Sb24"
_cell_length_a       13.476843621621157
_cell_length_b       6.659203388824962
_cell_length_c       106.12384226
_cell_angle_alpha    60.452171797218604
_cell_angle_beta     75.89638691363196
_cell_angle_gamma    83.09815042822733

_space_group_name_H-M_alt    "P 1"
_space_group_IT_number       1

loop_
  _space_group_symop_operation_xyz
  'x, y, z'

loop_
  _atom_site_type_symbol
  _atom_site_label
  _atom_site_symmetry_multiplicity
  _atom_site_fract_x
  _atom_site_fract_y
  _atom_site_fract_z
  _atom_site_occupancy
  C   C1        1.0  0.5565724599999999  0.916087785  0.5426981852971279  1.0000
  O   O1        1.0  0.56121068  0.797232585  0.5552447580530534  1.0000
  Fe  Fe1       1.0  0.03503622999999999  0.08391221499999998  0.5106341531307705  1.0000
  Fe  Fe2       1.0  0.54414325  0.09294380499999999  0.5241968304490217  1.0000
  Fe  Fe3       1.0  0.27922907999999996  0.575522375  0.5313710408147622  1.0000
  Fe  Fe4       1.0  0.79278885  0.597763015  0.5164868955307985  1.0000
  Sb  Sb1       1.0  0.18075176999999998  0.316801325  0.5293416058953051  1.0000
  Sb  Sb2       1.0  0.7205941499999998  0.27170885499999997  0.515807395666672  1.0000
  Sb  Sb3       1.0  0.36011025  0.898325605  0.5069187775499489  1.0000
  Sb  Sb4       1.0  0.8613185099999999  0.874678485  0.5220546470649693  1.0000
  Sb  Sb5       1.0  0.44984291  0.387918985  0.5331270242003966  1.0000
  Sb  Sb6       1.0  0.96496377  0.38834189500000005  0.5191064634638706  1.0000
  Sb  Sb7       1.0  0.13528496  0.842529505  0.5309007330419371  1.0000
  Sb  Sb8       1.0  0.6124497799999999  0.7725228949999999  0.5182731671100738  1.0000
  Fe  Fe5       1.0  0.035971809999999986  0.097035895  0.4795969921660383  1.0000
  Fe  Fe6       1.0  0.5359718099999999  0.097035895  0.49506941532026644  1.0000
  Fe  Fe7       1.0  0.28597181  0.597035895  0.5028056251954142  1.0000
  Fe  Fe8       1.0  0.7859718099999999  0.597035895  0.48733320204118596  1.0000
  Sb  Sb9       1.0  0.21356404  0.29351289500000005  0.49896632263483437  1.0000
  Sb  Sb10      1.0  0.7135640399999998  0.29351289500000005  0.4834938994806062  1.0000
  Sb  Sb11      1.0  0.35837958999999997  0.9005588950000001  0.47570008485147036  1.0000
  Sb  Sb12      1.0  0.85837959  0.9005588950000001  0.4911725046017658  1.0000
  Sb  Sb13      1.0  0.46356403999999996  0.40055889499999997  0.5033900123705414  1.0000
  Sb  Sb14      1.0  0.96356404  0.40055889499999997  0.4879175892163132  1.0000
  Sb  Sb15      1.0  0.10837959  0.793512895  0.502221238020287  1.0000
  Sb  Sb16      1.0  0.6083795900000001  0.793512895  0.4867488182699915  1.0000
  Fe  Fe9       1.0  0.035971809999999986  0.097035895  0.44865214926151464  1.0000
  Fe  Fe10      1.0  0.5359718099999999  0.097035895  0.46412457241574284  1.0000
  Fe  Fe11      1.0  0.28597181  0.597035895  0.4718607822908905  1.0000
  Fe  Fe12      1.0  0.7859718099999999  0.597035895  0.4563883591366623  1.0000
  Sb  Sb17      1.0  0.21356404  0.29351289500000005  0.4680214797303108  1.0000
  Sb  Sb18      1.0  0.7135640399999998  0.29351289500000005  0.4525490565760826  1.0000
  Sb  Sb19      1.0  0.35837958999999997  0.9005588950000001  0.44475524194694677  1.0000
  Sb  Sb20      1.0  0.85837959  0.9005588950000001  0.4602276616972422  1.0000
  Sb  Sb21      1.0  0.46356403999999996  0.40055889499999997  0.4724451694660178  1.0000
  Sb  Sb22      1.0  0.96356404  0.40055889499999997  0.4569727463117896  1.0000
  Sb  Sb23      1.0  0.10837959  0.793512895  0.4712763951157633  1.0000
  Sb  Sb24      1.0  0.6083795900000001  0.793512895  0.45580397536546796  1.0000
