data_image0
_chemical_formula_structural       COIr2W2Ir2W2Ir2W2Ir2W2
_chemical_formula_sum              "C1 O1 Ir8 W8"
_cell_length_a       5.56519156
_cell_length_b       4.86688538
_cell_length_c       101.47210934
_cell_angle_alpha    90.0
_cell_angle_beta     90.0
_cell_angle_gamma    90.0

_space_group_name_H-M_alt    "P 1"
_space_group_IT_number       1

loop_
  _space_group_symop_operation_xyz
  'x, y, z'

loop_
  _atom_site_type_symbol
  _atom_site_label
  _atom_site_symmetry_multiplicity
  _atom_site_fract_x
  _atom_site_fract_y
  _atom_site_fract_z
  _atom_site_occupancy
  C   C1        1.0  0.375636865  0.36425904499999995  0.5342239404555578  1.0000
  O   O1        1.0  0.37562208499999994  0.380487235  0.5461111311746016  1.0000
  Ir  Ir1       1.0  0.375624125  0.684635385  0.47604281614808097  1.0000
  Ir  Ir2       1.0  0.375624125  0.333477665  0.4538888688253984  1.0000
  W   W1        1.0  0.12562412499999998  0.18138860499999995  0.47604281614808097  1.0000
  W   W2        1.0  0.12562412499999998  0.8367244450000001  0.4538888688253984  1.0000
  Ir  Ir3       1.0  0.375623925  0.692393095  0.5204447250585006  1.0000
  Ir  Ir4       1.0  0.37562230499999993  0.33158274499999996  0.4983370808158854  1.0000
  W   W3        1.0  0.12522853499999997  0.16327582499999996  0.5195645168120822  1.0000
  W   W4        1.0  0.12437587499999997  0.833058025  0.49851728102701215  1.0000
  Ir  Ir5       1.0  0.875624125  0.684635385  0.47604281614808097  1.0000
  Ir  Ir6       1.0  0.875624125  0.333477665  0.4538888688253984  1.0000
  W   W5        1.0  0.625624125  0.18138860499999995  0.47604281614808097  1.0000
  W   W6        1.0  0.625624125  0.8367244450000001  0.4538888688253984  1.0000
  Ir  Ir7       1.0  0.8756232249999999  0.689047765  0.5197879991909589  1.0000
  Ir  Ir8       1.0  0.8756220049999999  0.3300120849999999  0.49812215872242543  1.0000
  W   W7        1.0  0.6260134649999999  0.16327555499999996  0.5195648610844305  1.0000
  W   W8        1.0  0.626867415  0.833058195  0.4985171290509304  1.0000
