data_image0
_chemical_formula_structural       COIr10Sn14
_chemical_formula_sum              "C1 O1 Ir10 Sn14"
_cell_length_a       6.979450524444768
_cell_length_b       6.979450521071772
_cell_length_c       38.46785689
_cell_angle_alpha    92.74357182877841
_cell_angle_beta     92.74357182745149
_cell_angle_gamma    77.19549372638598

_space_group_name_H-M_alt    "P 1"
_space_group_IT_number       1

loop_
  _space_group_symop_operation_xyz
  'x, y, z'

loop_
  _atom_site_type_symbol
  _atom_site_label
  _atom_site_symmetry_multiplicity
  _atom_site_fract_x
  _atom_site_fract_y
  _atom_site_fract_z
  _atom_site_occupancy
  C   C1        1.0  0.8887330300000001  0.8887827849999999  0.6323737702632602  1.0000
  O   O1        1.0  0.89940387  0.899472745  0.6629311847997749  1.0000
  Ir  Ir1       1.0  0.27692487000000005  0.276965705  0.5227923781879441  1.0000
  Ir  Ir2       1.0  0.6121125900000001  0.6121478149999998  0.38667131173593877  1.0000
  Ir  Ir3       1.0  0.69327384  0.20634152500000003  0.35340732626586174  1.0000
  Ir  Ir4       1.0  0.35994051000000005  0.8730081949999999  0.49002417251063696  1.0000
  Ir  Ir5       1.0  0.20630630000000003  0.693309065  0.35340732626586174  1.0000
  Ir  Ir6       1.0  0.87297297  0.35997573499999996  0.49002417251063696  1.0000
  Ir  Ir7       1.0  0.9541342300000001  0.9541694549999998  0.4567601870405599  1.0000
  Ir  Ir8       1.0  0.6393713  0.6393285449999998  0.5860266837035623  1.0000
  Ir  Ir9       1.0  0.8904063799999999  0.8904827449999999  0.5832157812189461  1.0000
  Ir  Ir10      1.0  0.22395736000000002  0.22399258500000002  0.44596498637054666  1.0000
  Sn  Sn1       1.0  0.52138611  0.9806640349999999  0.5550086791408297  1.0000
  Sn  Sn2       1.0  0.87030874  0.299362815  0.4150744535198219  1.0000
  Sn  Sn3       1.0  0.15632130999999996  0.5853753850000001  0.4736856614450004  1.0000
  Sn  Sn4       1.0  0.48965464000000003  0.9187087149999998  0.33706881520022525  1.0000
  Sn  Sn5       1.0  0.9807125200000001  0.521464575  0.5550088758690844  1.0000
  Sn  Sn6       1.0  0.29932759000000003  0.870343965  0.41507445351982186  1.0000
  Sn  Sn7       1.0  0.58534016  0.156356535  0.4736856614450004  1.0000
  Sn  Sn8       1.0  0.9186734900000002  0.48968986499999995  0.33706881520022525  1.0000
  Sn  Sn9       1.0  0.4063655700000001  0.405959315  0.5973515506082101  1.0000
  Sn  Sn10      1.0  0.69564905  0.695684275  0.4575671581441561  1.0000
  Sn  Sn11      1.0  0.019287480000000006  0.019335965000000017  0.5276647878561096  1.0000
  Sn  Sn12      1.0  0.3576825900000001  0.35771781500000005  0.3911576258103169  1.0000
  Sn  Sn13      1.0  0.53046843  0.530485605  0.5249694140390416  1.0000
  Sn  Sn14      1.0  0.86231572  0.862350945  0.3892587391202738  1.0000
