data_image0
_chemical_formula_structural       COCo6Sb12
_chemical_formula_sum              "C1 O1 Co6 Sb12"
_cell_length_a       9.415460773201016
_cell_length_b       5.66455725
_cell_length_c       99.26342774
_cell_angle_alpha    90.0
_cell_angle_beta     105.48676435142795
_cell_angle_gamma    90.0

_space_group_name_H-M_alt    "P 1"
_space_group_IT_number       1

loop_
  _space_group_symop_operation_xyz
  'x, y, z'

loop_
  _atom_site_type_symbol
  _atom_site_label
  _atom_site_symmetry_multiplicity
  _atom_site_fract_x
  _atom_site_fract_y
  _atom_site_fract_z
  _atom_site_occupancy
  C   C1        1.0  0.546030425  0.28779008500000003  0.5379417014670094  1.0000
  O   O1        1.0  0.5309660549999999  0.3005657950000001  0.5490773955343553  1.0000
  Co  Co1       1.0  0.725808665  0.09106483500000005  0.5005113759234601  1.0000
  Co  Co2       1.0  0.05947366499999998  0.09662649500000005  0.45092260446564464  1.0000
  Co  Co3       1.0  0.392806995  0.09662649500000005  0.4754897480381598  1.0000
  Co  Co4       1.0  0.726140335  0.5966264950000001  0.46320617772593087  1.0000
  Co  Co5       1.0  0.05947366499999998  0.5966264950000001  0.4877733212984462  1.0000
  Co  Co6       1.0  0.38250181499999997  0.6054073650000001  0.509408232696174  1.0000
  Sb  Sb1       1.0  0.845087665  0.29768026500000005  0.4825237155813126  1.0000
  Sb  Sb2       1.0  0.180740555  0.309070025  0.5081336636868198  1.0000
  Sb  Sb3       1.0  0.5117543349999999  0.29768026500000005  0.4579565720087973  1.0000
  Sb  Sb4       1.0  0.940526335  0.895572725  0.46845578344306443  1.0000
  Sb  Sb5       1.0  0.269475635  0.9089351649999999  0.4926831250816358  1.0000
  Sb  Sb6       1.0  0.6252141649999999  0.819921865  0.5174985481477691  1.0000
  Sb  Sb7       1.0  0.6071929949999999  0.797680265  0.4807393537552934  1.0000
  Sb  Sb8       1.0  0.9388117549999999  0.798150795  0.505044084847271  1.0000
  Sb  Sb9       1.0  0.2738596649999999  0.797680265  0.45617221018277815  1.0000
  Sb  Sb10      1.0  0.8340082249999999  0.410508155  0.5193539168830389  1.0000
  Sb  Sb11      1.0  0.17842099499999997  0.395572725  0.4702401423210263  1.0000
  Sb  Sb12      1.0  0.5140144649999999  0.3859937750000001  0.494962949217558  1.0000
