data_image0
_chemical_formula_structural       COIr2W2Ir2W2Ir2W2Ir2W2
_chemical_formula_sum              "C1 O1 Ir8 W8"
_cell_length_a       5.56519156
_cell_length_b       4.86688538
_cell_length_c       101.47210934
_cell_angle_alpha    90.0
_cell_angle_beta     90.0
_cell_angle_gamma    90.0

_space_group_name_H-M_alt    "P 1"
_space_group_IT_number       1

loop_
  _space_group_symop_operation_xyz
  'x, y, z'

loop_
  _atom_site_type_symbol
  _atom_site_label
  _atom_site_symmetry_multiplicity
  _atom_site_fract_x
  _atom_site_fract_y
  _atom_site_fract_z
  _atom_site_occupancy
  C   C1        1.0  0.12482918999999999  0.16733596  0.5375659068977605  1.0000
  O   O1        1.0  0.12482932999999999  0.16760896  0.5491072465782066  1.0000
  Ir  Ir1       1.0  0.37482914999999994  0.67911522  0.4730467007444759  1.0000
  Ir  Ir2       1.0  0.37482914999999994  0.3279575  0.45089275342179336  1.0000
  W   W1        1.0  0.12482914999999999  0.17586844000000001  0.4730467007444759  1.0000
  W   W2        1.0  0.12482914999999999  0.8312042800000001  0.45089275342179336  1.0000
  Ir  Ir3       1.0  0.37648078999999995  0.68021496  0.516922688670384  1.0000
  Ir  Ir4       1.0  0.37448676999999997  0.32552459  0.49522069030062316  1.0000
  W   W3        1.0  0.12482877999999999  0.17935541  0.5173344632113483  1.0000
  W   W4        1.0  0.1248292  0.8322161000000001  0.49592512115004694  1.0000
  Ir  Ir5       1.0  0.8748291499999999  0.67911522  0.4730467007444759  1.0000
  Ir  Ir6       1.0  0.8748291499999999  0.3279575  0.45089275342179336  1.0000
  W   W5        1.0  0.6248291499999999  0.17586844000000001  0.4730467007444759  1.0000
  W   W6        1.0  0.6248291499999999  0.8312042800000001  0.45089275342179336  1.0000
  Ir  Ir7       1.0  0.8731766099999999  0.68021408  0.516922539795855  1.0000
  Ir  Ir8       1.0  0.8751712199999999  0.32552351  0.49522063447267484  1.0000
  W   W7        1.0  0.6248288799999999  0.16860428  0.5161687260245456  1.0000
  W   W8        1.0  0.62482848  0.83266404  0.4957435872712647  1.0000
