data_image0
_chemical_formula_structural       COFe2Si4Fe2Si4Fe2Si4Fe2Si4
_chemical_formula_sum              "C1 O1 Fe8 Si16"
_cell_length_a       7.68461826
_cell_length_b       5.832489183466925
_cell_length_c       100.73847303
_cell_angle_alpha    109.23166098619318
_cell_angle_beta     90.0
_cell_angle_gamma    70.76833901380682

_space_group_name_H-M_alt    "P 1"
_space_group_IT_number       1

loop_
  _space_group_symop_operation_xyz
  'x, y, z'

loop_
  _atom_site_type_symbol
  _atom_site_label
  _atom_site_symmetry_multiplicity
  _atom_site_fract_x
  _atom_site_fract_y
  _atom_site_fract_z
  _atom_site_occupancy
  C   C1        1.0  0.0699293000000001  0.8461045549999999  0.5375784993374259  1.0000
  O   O1        1.0  0.08860702000000008  0.7632605749999999  0.5469123564872426  1.0000
  Fe  Fe1       1.0  0.03408972000000005  0.006790095000000012  0.4860281483618995  1.0000
  Fe  Fe2       1.0  0.2840897200000001  0.006790095000000012  0.46695743479447344  1.0000
  Si  Si1       1.0  0.35226916  0.734072315  0.48082722607618955  1.0000
  Si  Si2       1.0  0.10226916000000005  0.734072315  0.4617565125087635  1.0000
  Si  Si3       1.0  0.4659102800000001  0.279507875  0.4721583570801835  1.0000
  Si  Si4       1.0  0.21591028000000004  0.279507875  0.45308764351275754  1.0000
  Fe  Fe3       1.0  0.04069769000000011  0.9731874449999999  0.5235844127729629  1.0000
  Fe  Fe4       1.0  0.28064087000000004  0.01224710500000001  0.5048208689004817  1.0000
  Si  Si5       1.0  0.3507070800000001  0.755104735  0.5192939171990192  1.0000
  Si  Si6       1.0  0.10231074000000007  0.7354626249999999  0.4998726564543964  1.0000
  Si  Si7       1.0  0.46699110000000005  0.281376955  0.5111439577422117  1.0000
  Si  Si8       1.0  0.21591028000000004  0.279507875  0.4912290706476095  1.0000
  Fe  Fe5       1.0  0.5340897200000001  0.006790095000000012  0.4860281483618995  1.0000
  Fe  Fe6       1.0  0.7840897200000001  0.006790095000000012  0.46695743479447344  1.0000
  Si  Si9       1.0  0.8522691600000001  0.734072315  0.48082722607618955  1.0000
  Si  Si10      1.0  0.6022691600000001  0.734072315  0.4617565125087635  1.0000
  Si  Si11      1.0  0.9659102800000001  0.279507875  0.4721583570801835  1.0000
  Si  Si12      1.0  0.7159102800000001  0.279507875  0.45308764351275754  1.0000
  Fe  Fe7       1.0  0.5374094900000002  0.993209905  0.5228982759606343  1.0000
  Fe  Fe8       1.0  0.7846608  0.009424345000000011  0.5046814146889342  1.0000
  Si  Si13      1.0  0.8424589900000002  0.7504555249999999  0.5190234456596063  1.0000
  Si  Si14      1.0  0.5998083500000003  0.7391962849999999  0.4998699835031828  1.0000
  Si  Si15      1.0  0.9642906400000001  0.27771424499999997  0.5110457878113949  1.0000
  Si  Si16      1.0  0.7159102800000001  0.279507875  0.49122907064760957  1.0000
