data_image0
_chemical_formula_structural       COAl16Pt32
_chemical_formula_sum              "C1 O1 Al16 Pt32"
_cell_length_a       9.718570354895963
_cell_length_b       10.561568462651673
_cell_length_c       100.53130239000001
_cell_angle_alpha    94.4861734037737
_cell_angle_beta     96.59045983833529
_cell_angle_gamma    109.37692860876746

_space_group_name_H-M_alt    "P 1"
_space_group_IT_number       1

loop_
  _space_group_symop_operation_xyz
  'x, y, z'

loop_
  _atom_site_type_symbol
  _atom_site_label
  _atom_site_symmetry_multiplicity
  _atom_site_fract_x
  _atom_site_fract_y
  _atom_site_fract_z
  _atom_site_occupancy
  C   C1        1.0  0.7036621300000001  0.43884740999999994  0.5341415290115882  1.0000
  O   O1        1.0  0.71792999  0.42985563999999993  0.5460618239815002  1.0000
  Al  Al1       1.0  0.8472587800000001  0.06033851999999998  0.46001977899206004  1.0000
  Al  Al2       1.0  0.34725878  0.49783851999999995  0.4790009953297568  1.0000
  Al  Al3       1.0  0.14178822000000002  0.07433417999999997  0.48231981089599196  1.0000
  Al  Al4       1.0  0.6417882200000001  0.6368341799999999  0.46333859455829524  1.0000
  Al  Al5       1.0  0.95081169  0.4072297199999999  0.4750698760944137  1.0000
  Al  Al6       1.0  0.45081168999999993  0.9697297199999999  0.4560886597567169  1.0000
  Al  Al7       1.0  0.038235310000000015  0.72744298  0.4672697137936383  1.0000
  Al  Al8       1.0  0.53823531  0.16494298  0.4862509301313351  1.0000
  Al  Al9       1.0  0.84378624  0.9352680400000001  0.497687902593397  1.0000
  Al  Al10      1.0  0.35871349  0.38241870999999994  0.5165802686166656  1.0000
  Al  Al11      1.0  0.12478372000000004  0.9437627  0.5189103146614374  1.0000
  Al  Al12      1.0  0.64668624  0.5049328599999999  0.5003219183920926  1.0000
  Al  Al13      1.0  0.9617646900000001  0.2760596999999999  0.5143673351582  1.0000
  Al  Al14      1.0  0.45239594000000005  0.8450851300000001  0.49448860187620786  1.0000
  Al  Al15      1.0  0.039017550000000026  0.6103590899999999  0.5051957086076526  1.0000
  Al  Al16      1.0  0.5334900600000001  0.012116759999999976  0.5221625198248031  1.0000
  Pt  Pt1       1.0  0.36800565  0.17124576999999996  0.46483156288858535  1.0000
  Pt  Pt2       1.0  0.8680056500000001  0.60874577  0.48381277922628213  1.0000
  Pt  Pt3       1.0  0.62104135  0.96342693  0.47750802699946665  1.0000
  Pt  Pt4       1.0  0.12104135  0.5259269299999999  0.4585268106617699  1.0000
  Pt  Pt5       1.0  0.07756284000000005  0.98788324  0.4568762617919414  1.0000
  Pt  Pt6       1.0  0.57756284  0.42538323999999994  0.47585747812963813  1.0000
  Pt  Pt7       1.0  0.9114841599999999  0.14678945999999998  0.4854633280961106  1.0000
  Pt  Pt8       1.0  0.41148416000000004  0.7092894599999999  0.46648211175841386  1.0000
  Pt  Pt9       1.0  0.12968463000000002  0.27700968  0.4694201975318556  1.0000
  Pt  Pt10      1.0  0.62968463  0.7145096799999999  0.48840141386955227  1.0000
  Pt  Pt11      1.0  0.85936237  0.85766302  0.4729193923561965  1.0000
  Pt  Pt12      1.0  0.35936237  0.42016302  0.4539381760184998  1.0000
  Pt  Pt13      1.0  0.6984358800000001  0.21685232999999993  0.46681023169350844  1.0000
  Pt  Pt14      1.0  0.19843588000000004  0.6543523299999999  0.4857914480312051  1.0000
  Pt  Pt15      1.0  0.29061112  0.9178203699999999  0.47552935819454356  1.0000
  Pt  Pt16      1.0  0.79061112  0.48032036999999994  0.4565481418568469  1.0000
  Pt  Pt17      1.0  0.37192976  0.060464909999999976  0.5037145116684864  1.0000
  Pt  Pt18      1.0  0.8827028  0.47587644999999995  0.5221863723805017  1.0000
  Pt  Pt19      1.0  0.6333257700000001  0.8330637700000001  0.5160184367610483  1.0000
  Pt  Pt20      1.0  0.12551826  0.3982442499999999  0.49533499101617606  1.0000
  Pt  Pt21      1.0  0.08611797000000004  0.86094234  0.4942228314405393  1.0000
  Pt  Pt22      1.0  0.58195565  0.29820342999999994  0.5173579670124538  1.0000
  Pt  Pt23      1.0  0.9160655300000001  0.03130649999999997  0.5213864097771981  1.0000
  Pt  Pt24      1.0  0.40663801  0.5964107  0.5048318402089564  1.0000
  Pt  Pt25      1.0  0.14609533  0.16455055999999996  0.5080443609637004  1.0000
  Pt  Pt26      1.0  0.63080024  0.5747004899999999  0.52334333066369  1.0000
  Pt  Pt27      1.0  0.8694520700000001  0.7430188699999999  0.5109035699130264  1.0000
  Pt  Pt28      1.0  0.35936237  0.29516301999999994  0.49190060869389324  1.0000
  Pt  Pt29      1.0  0.69642459  0.10016774999999997  0.505064309998682  1.0000
  Pt  Pt30      1.0  0.17841546000000003  0.51571757  0.5213999274402251  1.0000
  Pt  Pt31      1.0  0.2979727300000001  0.80928211  0.514556306074069  1.0000
  Pt  Pt32      1.0  0.79887164  0.3546217199999999  0.4947336083797002  1.0000
