data_image0
_chemical_formula_structural       COIn10Pt10
_chemical_formula_sum              "C1 O1 In10 Pt10"
_cell_length_a       7.1072746447300625
_cell_length_b       7.3255810285792675
_cell_length_c       101.22402539000001
_cell_angle_alpha    89.29216188572983
_cell_angle_beta     89.10255549345558
_cell_angle_gamma    77.15519257950663

_space_group_name_H-M_alt    "P 1"
_space_group_IT_number       1

loop_
  _space_group_symop_operation_xyz
  'x, y, z'

loop_
  _atom_site_type_symbol
  _atom_site_label
  _atom_site_symmetry_multiplicity
  _atom_site_fract_x
  _atom_site_fract_y
  _atom_site_fract_z
  _atom_site_occupancy
  C   C1        1.0  0.8684724749999998  0.6688784700000001  0.5328888949200378  1.0000
  O   O1        1.0  0.8733379649999998  0.6687272600000002  0.5446790246013873  1.0000
  In  In1       1.0  0.08640035499999996  0.9449461000000001  0.48217887131159703  1.0000
  In  In2       1.0  0.357070245  0.6730391  0.5240566165700284  1.0000
  In  In3       1.0  0.244250655  0.12801696  0.5112578355090321  1.0000
  In  In4       1.0  0.9628894649999999  0.36627072999999993  0.47047869606793313  1.0000
  In  In5       1.0  0.9599112449999999  0.77362147  0.45532097539861277  1.0000
  In  In6       1.0  0.2099881549999999  0.5193440600000001  0.4936302575415757  1.0000
  In  In7       1.0  0.6675731749999999  0.07344728  0.49677320612234205  1.0000
  In  In8       1.0  0.4202550749999999  0.35527376  0.4584392560677761  1.0000
  In  In9       1.0  0.5025456349999999  0.78461844  0.4673604153987699  1.0000
  In  In10      1.0  0.7515774150000001  0.5095993499999999  0.5048988538371062  1.0000
  Pt  Pt1       1.0  0.586400355  0.4449461  0.48217887131159715  1.0000
  Pt  Pt2       1.0  0.8550999849999998  0.17921134  0.5170864432005842  1.0000
  Pt  Pt3       1.0  0.06749570500000002  0.47885660999999996  0.5208913629162594  1.0000
  Pt  Pt4       1.0  0.8419311949999998  0.7072431600000002  0.4823527990589706  1.0000
  Pt  Pt5       1.0  0.330869515  0.18264903999999998  0.48200494356422374  1.0000
  Pt  Pt6       1.0  0.6813761849999999  0.8250979700000001  0.5200011094922291  1.0000
  Pt  Pt7       1.0  0.43235352499999996  0.80577136  0.49647779577365975  1.0000
  Pt  Pt8       1.0  0.194041395  0.055053899999999996  0.4565368995455691  1.0000
  Pt  Pt9       1.0  0.7287593149999999  0.08483829999999999  0.46926277192097676  1.0000
  Pt  Pt10      1.0  0.03711053500000001  0.83522286  0.5077944971187651  1.0000
