data_image0
_chemical_formula_structural       COSi6Rh10Si6Rh10
_chemical_formula_sum              "C1 O1 Si12 Rh20"
_cell_length_a       5.4093727
_cell_length_b       11.051964604737687
_cell_length_c       101.3721912
_cell_angle_alpha    110.78277796951525
_cell_angle_beta     90.0
_cell_angle_gamma    90.0

_space_group_name_H-M_alt    "P 1"
_space_group_IT_number       1

loop_
  _space_group_symop_operation_xyz
  'x, y, z'

loop_
  _atom_site_type_symbol
  _atom_site_label
  _atom_site_symmetry_multiplicity
  _atom_site_fract_x
  _atom_site_fract_y
  _atom_site_fract_z
  _atom_site_occupancy
  C   C1        1.0  0.8086662950000001  0.7765508400000001  0.5363096358879375  1.0000
  O   O1        1.0  0.790046885  0.77322614  0.5476846457198947  1.0000
  Si  Si1       1.0  0.10159966499999999  0.6630786200000001  0.45413426451945393  1.0000
  Si  Si2       1.0  0.909180145  0.35429640000000007  0.48087361910829374  1.0000
  Si  Si3       1.0  0.6015996650000001  0.8542964  0.46153141167655787  1.0000
  Si  Si4       1.0  0.409180145  0.16307862000000004  0.47347647195118997  1.0000
  Si  Si5       1.0  0.505389905  0.50868751  0.46750394181387395  1.0000
  Si  Si6       1.0  0.005389904999999984  0.008687510000000037  0.4868461492456099  1.0000
  Rh  Rh1       1.0  0.33850748500000005  0.40131558000000006  0.48269252934764234  1.0000
  Rh  Rh2       1.0  0.672272325  0.61605944  0.4523153542801055  1.0000
  Rh  Rh3       1.0  0.8385074849999999  0.11605944000000004  0.47165756171184137  1.0000
  Rh  Rh4       1.0  0.17227232499999998  0.90131558  0.4633503219159063  1.0000
  Rh  Rh5       1.0  0.344810065  0.72145464  0.47573471335326  1.0000
  Rh  Rh6       1.0  0.6659697450000001  0.29592038000000004  0.45927317027448783  1.0000
  Rh  Rh7       1.0  0.8448100650000001  0.7959203800000001  0.47861537770622375  1.0000
  Rh  Rh8       1.0  0.165969745  0.2214546400000001  0.4563925059215241  1.0000
  Rh  Rh9       1.0  0.505389905  0.008687510000000037  0.4868461492456099  1.0000
  Rh  Rh10      1.0  0.005389904999999984  0.50868751  0.46750394181387395  1.0000
  Si  Si7       1.0  0.10159966499999999  0.6630786200000001  0.49281867938292595  1.0000
  Si  Si8       1.0  0.9280104450000001  0.3584491000000001  0.5177936254308301  1.0000
  Si  Si9       1.0  0.581332205  0.8432232700000001  0.4999106034120038  1.0000
  Si  Si10      1.0  0.43431875499999995  0.16278238000000003  0.5117041321914859  1.0000
  Si  Si11      1.0  0.49242992500000005  0.5088323300000002  0.5067019650113584  1.0000
  Si  Si12      1.0  0.029727184999999982  0.99477589  0.5246012994742443  1.0000
  Rh  Rh11      1.0  0.35401443499999996  0.3897830400000001  0.5211756521794371  1.0000
  Rh  Rh12      1.0  0.672272325  0.61605944  0.4909997691435774  1.0000
  Rh  Rh13      1.0  0.874438225  0.13322778000000005  0.5127618971682404  1.0000
  Rh  Rh14      1.0  0.149020065  0.89683079  0.5010577386713524  1.0000
  Rh  Rh15      1.0  0.34310667499999997  0.7227511200000001  0.5136332404023912  1.0000
  Rh  Rh16      1.0  0.662430025  0.29002286000000005  0.497384263541164  1.0000
  Rh  Rh17      1.0  0.850641145  0.790224  0.518622465324682  1.0000
  Rh  Rh18      1.0  0.16585224499999998  0.22293819000000006  0.4952937206249037  1.0000
  Rh  Rh19      1.0  0.489587335  0.005224110000000037  0.5219745750942103  1.0000
  Rh  Rh20      1.0  0.9946100950000001  0.50471844  0.5052908565892409  1.0000
