data_image0
_chemical_formula_structural       COGa24Ir12
_chemical_formula_sum              "C1 O1 Ga24 Ir12"
_cell_length_a       6.89323193067109
_cell_length_b       11.06258204
_cell_length_c       100.40449061
_cell_angle_alpha    90.0
_cell_angle_beta     94.13712012160556
_cell_angle_gamma    90.0

_space_group_name_H-M_alt    "P 1"
_space_group_IT_number       1

loop_
  _space_group_symop_operation_xyz
  'x, y, z'

loop_
  _atom_site_type_symbol
  _atom_site_label
  _atom_site_symmetry_multiplicity
  _atom_site_fract_x
  _atom_site_fract_y
  _atom_site_fract_z
  _atom_site_occupancy
  C   C1        1.0  0.63311681  0.31081197  0.5383469267839719  1.0000
  O   O1        1.0  0.7284201499999999  0.29303936  0.5481096203845082  1.0000
  Ga  Ga1       1.0  0.2987569299999999  0.59716643  0.5150963687323168  1.0000
  Ga  Ga2       1.0  0.5348328999999999  0.39934155  0.5187642611746933  1.0000
  Ga  Ga3       1.0  0.53743506  0.09966022  0.5181581820306065  1.0000
  Ga  Ga4       1.0  0.30154923  0.9013254599999999  0.5151316200117206  1.0000
  Ga  Ga5       1.0  0.14882294999999995  0.51881526  0.4912940635059129  1.0000
  Ga  Ga6       1.0  0.8498319099999999  0.47887382  0.5078246757063888  1.0000
  Ga  Ga7       1.0  0.9295550499999999  0.75004046  0.5098222946383534  1.0000
  Ga  Ga8       1.0  0.051030409999999964  0.25  0.48974288305592534  1.0000
  Ga  Ga9       1.0  0.5579887599999999  0.7509818299999999  0.4992226125381428  1.0000
  Ga  Ga10      1.0  0.41662315999999994  0.25089845  0.4965106290484492  1.0000
  Ga  Ga11      1.0  0.15099302999999997  0.9800698799999998  0.4912635937547435  1.0000
  Ga  Ga12      1.0  0.8516769299999999  0.019671029999999996  0.5072548108093935  1.0000
  Ga  Ga13      1.0  0.44162799999999997  0.60585317  0.477440265277134  1.0000
  Ga  Ga14      1.0  0.66198124  0.39414683  0.4818887581018599  1.0000
  Ga  Ga15      1.0  0.66198124  0.10585317  0.4818887581018599  1.0000
  Ga  Ga16      1.0  0.44162799999999997  0.8941468299999998  0.477440265277134  1.0000
  Ga  Ga17      1.0  0.27963964999999996  0.51764178  0.4539820423352042  1.0000
  Ga  Ga18      1.0  0.94896959  0.48235822  0.4674944776033563  1.0000
  Ga  Ga19      1.0  0.05257882999999995  0.7499999999999999  0.4695861403230686  1.0000
  Ga  Ga20      1.0  0.17603040999999997  0.25  0.45189037961549183  1.0000
  Ga  Ga21      1.0  0.69006324  0.7499999999999999  0.46226767674388963  1.0000
  Ga  Ga22      1.0  0.53854599  0.25  0.459208846222871  1.0000
  Ga  Ga23      1.0  0.27963964999999996  0.98235822  0.4539820423352042  1.0000
  Ga  Ga24      1.0  0.94896959  0.017641779999999996  0.4674944776033563  1.0000
  Ir  Ir1       1.0  0.65453236  0.62631744  0.5198163881629216  1.0000
  Ir  Ir2       1.0  0.17747700999999994  0.37486044  0.5106662419422602  1.0000
  Ir  Ir3       1.0  0.17982246999999996  0.12460629  0.5106312268624776  1.0000
  Ir  Ir4       1.0  0.65849058  0.8759178399999998  0.5200258639169612  1.0000
  Ir  Ir5       1.0  0.76340762  0.24924531  0.5037125038888314  1.0000
  Ir  Ir6       1.0  0.19323550999999997  0.7496042799999999  0.49353938013579096  1.0000
  Ir  Ir7       1.0  0.8148574599999999  0.62281354  0.4849750241173722  1.0000
  Ir  Ir8       1.0  0.28875176999999996  0.37718646  0.47435400228982205  1.0000
  Ir  Ir9       1.0  0.28875176999999996  0.12281354  0.47435400228982205  1.0000
  Ir  Ir10      1.0  0.8148574599999999  0.8771864599999999  0.4849750241173722  1.0000
  Ir  Ir11      1.0  0.8930873  0.25  0.46636632461901795  1.0000
  Ir  Ir12      1.0  0.33552193999999996  0.7499999999999999  0.45511019531954255  1.0000
