data_image0
_chemical_formula_structural       COIn4Ni12In4Ni12
_chemical_formula_sum              "C1 O1 In8 Ni24"
_cell_length_a       5.40172151
_cell_length_b       11.622427838519803
_cell_length_c       104.28487512000001
_cell_angle_alpha    68.36230601484499
_cell_angle_beta     90.0
_cell_angle_gamma    62.30485297754304

_space_group_name_H-M_alt    "P 1"
_space_group_IT_number       1

loop_
  _space_group_symop_operation_xyz
  'x, y, z'

loop_
  _atom_site_type_symbol
  _atom_site_label
  _atom_site_symmetry_multiplicity
  _atom_site_fract_x
  _atom_site_fract_y
  _atom_site_fract_z
  _atom_site_occupancy
  C   C1        1.0  0.6719184599999999  0.83959717  0.5361791195759247  1.0000
  O   O1        1.0  0.66760215  0.84376205  0.5475431432842213  1.0000
  In  In1       1.0  0.6782156300000001  0.33333333000000004  0.4830756194251533  1.0000
  In  In2       1.0  0.6782156300000001  0.83333333  0.4625280118019549  1.0000
  In  In3       1.0  0.34488229000000004  0.16666666999999996  0.46937721653476583  1.0000
  In  In4       1.0  0.34488229000000004  0.66666667  0.4899248241579642  1.0000
  Ni  Ni1       1.0  0.6979402800000002  0.07840216999999998  0.4524568567157788  1.0000
  Ni  Ni2       1.0  0.6979402800000001  0.57840217  0.47300446433897714  1.0000
  Ni  Ni3       1.0  0.8547446200000001  0.42159783  0.45890076399774365  1.0000
  Ni  Ni4       1.0  0.85474462  0.9215978300000001  0.479448371620942  1.0000
  Ni  Ni5       1.0  0.8547446200000001  0.15680433999999996  0.46978251069799465  1.0000
  Ni  Ni6       1.0  0.85474462  0.65680434  0.4903301183211931  1.0000
  Ni  Ni7       1.0  0.16835329999999998  0.34319566  0.4826703252619244  1.0000
  Ni  Ni8       1.0  0.1683533  0.84319566  0.46212271763872603  1.0000
  Ni  Ni9       1.0  0.16835330000000007  0.07840216999999998  0.4524568567157788  1.0000
  Ni  Ni10      1.0  0.1683533000000001  0.57840217  0.47300446433897714  1.0000
  Ni  Ni11      1.0  0.32515763999999997  0.42159783  0.45890076399774365  1.0000
  Ni  Ni12      1.0  0.32515763999999997  0.9215978300000001  0.479448371620942  1.0000
  In  In5       1.0  0.6761177100000002  0.33539595  0.5244695508597502  1.0000
  In  In6       1.0  0.6744719199999999  0.83693245  0.5025265995856929  1.0000
  In  In7       1.0  0.34624369  0.16520653  0.5115590287236839  1.0000
  In  In8       1.0  0.34461911999999995  0.6666756000000001  0.5313222207411107  1.0000
  Ni  Ni13      1.0  0.6979402800000002  0.07840216999999998  0.49355207196217554  1.0000
  Ni  Ni14      1.0  0.68678119  0.58440817  0.5144222638745892  1.0000
  Ni  Ni15      1.0  0.8547446200000001  0.42159783  0.49999597924414035  1.0000
  Ni  Ni16      1.0  0.8443949700000001  0.91750103  0.5210507938767613  1.0000
  Ni  Ni17      1.0  0.8554073600000001  0.15598891999999998  0.510631559029831  1.0000
  Ni  Ni18      1.0  0.82380447  0.68762093  0.5297718856640456  1.0000
  Ni  Ni19      1.0  0.14459263999999997  0.36695183  0.5217558003762081  1.0000
  Ni  Ni20      1.0  0.16594268000000018  0.84546732  0.5029532665484671  1.0000
  Ni  Ni21      1.0  0.16835330000000007  0.07840216999999998  0.49355207196217554  1.0000
  Ni  Ni22      1.0  0.16715733000000005  0.58444027  0.5144172864221186  1.0000
  Ni  Ni23      1.0  0.32515763999999997  0.42159783  0.49999597924414035  1.0000
  Ni  Ni24      1.0  0.3434626000000002  0.91748576  0.5210508201776992  1.0000
