data_image0
_chemical_formula_structural       COAg12Sn4
_chemical_formula_sum              "C1 O1 Ag12 Sn4"
_cell_length_a       4.95425875
_cell_length_b       8.131562721695957
_cell_length_c       102.52625089
_cell_angle_alpha    81.04234982819935
_cell_angle_beta     90.0
_cell_angle_gamma    90.0

_space_group_name_H-M_alt    "P 1"
_space_group_IT_number       1

loop_
  _space_group_symop_operation_xyz
  'x, y, z'

loop_
  _atom_site_type_symbol
  _atom_site_label
  _atom_site_symmetry_multiplicity
  _atom_site_fract_x
  _atom_site_fract_y
  _atom_site_fract_z
  _atom_site_occupancy
  C   C1        1.0  0.49319700499999997  0.8708547600000001  0.5360783467029526  1.0000
  O   O1        1.0  0.48660387499999996  0.8334303500000001  0.5475913410805068  1.0000
  Ag  Ag1       1.0  0.751247955  0.83874212  0.5182978986355675  1.0000
  Ag  Ag2       1.0  0.756848675  0.33906473000000004  0.4784308649481181  1.0000
  Ag  Ag3       1.0  0.260536985  0.4137765  0.5118685025174786  1.0000
  Ag  Ag4       1.0  0.25684867499999997  0.9146431100000001  0.4724365903625238  1.0000
  Ag  Ag5       1.0  0.24322807499999996  0.7854585000000001  0.5021998041695511  1.0000
  Ag  Ag6       1.0  0.25684867499999997  0.2942819  0.4621153889609902  1.0000
  Ag  Ag7       1.0  0.768381985  0.47362664  0.525472459611215  1.0000
  Ag  Ag8       1.0  0.756848675  0.95942594  0.48875206634965174  1.0000
  Ag  Ag9       1.0  0.25684867499999997  0.54477726  0.4819826818651571  1.0000
  Ag  Ag10      1.0  0.23161801499999995  0.04057406000000002  0.5209863599423002  1.0000
  Ag  Ag11      1.0  0.751120055  0.20939809000000004  0.5091994599625259  1.0000
  Ag  Ag12      1.0  0.756848675  0.7089305800000001  0.4688847734454848  1.0000
  Sn  Sn1       1.0  0.25684867499999997  0.66716394  0.4524086589194931  1.0000
  Sn  Sn2       1.0  0.25684867499999997  0.16716394000000004  0.49206466239134705  1.0000
  Sn  Sn3       1.0  0.7453758749999999  0.5942353400000001  0.49811415716865576  1.0000
  Sn  Sn4       1.0  0.756848675  0.08654390000000002  0.45880279291929493  1.0000
