data_image0
_chemical_formula_structural       COPt12W6Pt12W6
_chemical_formula_sum              "C1 O1 Pt24 W12"
_cell_length_a       5.61995682
_cell_length_b       11.548376120761317
_cell_length_c       107.09603552
_cell_angle_alpha    68.84613168210633
_cell_angle_beta     90.0
_cell_angle_gamma    90.0

_space_group_name_H-M_alt    "P 1"
_space_group_IT_number       1

loop_
  _space_group_symop_operation_xyz
  'x, y, z'

loop_
  _atom_site_type_symbol
  _atom_site_label
  _atom_site_symmetry_multiplicity
  _atom_site_fract_x
  _atom_site_fract_y
  _atom_site_fract_z
  _atom_site_occupancy
  C   C1        1.0  0.12500001  0.4666700700000001  0.5382287844524881  1.0000
  O   O1        1.0  0.12500001  0.43674497  0.5498356595929487  1.0000
  Pt  Pt1       1.0  0.37500001  0.5019878400000001  0.47464299109266783  1.0000
  Pt  Pt2       1.0  0.37500001  0.16865451  0.5035080761041721  1.0000
  Pt  Pt3       1.0  0.3758497  0.8447373700000002  0.532034573654948  1.0000
  Pt  Pt4       1.0  0.12500001  0.27731507  0.47902942541855564  1.0000
  Pt  Pt5       1.0  0.12500002  0.94230798  0.5077573296853573  1.0000
  Pt  Pt6       1.0  0.12500001  0.6106484  0.45016434040705133  1.0000
  Pt  Pt7       1.0  0.12500001  0.16865451  0.4602104468550106  1.0000
  Pt  Pt8       1.0  0.12500001  0.8353211700000002  0.48907553186651487  1.0000
  Pt  Pt9       1.0  0.12500001  0.50725662  0.5195561207015121  1.0000
  Pt  Pt10      1.0  0.37607127999999995  0.27468359999999997  0.5224152121046789  1.0000
  Pt  Pt11      1.0  0.37500001  0.9439817300000001  0.46459688118089837  1.0000
  Pt  Pt12      1.0  0.37500001  0.6106484  0.493461969656213  1.0000
  W   W1        1.0  0.12500001  0.38965144999999995  0.49848502114828735  1.0000
  W   W2        1.0  0.12499998999999998  0.05571721  0.5259648487372147  1.0000
  W   W3        1.0  0.12500001  0.72298479  0.4696199361367831  1.0000
  W   W4        1.0  0.37500001  0.38965144999999995  0.45518739189912577  1.0000
  W   W5        1.0  0.37500001  0.05631812000000001  0.4840524803744404  1.0000
  W   W6        1.0  0.3869454499999999  0.72618932  0.5122918557585185  1.0000
  Pt  Pt13      1.0  0.87500001  0.5019878400000001  0.47464299109266783  1.0000
  Pt  Pt14      1.0  0.87500001  0.16865451  0.5035080761041721  1.0000
  Pt  Pt15      1.0  0.8741503100000001  0.8447373300000002  0.5320345667273273  1.0000
  Pt  Pt16      1.0  0.6250000099999999  0.27731507  0.47902942541855564  1.0000
  Pt  Pt17      1.0  0.625  0.94428279  0.5076865224743884  1.0000
  Pt  Pt18      1.0  0.6250000099999999  0.6106484  0.45016434040705133  1.0000
  Pt  Pt19      1.0  0.6250000099999999  0.16865451  0.4602104468550106  1.0000
  Pt  Pt20      1.0  0.6250000099999999  0.8353211700000002  0.48907553186651487  1.0000
  Pt  Pt21      1.0  0.6250000099999999  0.50615814  0.5175977342924691  1.0000
  Pt  Pt22      1.0  0.87392874  0.27468360999999997  0.5224152121046789  1.0000
  Pt  Pt23      1.0  0.87500001  0.9439817300000001  0.46459688118089837  1.0000
  Pt  Pt24      1.0  0.87500001  0.6106484  0.493461969656213  1.0000
  W   W7        1.0  0.6250000099999999  0.38965144999999995  0.49848502114828735  1.0000
  W   W8        1.0  0.62500002  0.05845955000000001  0.5259051395745749  1.0000
  W   W9        1.0  0.6250000099999999  0.72298479  0.4696199361367831  1.0000
  W   W10       1.0  0.87500001  0.38965144999999995  0.45518739189912577  1.0000
  W   W11       1.0  0.87500001  0.05631812000000001  0.4840524803744404  1.0000
  W   W12       1.0  0.8630545700000001  0.72618932  0.5122918557585185  1.0000
