data_image0
_chemical_formula_structural       COV4Ir12V4Ir12
_chemical_formula_sum              "C1 O1 V8 Ir24"
_cell_length_a       11.796524612419676
_cell_length_b       5.47896991
_cell_length_c       104.9459448
_cell_angle_alpha    90.0
_cell_angle_beta     111.73406814696652
_cell_angle_gamma    62.324961055209904

_space_group_name_H-M_alt    "P 1"
_space_group_IT_number       1

loop_
  _space_group_symop_operation_xyz
  'x, y, z'

loop_
  _atom_site_type_symbol
  _atom_site_label
  _atom_site_symmetry_multiplicity
  _atom_site_fract_x
  _atom_site_fract_y
  _atom_site_fract_z
  _atom_site_occupancy
  C   C1        1.0  0.46517942  0.8689003050000002  0.5395000452743279  1.0000
  O   O1        1.0  0.46319450999999995  0.886364985  0.5507831932505599  1.0000
  V   V1        1.0  0.33299181  0.6040516150000003  0.5170331468216213  1.0000
  V   V2        1.0  0.8333333299999999  0.6131113950000002  0.49777783985931784  1.0000
  V   V3        1.0  0.16666666999999996  0.2797780550000002  0.49084055036644947  1.0000
  V   V4        1.0  0.67549284  0.2702587150000002  0.5116514265350067  1.0000
  Ir  Ir1       1.0  0.41480185  0.2766853450000002  0.5009113984850874  1.0000
  Ir  Ir2       1.0  0.90565928  0.2923999950000003  0.5207096588787291  1.0000
  Ir  Ir3       1.0  0.16750282999999996  0.7789418950000001  0.4908753544759122  1.0000
  Ir  Ir4       1.0  0.66731882  0.7718365150000001  0.5119188707423943  1.0000
  Ir  Ir5       1.0  0.4156444999999999  0.7835712050000003  0.5009606044098416  1.0000
  Ir  Ir6       1.0  0.90308532  0.794890905  0.5208342803671183  1.0000
  Ir  Ir7       1.0  0.08653502999999999  0.6098123450000003  0.5080946676532349  1.0000
  Ir  Ir8       1.0  0.56413959  0.6270568650000002  0.5286249531712207  1.0000
  Ir  Ir9       1.0  0.32573994  0.13811022500000017  0.5190890767148449  1.0000
  Ir  Ir10      1.0  0.83249717  0.11394755500000026  0.497743035749855  1.0000
  Ir  Ir11      1.0  0.08726837999999999  0.11363501500000017  0.5080765663196106  1.0000
  Ir  Ir12      1.0  0.57805243  0.1432829650000002  0.5275072457684207  1.0000
  V   V5        1.0  0.33333333  0.6131113950000001  0.4769659680508132  1.0000
  V   V6        1.0  0.8333333299999999  0.6131113950000002  0.4561540962423086  1.0000
  V   V7        1.0  0.16666666999999996  0.2797780550000002  0.44921680674944026  1.0000
  V   V8        1.0  0.66666667  0.27977805500000014  0.47002867855794483  1.0000
  Ir  Ir13      1.0  0.41624858  0.281450385  0.4596053405989612  1.0000
  Ir  Ir14      1.0  0.91624858  0.281450385  0.48041721240746577  1.0000
  Ir  Ir15      1.0  0.16750282999999996  0.7789418950000001  0.4492516108589031  1.0000
  Ir  Ir16      1.0  0.66750283  0.7789418950000003  0.4700634826674076  1.0000
  Ir  Ir17      1.0  0.41624858  0.7789418950000001  0.4596053405989612  1.0000
  Ir  Ir18      1.0  0.91624858  0.778941895  0.48041721240746577  1.0000
  Ir  Ir19      1.0  0.08375141999999998  0.6114390650000001  0.4665774342012923  1.0000
  Ir  Ir20      1.0  0.5837514199999999  0.6114390650000003  0.4873893060097969  1.0000
  Ir  Ir21      1.0  0.33249717  0.11394755500000017  0.4769311639413504  1.0000
  Ir  Ir22      1.0  0.83249717  0.11394755500000026  0.4561192921328458  1.0000
  Ir  Ir23      1.0  0.08375141999999998  0.11394755500000017  0.4665774342012923  1.0000
  Ir  Ir24      1.0  0.5837514199999999  0.11394755500000026  0.4873893060097969  1.0000
