data_image0
_chemical_formula_structural       COPd24Sn8
_chemical_formula_sum              "C1 O1 Pd24 Sn8"
_cell_length_a       7.05075312
_cell_length_b       5.75691581
_cell_length_c       109.88508273
_cell_angle_alpha    90.0
_cell_angle_beta     90.0
_cell_angle_gamma    90.0

_space_group_name_H-M_alt    "P 1"
_space_group_IT_number       1

loop_
  _space_group_symop_operation_xyz
  'x, y, z'

loop_
  _atom_site_type_symbol
  _atom_site_label
  _atom_site_symmetry_multiplicity
  _atom_site_fract_x
  _atom_site_fract_y
  _atom_site_fract_z
  _atom_site_occupancy
  C   C1        1.0  0.15683365999999999  0.12500121499999997  0.5561978632154361  1.0000
  O   O1        1.0  0.20354311  0.12499852499999999  0.5666362916629385  1.0000
  Pd  Pd1       1.0  0.3380630499999999  0.12500351499999998  0.5400482335099296  1.0000
  Pd  Pd2       1.0  0.98367429  0.624996225  0.5237462286383491  1.0000
  Pd  Pd3       1.0  0.6499990199999999  0.12500431499999998  0.5089826358204534  1.0000
  Pd  Pd4       1.0  0.31666568  0.625004315  0.4938588525016002  1.0000
  Pd  Pd5       1.0  0.6584898299999998  0.8725765249999998  0.5318540792837184  1.0000
  Pd  Pd6       1.0  0.31666568  0.375004315  0.5165445311095886  1.0000
  Pd  Pd7       1.0  0.9833323499999999  0.875004315  0.5014207441610268  1.0000
  Pd  Pd8       1.0  0.016325709999999993  0.37595170499999997  0.5458238875031405  1.0000
  Pd  Pd9       1.0  0.6584882199999998  0.37741286500000004  0.5318527508103791  1.0000
  Pd  Pd10      1.0  0.31666568  0.875004315  0.5165445311095886  1.0000
  Pd  Pd11      1.0  0.9833323499999999  0.375004315  0.5014207441610268  1.0000
  Pd  Pd12      1.0  0.01633714999999999  0.874055025  0.5458232668229738  1.0000
  Pd  Pd13      1.0  0.9833323499999999  0.12500431499999998  0.4787350655530383  1.0000
  Pd  Pd14      1.0  0.6499990199999999  0.625004315  0.4636112786044766  1.0000
  Pd  Pd15      1.0  0.31666568  0.12500431499999998  0.4484874952856233  1.0000
  Pd  Pd16      1.0  0.9833323499999999  0.625004315  0.4333637083370615  1.0000
  Pd  Pd17      1.0  0.31666568  0.875004315  0.47117317389361174  1.0000
  Pd  Pd18      1.0  0.9833323499999999  0.375004315  0.4560493869450499  1.0000
  Pd  Pd19      1.0  0.6499990199999999  0.875004315  0.4409255999964881  1.0000
  Pd  Pd20      1.0  0.6499990199999999  0.375004315  0.486296957212465  1.0000
  Pd  Pd21      1.0  0.31666568  0.375004315  0.47117317389361174  1.0000
  Pd  Pd22      1.0  0.9833323499999999  0.875004315  0.4560493869450499  1.0000
  Pd  Pd23      1.0  0.6499990199999999  0.375004315  0.4409255999964881  1.0000
  Pd  Pd24      1.0  0.6499990199999999  0.875004315  0.486296957212465  1.0000
  Sn  Sn1       1.0  0.31666568  0.12500431499999998  0.4938588525016002  1.0000
  Sn  Sn2       1.0  0.33904144999999997  0.6250072649999999  0.5384211876024961  1.0000
  Sn  Sn3       1.0  0.9809201599999999  0.124995685  0.5240647646036738  1.0000
  Sn  Sn4       1.0  0.6499990199999999  0.625004315  0.5089826358204534  1.0000
  Sn  Sn5       1.0  0.9833323499999999  0.12500431499999998  0.4333637083370615  1.0000
  Sn  Sn6       1.0  0.9833323499999999  0.625004315  0.4787350655530383  1.0000
  Sn  Sn7       1.0  0.6499990199999999  0.12500431499999998  0.4636112786044766  1.0000
  Sn  Sn8       1.0  0.31666568  0.625004315  0.4484874952856233  1.0000
