data_image0
_chemical_formula_structural       COAl18Cu6
_chemical_formula_sum              "C1 O1 Al18 Cu6"
_cell_length_a       8.26685352273925
_cell_length_b       6.299111510861639
_cell_length_c       100.0265847
_cell_angle_alpha    87.59534103477608
_cell_angle_beta     85.21034563591037
_cell_angle_gamma    107.745459760819

_space_group_name_H-M_alt    "P 1"
_space_group_IT_number       1

loop_
  _space_group_symop_operation_xyz
  'x, y, z'

loop_
  _atom_site_type_symbol
  _atom_site_label
  _atom_site_symmetry_multiplicity
  _atom_site_fract_x
  _atom_site_fract_y
  _atom_site_fract_z
  _atom_site_occupancy
  C   C1        1.0  0.9887075149999999  0.5284153249999999  0.5342215466615625  1.0000
  O   O1        1.0  0.9462440849999999  0.546050405  0.5457215268946225  1.0000
  Al  Al1       1.0  0.889204335  0.04585511499999999  0.5245864482084959  1.0000
  Al  Al2       1.0  0.9096852849999999  0.6475206150000001  0.5150129509334035  1.0000
  Al  Al3       1.0  0.9675267749999998  0.280723155  0.50066310346531  1.0000
  Al  Al4       1.0  0.688325345  0.8521625750000001  0.5043363690100603  1.0000
  Al  Al5       1.0  0.726173215  0.47572864499999995  0.4918017285354912  1.0000
  Al  Al6       1.0  0.633059975  0.216880515  0.5176605227937623  1.0000
  Al  Al7       1.0  0.21653794499999998  0.05294762500000004  0.5119343239221052  1.0000
  Al  Al8       1.0  0.24107446499999996  0.6816052450000001  0.4981017330291856  1.0000
  Al  Al9       1.0  0.17342776499999998  0.43449458500000004  0.522260174476013  1.0000
  Al  Al10      1.0  0.011292484999999994  0.8916448850000002  0.48899719839859845  1.0000
  Al  Al11      1.0  0.05295914499999999  0.516644885  0.47648944558794043  1.0000
  Al  Al12      1.0  0.09462581499999999  0.14164488500000003  0.4639816957791428  1.0000
  Al  Al13      1.0  0.809506545  0.725728645  0.4667862259160356  1.0000
  Al  Al14      1.0  0.851173215  0.35072864499999995  0.4542784731053775  1.0000
  Al  Al15      1.0  0.767839875  0.10072864499999998  0.4792939757248331  1.0000
  Al  Al16      1.0  0.33807841499999997  0.932561115  0.4736849154510477  1.0000
  Al  Al17      1.0  0.3797450849999999  0.557561115  0.46117716564225003  1.0000
  Al  Al18      1.0  0.29641175499999994  0.30756111499999994  0.48619266826170565  1.0000
  Cu  Cu1       1.0  0.49045914499999993  0.07914488500000003  0.49525107330299734  1.0000
  Cu  Cu2       1.0  0.4071203749999999  0.8151321550000001  0.517671017297841  1.0000
  Cu  Cu3       1.0  0.45434463499999994  0.452467155  0.5080845820042765  1.0000
  Cu  Cu4       1.0  0.6154591449999999  0.9541448849999999  0.4577278178728836  1.0000
  Cu  Cu5       1.0  0.5321258149999999  0.704144885  0.4827433234941996  1.0000
  Cu  Cu6       1.0  0.5737924849999999  0.32914488499999994  0.47023557068354166  1.0000
