data_image0
_chemical_formula_structural       COPt12W6
_chemical_formula_sum              "C1 O1 Pt12 W6"
_cell_length_a       4.845183671856729
_cell_length_b       6.26639946209125
_cell_length_c       103.58550995
_cell_angle_alpha    84.73903387057746
_cell_angle_beta     88.75070524891966
_cell_angle_gamma    75.33451840666208

_space_group_name_H-M_alt    "P 1"
_space_group_IT_number       1

loop_
  _space_group_symop_operation_xyz
  'x, y, z'

loop_
  _atom_site_type_symbol
  _atom_site_label
  _atom_site_symmetry_multiplicity
  _atom_site_fract_x
  _atom_site_fract_y
  _atom_site_fract_z
  _atom_site_occupancy
  C   C1        1.0  0.6337296099999999  0.23290729999999998  0.5414619193049156  1.0000
  O   O1        1.0  0.6518183999999999  0.25687074  0.5527217785440776  1.0000
  Pt  Pt1       1.0  0.93423659  0.7058366200000001  0.5040032800234391  1.0000
  Pt  Pt2       1.0  0.20533753  0.32587263999999994  0.5194433855361181  1.0000
  Pt  Pt3       1.0  0.55297086  0.94950805  0.534411957155166  1.0000
  Pt  Pt4       1.0  0.63739797  0.50421118  0.5272458494037768  1.0000
  Pt  Pt5       1.0  0.06764159999999997  0.28858718999999994  0.4935967644569123  1.0000
  Pt  Pt6       1.0  0.3578621499999998  0.9043476900000001  0.5090008577648732  1.0000
  Pt  Pt7       1.0  0.07709373  0.84869377  0.45768473702244933  1.0000
  Pt  Pt8       1.0  0.36280801999999995  0.46774139000000003  0.4731242491945805  1.0000
  Pt  Pt9       1.0  0.6485223  0.08678900999999999  0.48856376460900985  1.0000
  Pt  Pt10      1.0  0.78192732  0.6695395699999999  0.47815724904248297  1.0000
  Pt  Pt11      1.0  0.21049874999999996  0.43144433  0.4472782214559224  1.0000
  Pt  Pt12      1.0  0.4962130299999999  0.050491949999999994  0.46271773362805363  1.0000
  W   W1        1.0  0.0657634099999999  0.7320518200000001  0.5277789804762351  1.0000
  W   W2        1.0  0.5009391  0.49721191  0.4988000206190268  1.0000
  W   W3        1.0  0.79292383  0.11790165999999999  0.5144240941244764  1.0000
  W   W4        1.0  0.21522480999999993  0.87816429  0.48336050844689543  1.0000
  W   W5        1.0  0.6437962399999999  0.6400690499999999  0.4524814776180368  1.0000
  W   W6        1.0  0.92951052  0.25911667  0.4679209930324661  1.0000
