data_image0
_chemical_formula_structural       COAl6W3Al6W3
_chemical_formula_sum              "C1 O1 Al12 W6"
_cell_length_a       4.88774037464536
_cell_length_b       6.80750435
_cell_length_c       104.21418262
_cell_angle_alpha    90.0
_cell_angle_beta     59.99999996376034
_cell_angle_gamma    90.0

_space_group_name_H-M_alt    "P 1"
_space_group_IT_number       1

loop_
  _space_group_symop_operation_xyz
  'x, y, z'

loop_
  _atom_site_type_symbol
  _atom_site_label
  _atom_site_symmetry_multiplicity
  _atom_site_fract_x
  _atom_site_fract_y
  _atom_site_fract_z
  _atom_site_occupancy
  C   C1        1.0  0.7135420750000001  0.5018865149999999  0.5446624786150909  1.0000
  O   O1        1.0  0.5933850150000001  0.5251406249999999  0.5574500061402513  1.0000
  Al  Al1       1.0  0.704568455  0.17568890499999992  0.44254999385974875  1.0000
  Al  Al2       1.0  0.8731131750000001  0.8423555649999999  0.4504548928640764  1.0000
  Al  Al3       1.0  0.8731131750000001  0.5090222349999999  0.47364110194052267  1.0000
  Al  Al4       1.0  0.378747335  0.17568890499999992  0.47364110194052267  1.0000
  Al  Al5       1.0  0.21020261500000004  0.8423555649999999  0.465736202936195  1.0000
  Al  Al6       1.0  0.21020261500000004  0.5090222349999999  0.4425499938597488  1.0000
  W   W1        1.0  0.5416578950000001  0.5090222349999999  0.4580955479001358  1.0000
  W   W2        1.0  0.5416578950000001  0.8423555649999999  0.4815460042279144  1.0000
  W   W3        1.0  0.04165789500000003  0.17568890499999992  0.4580955479001357  1.0000
  Al  Al7       1.0  0.704568455  0.17568890499999992  0.4894509065153059  1.0000
  Al  Al8       1.0  0.9020286649999999  0.8424041649999999  0.49455390742082256  1.0000
  Al  Al9       1.0  0.9107038850000001  0.4968775349999999  0.5222697959449262  1.0000
  Al  Al10      1.0  0.322149715  0.18103868499999995  0.5211569324742052  1.0000
  Al  Al11      1.0  0.22701679500000002  0.8378410549999998  0.5110404335526192  1.0000
  Al  Al12      1.0  0.21020261500000004  0.5090222349999999  0.48945090651530604  1.0000
  W   W4        1.0  0.569658385  0.5256532949999999  0.507996691830881  1.0000
  W   W5        1.0  0.5989527750000002  0.842554405  0.5231489183945525  1.0000
  W   W6        1.0  0.9583421049999999  0.15744559499999997  0.5078903271249788  1.0000
