data_image0
_chemical_formula_structural       COAl3Pd2Al3Pd2Al3Pd2Al3Pd2
_chemical_formula_sum              "C1 O1 Al12 Pd8"
_cell_length_a       8.534599640546007
_cell_length_b       5.2529499
_cell_length_c       104.13839852000001
_cell_angle_alpha    90.0
_cell_angle_beta     119.9999999978837
_cell_angle_gamma    90.0

_space_group_name_H-M_alt    "P 1"
_space_group_IT_number       1

loop_
  _space_group_symop_operation_xyz
  'x, y, z'

loop_
  _atom_site_type_symbol
  _atom_site_label
  _atom_site_symmetry_multiplicity
  _atom_site_fract_x
  _atom_site_fract_y
  _atom_site_fract_z
  _atom_site_occupancy
  C   C1        1.0  0.22547580500000003  0.7445787850000001  0.5343704643532045  1.0000
  O   O1        1.0  0.31025325500000006  0.7644849049999999  0.5475613424943855  1.0000
  Al  Al1       1.0  0.06953938500000002  0.07900636500000004  0.46609772472459177  1.0000
  Al  Al2       1.0  0.40287271500000005  0.724037865  0.4797567919435691  1.0000
  Al  Al3       1.0  0.23620605500000003  0.43397486500000004  0.45243865750561446  1.0000
  Pd  Pd1       1.0  0.40287271500000005  0.237019095  0.4797567919435691  1.0000
  Pd  Pd2       1.0  0.23620605500000003  0.9209936349999999  0.45243865750561446  1.0000
  Al  Al4       1.0  0.07161796500000003  0.159772285  0.5077914897323094  1.0000
  Al  Al5       1.0  0.33974866500000006  0.723890455  0.5192472326635161  1.0000
  Al  Al6       1.0  0.23500352500000005  0.432667205  0.49264332423695145  1.0000
  Pd  Pd3       1.0  0.398506905  0.24890225500000002  0.5193288953026212  1.0000
  Pd  Pd4       1.0  0.23389168500000004  0.917029315  0.49349304709158853  1.0000
  Al  Al7       1.0  0.5695393850000001  0.07900636500000004  0.4660977247245918  1.0000
  Al  Al8       1.0  0.9028727150000001  0.724037865  0.4797567919435691  1.0000
  Al  Al9       1.0  0.736206055  0.43397486500000004  0.45243865750561446  1.0000
  Pd  Pd5       1.0  0.9028727150000001  0.237019095  0.4797567919435691  1.0000
  Pd  Pd6       1.0  0.736206055  0.9209936349999999  0.45243865750561446  1.0000
  Al  Al10      1.0  0.571977655  0.08134872500000004  0.5076460206780646  1.0000
  Al  Al11      1.0  0.9304606150000001  0.728444775  0.5196344081810297  1.0000
  Al  Al12      1.0  0.728481505  0.433870325  0.4927560705396587  1.0000
  Pd  Pd7       1.0  0.8857543150000001  0.248942815  0.5193951767405428  1.0000
  Pd  Pd8       1.0  0.739367515  0.9181523549999999  0.4934341743311338  1.0000
