data_image0
_chemical_formula_structural       CORe8Si8Re8Si8
_chemical_formula_sum              "C1 O1 Re16 Si16"
_cell_length_a       4.81749887
_cell_length_b       6.81297224
_cell_length_c       104.06486119
_cell_angle_alpha    90.0
_cell_angle_beta     90.0
_cell_angle_gamma    90.0

_space_group_name_H-M_alt    "P 1"
_space_group_IT_number       1

loop_
  _space_group_symop_operation_xyz
  'x, y, z'

loop_
  _atom_site_type_symbol
  _atom_site_label
  _atom_site_symmetry_multiplicity
  _atom_site_fract_x
  _atom_site_fract_y
  _atom_site_fract_z
  _atom_site_occupancy
  C   C1        1.0  0.51409105  0.587002195  0.5640955384280522  1.0000
  O   O1        1.0  0.5930159100000001  0.6282870050000001  0.5743940047303986  1.0000
  Re  Re1       1.0  0.65154528  0.6169852450000001  0.45075115020994855  1.0000
  Re  Re2       1.0  0.65154528  0.116985245  0.4834854092100204  1.0000
  Re  Re3       1.0  0.15154528  0.635145485  0.4671182797099845  1.0000
  Re  Re4       1.0  0.15154528  0.13514548499999998  0.4343840207099125  1.0000
  Re  Re5       1.0  0.38338503999999995  0.251065365  0.4595291756502596  1.0000
  Re  Re6       1.0  0.38338503999999995  0.751065365  0.4267949166501876  1.0000
  Re  Re7       1.0  0.88338504  0.501065365  0.42560599526960136  1.0000
  Re  Re8       1.0  0.88338504  0.001065364999999989  0.4583402542696734  1.0000
  Si  Si1       1.0  0.36176538999999996  0.406765135  0.4834854092100204  1.0000
  Si  Si2       1.0  0.36176538999999996  0.9067651350000001  0.45075115020994855  1.0000
  Si  Si3       1.0  0.86176539  0.34536559499999997  0.4671182797099845  1.0000
  Si  Si4       1.0  0.86176539  0.8453655950000001  0.4343840207099125  1.0000
  Si  Si5       1.0  0.6731649300000001  0.751065365  0.47329197732452755  1.0000
  Si  Si6       1.0  0.6731649300000001  0.251065365  0.44055771832445556  1.0000
  Si  Si7       1.0  0.17316493  0.501065365  0.4445774525954054  1.0000
  Si  Si8       1.0  0.17316493  0.001065364999999989  0.4773117115954774  1.0000
  Re  Re9       1.0  0.65154528  0.6169852450000001  0.5162196682100925  1.0000
  Re  Re10      1.0  0.60584174  0.11657849499999999  0.5455182834162565  1.0000
  Re  Re11      1.0  0.15686072  0.6396329950000001  0.5326438109690289  1.0000
  Re  Re12      1.0  0.15154528  0.13514548499999998  0.49985253871005647  1.0000
  Re  Re13      1.0  0.38685803999999996  0.245714425  0.52515507669425  1.0000
  Re  Re14      1.0  0.38338503999999995  0.751065365  0.49226343465033157  1.0000
  Re  Re15      1.0  0.88338504  0.501065365  0.4910745132697453  1.0000
  Re  Re16      1.0  0.88365478  0.998934635  0.5233724573316054  1.0000
  Si  Si9       1.0  0.40469091999999995  0.450131695  0.5490046489444851  1.0000
  Si  Si10      1.0  0.36176538999999996  0.9067651350000001  0.5162196682100925  1.0000
  Si  Si11      1.0  0.88301765  0.349125615  0.5329663121621235  1.0000
  Si  Si12      1.0  0.86176539  0.8453655950000001  0.49985253871005647  1.0000
  Si  Si13      1.0  0.66348841  0.7513223150000001  0.5400292293755518  1.0000
  Si  Si14      1.0  0.6731649300000001  0.251065365  0.5060262363245995  1.0000
  Si  Si15      1.0  0.17316493  0.501065365  0.5100459705955493  1.0000
  Si  Si16      1.0  0.11634522000000003  0.9780007549999999  0.5447980020546448  1.0000
