data_image0
_chemical_formula_structural       COAl10Cu10
_chemical_formula_sum              "C1 O1 Al10 Cu10"
_cell_length_a       6.447427023041779
_cell_length_b       6.447972113545252
_cell_length_c       39.33411263
_cell_angle_alpha    92.87417114816638
_cell_angle_beta     92.87645390279556
_cell_angle_gamma    65.71651149257372

_space_group_name_H-M_alt    "P 1"
_space_group_IT_number       1

loop_
  _space_group_symop_operation_xyz
  'x, y, z'

loop_
  _atom_site_type_symbol
  _atom_site_label
  _atom_site_symmetry_multiplicity
  _atom_site_fract_x
  _atom_site_fract_y
  _atom_site_fract_z
  _atom_site_occupancy
  C   C1        1.0  0.3499745699999998  0.62156087  0.5942487122889183  1.0000
  O   O1        1.0  0.3142171499999999  0.60699351  0.6226355410192426  1.0000
  Al  Al1       1.0  0.6224041199999999  0.58827716  0.3892312595854284  1.0000
  Al  Al2       1.0  0.22842331999999985  0.58387336  0.42273375085502607  1.0000
  Al  Al3       1.0  0.89138492  0.46768096  0.45318198805178084  1.0000
  Al  Al4       1.0  0.34644588999999987  0.07733147999999997  0.40109806019009914  1.0000
  Al  Al5       1.0  0.89836235  0.09922283999999998  0.3773644589807575  1.0000
  Al  Al6       1.0  0.49360814999999986  0.46613112999999995  0.4865778654989874  1.0000
  Al  Al7       1.0  0.10907605999999997  0.4606558399999999  0.5205948162136999  1.0000
  Al  Al8       1.0  0.78346149  0.32003507999999997  0.5422796622826614  1.0000
  Al  Al9       1.0  0.2352282999999999  0.9343903799999999  0.49830409957951105  1.0000
  Al  Al10      1.0  0.77336235  0.97422284  0.4748176787167075  1.0000
  Cu  Cu1       1.0  0.059904119999999936  0.025777159999999962  0.4379578694534034  1.0000
  Cu  Cu2       1.0  0.8168379299999998  0.8174365  0.4128201232728182  1.0000
  Cu  Cu3       1.0  0.3029703099999999  0.23411781999999995  0.46309561563398854  1.0000
  Cu  Cu4       1.0  0.62748161  0.26753409999999994  0.427340169645505  1.0000
  Cu  Cu5       1.0  0.49232663000000004  0.7840202199999999  0.4485755692613019  1.0000
  Cu  Cu6       1.0  0.9400958799999998  0.8918915399999999  0.5352596079045959  1.0000
  Cu  Cu7       1.0  0.6871839199999998  0.6978662399999999  0.5123020929522011  1.0000
  Cu  Cu8       1.0  0.1890439899999999  0.10182760999999999  0.5551411172255029  1.0000
  Cu  Cu9       1.0  0.5098705199999999  0.13858777999999997  0.5251830541315048  1.0000
  Cu  Cu10      1.0  0.37215483999999993  0.64071846  0.5474917801207008  1.0000
