data_image0
_chemical_formula_structural       COIr6W2Ir6W2
_chemical_formula_sum              "C1 O1 Ir12 W4"
_cell_length_a       5.55830385
_cell_length_b       5.558303842258078
_cell_length_c       101.07500515
_cell_angle_alpha    90.0
_cell_angle_beta     90.0
_cell_angle_gamma    119.99999998656126

_space_group_name_H-M_alt    "P 1"
_space_group_IT_number       1

loop_
  _space_group_symop_operation_xyz
  'x, y, z'

loop_
  _atom_site_type_symbol
  _atom_site_label
  _atom_site_symmetry_multiplicity
  _atom_site_fract_x
  _atom_site_fract_y
  _atom_site_fract_z
  _atom_site_occupancy
  C   C1        1.0  0.33313443  0.666866235  0.5343410225663017  1.0000
  O   O1        1.0  0.33312801999999997  0.666871965  0.546241302403598  1.0000
  Ir  Ir1       1.0  0.6667490600000001  0.8336612850000001  0.4757190544354948  1.0000
  Ir  Ir2       1.0  0.33286862  0.166721065  0.453758697596402  1.0000
  Ir  Ir3       1.0  0.8332789500000002  0.166721065  0.453758697596402  1.0000
  Ir  Ir4       1.0  0.16633873000000002  0.333250955  0.4757190544354948  1.0000
  Ir  Ir5       1.0  0.1663387300000001  0.8336612850000001  0.4757190544354948  1.0000
  Ir  Ir6       1.0  0.8332789500000002  0.667131395  0.453758697596402  1.0000
  W   W1        1.0  0.66647551  0.33352450499999997  0.4757190544354948  1.0000
  W   W2        1.0  0.33314216999999996  0.666857845  0.453758697596402  1.0000
  Ir  Ir7       1.0  0.6591819199999999  0.829876775  0.5196474788343278  1.0000
  Ir  Ir8       1.0  0.33210749  0.166339925  0.49763668564267405  1.0000
  Ir  Ir9       1.0  0.8336612700000001  0.166338715  0.4976368147695749  1.0000
  Ir  Ir10      1.0  0.17012316  0.340818075  0.5196474726854278  1.0000
  Ir  Ir11      1.0  0.17012143000000005  0.8298785949999999  0.5196474573131777  1.0000
  Ir  Ir12      1.0  0.8336600700000002  0.667892475  0.497636682568224  1.0000
  W   W3        1.0  0.6664754399999999  0.33352451499999997  0.51859231221557  1.0000
  W   W4        1.0  0.33314262  0.666857465  0.4980248564787181  1.0000
