data_image0
_chemical_formula_structural       COIr8V8Ir8V8
_chemical_formula_sum              "C1 O1 Ir16 V16"
_cell_length_a       8.1400874
_cell_length_b       5.2644079784568705
_cell_length_c       101.48513833999999
_cell_angle_alpha    93.688170745818
_cell_angle_beta     90.0
_cell_angle_gamma    90.0

_space_group_name_H-M_alt    "P 1"
_space_group_IT_number       1

loop_
  _space_group_symop_operation_xyz
  'x, y, z'

loop_
  _atom_site_type_symbol
  _atom_site_label
  _atom_site_symmetry_multiplicity
  _atom_site_fract_x
  _atom_site_fract_y
  _atom_site_fract_z
  _atom_site_occupancy
  C   C1        1.0  0.37996801  0.6572055849999999  0.5467465573263429  1.0000
  O   O1        1.0  0.37996683  0.7510463249999999  0.5578393224829886  1.0000
  Ir  Ir1       1.0  0.12002686  0.365122285  0.5397966642218439  1.0000
  Ir  Ir2       1.0  0.12997016  0.14983994500000003  0.490132608014116  1.0000
  Ir  Ir3       1.0  0.12997016  0.515651295  0.46743446491752716  1.0000
  Ir  Ir4       1.0  0.13102211  0.702606945  0.5187589740429382  1.0000
  Ir  Ir5       1.0  0.3799790699999999  0.9833976950000001  0.5307546387251532  1.0000
  Ir  Ir6       1.0  0.37997016000000006  0.805027735  0.48025978676114967  1.0000
  Ir  Ir7       1.0  0.37997016000000006  0.439216385  0.5029579298577385  1.0000
  Ir  Ir8       1.0  0.37997016000000006  0.272549725  0.451250623276191  1.0000
  V   V1        1.0  0.12997016  0.003378335000000038  0.4641857962563028  1.0000
  V   V2        1.0  0.13326784999999997  0.17428924500000004  0.5164333862686383  1.0000
  V   V3        1.0  0.12997016  0.5064278350000001  0.44216067751701116  1.0000
  V   V4        1.0  0.12997016  0.673094495  0.4938679840985586  1.0000
  V   V5        1.0  0.37997016000000006  0.784822685  0.4544992919374154  1.0000
  V   V6        1.0  0.37997016000000006  0.9514893550000001  0.5062065954165245  1.0000
  V   V7        1.0  0.37997016000000006  0.281773185  0.4765244075742687  1.0000
  V   V8        1.0  0.3799674900000001  0.459197825  0.5292095872061369  1.0000
  Ir  Ir9       1.0  0.6399163899999999  0.365122565  0.5397959847878491  1.0000
  Ir  Ir10      1.0  0.6299701600000001  0.14983994500000003  0.490132608014116  1.0000
  Ir  Ir11      1.0  0.6299701600000001  0.515651295  0.46743446491752716  1.0000
  Ir  Ir12      1.0  0.62890332  0.702613685  0.5187586110576533  1.0000
  Ir  Ir13      1.0  0.8799610200000001  0.996621665  0.53057396822884  1.0000
  Ir  Ir14      1.0  0.8799701600000001  0.805027735  0.48025978676114967  1.0000
  Ir  Ir15      1.0  0.8799701600000001  0.439216385  0.5029579298577385  1.0000
  Ir  Ir16      1.0  0.8799701600000001  0.272549725  0.451250623276191  1.0000
  V   V9        1.0  0.6299701600000001  0.003378335000000038  0.4641857962563028  1.0000
  V   V10       1.0  0.62667207  0.17428070500000004  0.51643273165415  1.0000
  V   V11       1.0  0.6299701600000001  0.5064278350000001  0.44216067751701116  1.0000
  V   V12       1.0  0.6299701600000001  0.673094495  0.4938679840985586  1.0000
  V   V13       1.0  0.8799701600000001  0.784822685  0.4544992919374154  1.0000
  V   V14       1.0  0.8799701600000001  0.9514893550000001  0.5062065954165245  1.0000
  V   V15       1.0  0.8799701600000001  0.281773185  0.4765244075742687  1.0000
  V   V16       1.0  0.87997314  0.463358895  0.5281133064944047  1.0000
