data_image0
_chemical_formula_structural       COAl18V6Al18V6
_chemical_formula_sum              "C1 O1 Al36 V12"
_cell_length_a       7.57829468
_cell_length_b       11.284536039703724
_cell_length_c       106.71900672999999
_cell_angle_alpha    66.56704139105156
_cell_angle_beta     90.0
_cell_angle_gamma    90.0

_space_group_name_H-M_alt    "P 1"
_space_group_IT_number       1

loop_
  _space_group_symop_operation_xyz
  'x, y, z'

loop_
  _atom_site_type_symbol
  _atom_site_label
  _atom_site_symmetry_multiplicity
  _atom_site_fract_x
  _atom_site_fract_y
  _atom_site_fract_z
  _atom_site_occupancy
  C   C1        1.0  0.26478476  0.6404930850000001  0.5329439770358779  1.0000
  O   O1        1.0  0.26478297  0.603821835  0.5453769172170357  1.0000
  Al  Al1       1.0  0.014788019999999982  0.8723370450000001  0.4976320647992831  1.0000
  Al  Al2       1.0  0.014788019999999982  0.205670385  0.46895941126864327  1.0000
  Al  Al3       1.0  0.0038521399999999813  0.525130285  0.5260973909515744  1.0000
  Al  Al4       1.0  0.26478802  0.7890037150000001  0.48329573975432244  1.0000
  Al  Al5       1.0  0.26478802  0.12233704500000002  0.4546230827829641  1.0000
  Al  Al6       1.0  0.26478566  0.45351640500000007  0.5121536587758958  1.0000
  Al  Al7       1.0  0.014788019999999982  0.6223370450000001  0.4976320647992831  1.0000
  Al  Al8       1.0  0.014788019999999982  0.9556703850000001  0.4689594112686432  1.0000
  Al  Al9       1.0  0.015138489999999982  0.271383245  0.5282037334811529  1.0000
  Al  Al10      1.0  0.26478802  0.539003715  0.48329573975432244  1.0000
  Al  Al11      1.0  0.26478802  0.8723370450000001  0.4546230827829641  1.0000
  Al  Al12      1.0  0.26489197  0.20698993500000004  0.5131701537011809  1.0000
  Al  Al13      1.0  0.99614786  0.7893012650000001  0.5261724192605223  1.0000
  Al  Al14      1.0  0.014788019999999982  0.12233704500000002  0.4976320647992831  1.0000
  Al  Al15      1.0  0.014788019999999982  0.455670385  0.46895941126864327  1.0000
  Al  Al16      1.0  0.26485411999999997  0.951080575  0.5137434221428356  1.0000
  Al  Al17      1.0  0.26478802  0.28900371500000005  0.4832957397543225  1.0000
  Al  Al18      1.0  0.26478802  0.6223370450000001  0.45462308278296404  1.0000
  V   V1        1.0  0.014788019999999982  0.705670385  0.46895941126864327  1.0000
  V   V2        1.0  0.01115652999999998  0.048073705000000015  0.5245642239642494  1.0000
  V   V3        1.0  0.014788019999999982  0.37233704500000003  0.4976320647992831  1.0000
  V   V4        1.0  0.26477137  0.700103715  0.5134799009489438  1.0000
  V   V5        1.0  0.26478802  0.03900371500000002  0.4832957397543225  1.0000
  V   V6        1.0  0.26478802  0.37233704500000003  0.45462308278296404  1.0000
  Al  Al19      1.0  0.51478802  0.8723370450000001  0.4976320647992831  1.0000
  Al  Al20      1.0  0.51478802  0.205670385  0.46895941126864327  1.0000
  Al  Al21      1.0  0.52571647  0.525150585  0.5260983543527715  1.0000
  Al  Al22      1.0  0.76478802  0.7890037150000001  0.48329573975432244  1.0000
  Al  Al23      1.0  0.76478802  0.12233704500000002  0.4546230827829641  1.0000
  Al  Al24      1.0  0.7647857999999998  0.45368684500000006  0.5116516063270229  1.0000
  Al  Al25      1.0  0.51478802  0.6223370450000001  0.4976320647992831  1.0000
  Al  Al26      1.0  0.51478802  0.9556703850000001  0.4689594112686432  1.0000
  Al  Al27      1.0  0.51442813  0.271326675  0.5282025533146865  1.0000
  Al  Al28      1.0  0.76478802  0.539003715  0.48329573975432244  1.0000
  Al  Al29      1.0  0.76478802  0.8723370450000001  0.4546230827829641  1.0000
  Al  Al30      1.0  0.76470069  0.20951395500000003  0.5129875582078509  1.0000
  Al  Al31      1.0  0.5334448099999999  0.789343125  0.5261730867599231  1.0000
  Al  Al32      1.0  0.51478802  0.12233704500000002  0.4976320647992831  1.0000
  Al  Al33      1.0  0.51478802  0.455670385  0.46895941126864327  1.0000
  Al  Al34      1.0  0.76469874  0.960996285  0.5119887761017194  1.0000
  Al  Al35      1.0  0.76478802  0.28900371500000005  0.4832957397543225  1.0000
  Al  Al36      1.0  0.76478802  0.6223370450000001  0.45462308278296404  1.0000
  V   V7        1.0  0.51478802  0.705670385  0.46895941126864327  1.0000
  V   V8        1.0  0.51841969  0.04811028500000002  0.524556203649283  1.0000
  V   V9        1.0  0.51478802  0.37233704500000003  0.4976320647992831  1.0000
  V   V10       1.0  0.7647966900000001  0.7092286250000001  0.5116944226287998  1.0000
  V   V11       1.0  0.76478802  0.03900371500000002  0.4832957397543225  1.0000
  V   V12       1.0  0.76478802  0.37233704500000003  0.45462308278296404  1.0000
