data_image0
_chemical_formula_structural       COFe24Ga20
_chemical_formula_sum              "C1 O1 Fe24 Ga20"
_cell_length_a       7.604177723878438
_cell_length_b       6.322698407150859
_cell_length_c       106.13981867
_cell_angle_alpha    91.00749025995037
_cell_angle_beta     90.35644002446423
_cell_angle_gamma    75.66164993832197

_space_group_name_H-M_alt    "P 1"
_space_group_IT_number       1

loop_
  _space_group_symop_operation_xyz
  'x, y, z'

loop_
  _atom_site_type_symbol
  _atom_site_label
  _atom_site_symmetry_multiplicity
  _atom_site_fract_x
  _atom_site_fract_y
  _atom_site_fract_z
  _atom_site_occupancy
  C   C1        1.0  0.27950333  0.4927452699999999  0.5527586191907985  1.0000
  O   O1        1.0  0.23833626000000005  0.46776194999999987  0.5632440058848003  1.0000
  Fe  Fe1       1.0  0.5319372600000001  0.01674374999999993  0.46466331940757694  1.0000
  Fe  Fe2       1.0  0.36582257000000007  0.8502712000000001  0.5217165934007373  1.0000
  Fe  Fe3       1.0  0.89884276  0.3266145899999999  0.44959064328223025  1.0000
  Fe  Fe4       1.0  0.7321760900000001  0.15994793  0.5063394045634212  1.0000
  Fe  Fe5       1.0  0.93997266  0.78063768  0.5004688395292372  1.0000
  Fe  Fe6       1.0  0.10663932000000007  0.9473043499999999  0.4437200782480461  1.0000
  Fe  Fe7       1.0  0.90325131  0.46424441999999994  0.5129721826246829  1.0000
  Fe  Fe8       1.0  0.06991798000000005  0.6309110899999999  0.4562234247484176  1.0000
  Fe  Fe9       1.0  0.20207737000000003  0.24245582999999996  0.5277533903080674  1.0000
  Fe  Fe10      1.0  0.35432668  0.40824766999999995  0.4716986482038614  1.0000
  Fe  Fe11      1.0  0.52187107  0.14189863999999996  0.52896984765076  1.0000
  Fe  Fe12      1.0  0.6922853  0.31969435999999996  0.47249026957342183  1.0000
  Fe  Fe13      1.0  0.31443589  0.5679940999999998  0.437849513213862  1.0000
  Fe  Fe14      1.0  0.14776922000000003  0.40132743  0.4945982710901274  1.0000
  Fe  Fe15      1.0  0.44368324000000003  0.96146484  0.44127340085335015  1.0000
  Fe  Fe16      1.0  0.27701658000000007  0.7947981799999999  0.4980221621345411  1.0000
  Fe  Fe17      1.0  0.34509513999999997  0.5411190999999999  0.5373303019905411  1.0000
  Fe  Fe18      1.0  0.5146747199999999  0.71119828  0.47952559836970626  1.0000
  Fe  Fe19      1.0  0.7965245299999999  0.9474992499999998  0.5426076745048674  1.0000
  Fe  Fe20      1.0  0.9766940099999999  0.09703093999999998  0.48796549302886566  1.0000
  Fe  Fe21      1.0  0.6029287400000001  0.7664771799999999  0.5029155135190075  1.0000
  Fe  Fe22      1.0  0.7695954100000001  0.93314385  0.44616675564274205  1.0000
  Fe  Fe23      1.0  0.85883808  0.20100231999999993  0.5290300569503  1.0000
  Fe  Fe24      1.0  0.023305990000000047  0.36397100999999993  0.47209445718617876  1.0000
  Ga  Ga1       1.0  0.63779531  0.3317003099999999  0.5464239730109155  1.0000
  Ga  Ga2       1.0  0.8146892800000001  0.48886149  0.4903404592853152  1.0000
  Ga  Ga3       1.0  0.58765647  0.48440313999999995  0.5199704454007902  1.0000
  Ga  Ga4       1.0  0.75479019  0.6557897499999998  0.46310649889118016  1.0000
  Ga  Ga5       1.0  0.9470592999999999  0.5398676199999999  0.537325272915417  1.0000
  Ga  Ga6       1.0  0.10005010000000004  0.7109936299999998  0.47953555096726075  1.0000
  Ga  Ga7       1.0  0.11880047000000005  0.9141613499999999  0.5377416987222956  1.0000
  Ga  Ga8       1.0  0.29182178999999997  0.07215227999999996  0.48108241888610315  1.0000
  Ga  Ga9       1.0  0.53727289  0.7993057  0.5424119491660984  1.0000
  Ga  Ga10      1.0  0.68929689  0.9832562499999999  0.48540648032848505  1.0000
  Ga  Ga11      1.0  0.5660657499999999  0.30413354000000004  0.4506841623808926  1.0000
  Ga  Ga12      1.0  0.39939909  0.13746687999999996  0.5074329236620836  1.0000
  Ga  Ga13      1.0  0.23192271000000003  0.23908053999999992  0.4538484584919679  1.0000
  Ga  Ga14      1.0  0.06525604000000004  0.07241386999999996  0.5105972163682334  1.0000
  Ga  Ga15      1.0  0.19064842000000004  0.57801911  0.5155311953250636  1.0000
  Ga  Ga16      1.0  0.35731509  0.74468578  0.4587824374487982  1.0000
  Ga  Ga17      1.0  0.94656188  0.016948389999999945  0.4646533634050969  1.0000
  Ga  Ga18      1.0  0.78044798  0.84537977  0.5208010054996127  1.0000
  Ga  Ga19      1.0  0.6472129000000001  0.59047515  0.43675599411519966  1.0000
  Ga  Ga20      1.0  0.48054622999999996  0.42380847999999993  0.49350475199146504  1.0000
