data_image0
_chemical_formula_structural       COFe10Sn10Rh20
_chemical_formula_sum              "C1 O1 Fe10 Sn10 Rh20"
_cell_length_a       9.207670903461649
_cell_length_b       8.163663260642933
_cell_length_c       106.57357267
_cell_angle_alpha    63.99032906954716
_cell_angle_beta     78.38081028524189
_cell_angle_gamma    76.96319338046463

_space_group_name_H-M_alt    "P 1"
_space_group_IT_number       1

loop_
  _space_group_symop_operation_xyz
  'x, y, z'

loop_
  _atom_site_type_symbol
  _atom_site_label
  _atom_site_symmetry_multiplicity
  _atom_site_fract_x
  _atom_site_fract_y
  _atom_site_fract_z
  _atom_site_occupancy
  C   C1        1.0  0.7257277  0.854050445  0.5348222601344435  1.0000
  O   O1        1.0  0.7238084  0.799770745  0.547226274070499  1.0000
  Fe  Fe1       1.0  0.4250000000000001  0.821877215  0.4613531447651746  1.0000
  Fe  Fe2       1.0  0.825  0.6218772149999999  0.4785119824365213  1.0000
  Fe  Fe3       1.0  0.048601740000000025  0.05820416500000002  0.5267875211465066  1.0000
  Fe  Fe4       1.0  0.22500000000000003  0.421877215  0.4956708201078679  1.0000
  Fe  Fe5       1.0  0.61541873  0.245028295  0.5125343644781933  1.0000
  Fe  Fe6       1.0  0.4255458500000001  0.8315195649999999  0.5042061956390066  1.0000
  Fe  Fe7       1.0  0.8167981400000001  0.640631065  0.5199513784464266  1.0000
  Fe  Fe8       1.0  0.025000000000000033  0.021877215000000026  0.48709140127219464  1.0000
  Fe  Fe9       1.0  0.22500000000000003  0.421877215  0.4527737259295012  1.0000
  Fe  Fe10      1.0  0.625  0.22187721500000002  0.46993256360084795  1.0000
  Sn  Sn1       1.0  0.5250000000000001  0.521877215  0.48709140127219464  1.0000
  Sn  Sn2       1.0  0.9233388699999997  0.326919795  0.5030857578567428  1.0000
  Sn  Sn3       1.0  0.12500000000000006  0.7218772149999999  0.46993256360084795  1.0000
  Sn  Sn4       1.0  0.33634872000000005  0.151576985  0.523017649011226  1.0000
  Sn  Sn5       1.0  0.725  0.921877215  0.4527737259295012  1.0000
  Sn  Sn6       1.0  0.325  0.12187721500000002  0.47851198243652127  1.0000
  Sn  Sn7       1.0  0.725  0.921877215  0.4956708201078679  1.0000
  Sn  Sn8       1.0  0.9249999999999998  0.321877215  0.4613531447651746  1.0000
  Sn  Sn9       1.0  0.10168405000000007  0.7259523849999999  0.51513043827782  1.0000
  Sn  Sn10      1.0  0.52151126  0.542789185  0.5301678842348803  1.0000
  Rh  Rh1       1.0  0.27499999999999997  0.771877215  0.48709140127219464  1.0000
  Rh  Rh2       1.0  0.67102589  0.5827458649999999  0.5037046908586185  1.0000
  Rh  Rh3       1.0  0.8749999999999999  0.9718772149999999  0.4699325636008479  1.0000
  Rh  Rh4       1.0  0.06815135000000004  0.381300945  0.5198080403800552  1.0000
  Rh  Rh5       1.0  0.47500000000000003  0.171877215  0.45277372592950127  1.0000
  Rh  Rh6       1.0  0.5750000000000001  0.8718772149999999  0.4785119824365213  1.0000
  Rh  Rh7       1.0  0.9749999999999999  0.671877215  0.495670820107868  1.0000
  Rh  Rh8       1.0  0.17500000000000004  0.07187721500000002  0.4613531447651746  1.0000
  Rh  Rh9       1.0  0.36817404000000004  0.504873005  0.511995216639722  1.0000
  Rh  Rh10      1.0  0.77442425  0.30441360500000003  0.5270779104517215  1.0000
  Rh  Rh11      1.0  0.47500000000000003  0.171877215  0.495670820107868  1.0000
  Rh  Rh12      1.0  0.85468356  0.9781227849999998  0.5168357247468088  1.0000
  Rh  Rh13      1.0  0.07500000000000004  0.371877215  0.47851198243652127  1.0000
  Rh  Rh14      1.0  0.27795436999999995  0.828665605  0.5267414222132188  1.0000
  Rh  Rh15      1.0  0.675  0.571877215  0.4613531447651746  1.0000
  Rh  Rh16      1.0  0.17763216  0.08360724500000002  0.5034841071368182  1.0000
  Rh  Rh17      1.0  0.5821700200000002  0.892835025  0.52116268600123  1.0000
  Rh  Rh18      1.0  0.775  0.271877215  0.48709140127219464  1.0000
  Rh  Rh19      1.0  0.9749999999999999  0.671877215  0.45277372592950127  1.0000
  Rh  Rh20      1.0  0.37499999999999994  0.471877215  0.46993256360084795  1.0000
