data_image0
_chemical_formula_structural       Re6V18CO
_chemical_formula_sum              "Re6 V18 C1 O1"
_cell_length_a       6.03106538
_cell_length_b       7.38651639130545
_cell_length_c       102.47828103
_cell_angle_alpha    94.34775313180016
_cell_angle_beta     90.0
_cell_angle_gamma    114.09484255862164

_space_group_name_H-M_alt    "P 1"
_space_group_IT_number       1

loop_
  _space_group_symop_operation_xyz
  'x, y, z'

loop_
  _atom_site_type_symbol
  _atom_site_label
  _atom_site_symmetry_multiplicity
  _atom_site_fract_x
  _atom_site_fract_y
  _atom_site_fract_z
  _atom_site_occupancy
  Re  Re1       1.0  0.20247053500000012  0.39300822500000004  0.5030274430104287  1.0000
  Re  Re2       1.0  0.7847974050000001  0.5610404950000001  0.47620103262438446  1.0000
  Re  Re3       1.0  0.6371085250000001  0.23675740500000003  0.5269900215203296  1.0000
  Re  Re4       1.0  0.49313073500000004  0.977707165  0.48940638188922325  1.0000
  Re  Re5       1.0  0.07646407500000008  0.144373825  0.4629956801902612  1.0000
  Re  Re6       1.0  0.910879645  0.8083016949999998  0.5164963087595079  1.0000
  V   V1        1.0  0.5147642650000002  0.507246595  0.5218765650713222  1.0000
  V   V2        1.0  0.09729740500000014  0.686040495  0.49600905969092696  1.0000
  V   V3        1.0  0.6806307350000002  0.852707165  0.46959835482268064  1.0000
  V   V4        1.0  0.4722974050000001  0.436040495  0.4563930055578418  1.0000
  V   V5        1.0  0.3109586450000001  0.102591815  0.5092304772273223  1.0000
  V   V6        1.0  0.8889640750000002  0.26937382499999996  0.4828037072568038  1.0000
  V   V7        1.0  0.7057804150000001  0.399224505  0.5026240723472456  1.0000
  V   V8        1.0  0.2847974050000001  0.5610404950000001  0.47620103262438446  1.0000
  V   V9        1.0  0.10380709500000007  0.196423005  0.528736249647251  1.0000
  V   V10       1.0  0.9722974050000002  0.436040495  0.4563930055578418  1.0000
  V   V11       1.0  0.8096330450000001  0.100842465  0.5093295046855176  1.0000
  V   V12       1.0  0.3889640750000001  0.26937382499999996  0.4828037072568038  1.0000
  V   V13       1.0  0.00686926500000003  0.506767395  0.5220097257217585  1.0000
  V   V14       1.0  0.5972974050000002  0.686040495  0.49600905969092696  1.0000
  V   V15       1.0  0.18063073500000007  0.852707165  0.46959835482268064  1.0000
  V   V16       1.0  0.9931307349999999  0.977707165  0.48940638188922325  1.0000
  V   V17       1.0  0.5764640750000001  0.144373825  0.4629956801902612  1.0000
  V   V18       1.0  0.41685960500000024  0.8067863050000001  0.515886151801603  1.0000
  C   C1        1.0  0.060804245000000125  0.9051686250000001  0.5337839054149857  1.0000
  O   O1        1.0  0.16129458500000007  0.022292835000000004  0.5436069944421581  1.0000
