data_image0
_chemical_formula_structural       COPt8V4
_chemical_formula_sum              "C1 O1 Pt8 V4"
_cell_length_a       4.720400731318085
_cell_length_b       4.841608104150669
_cell_length_c       101.7095374
_cell_angle_alpha    85.59522802527997
_cell_angle_beta     89.37462058369692
_cell_angle_gamma    80.9940407219489

_space_group_name_H-M_alt    "P 1"
_space_group_IT_number       1

loop_
  _space_group_symop_operation_xyz
  'x, y, z'

loop_
  _atom_site_type_symbol
  _atom_site_label
  _atom_site_symmetry_multiplicity
  _atom_site_fract_x
  _atom_site_fract_y
  _atom_site_fract_z
  _atom_site_occupancy
  C   C1        1.0  0.16731919  0.69630305  0.5352416790541971  1.0000
  O   O1        1.0  0.18124055000000003  0.67590093  0.5469432405750312  1.0000
  Pt  Pt1       1.0  0.8733601800000002  0.3761085799999999  0.5112151868825405  1.0000
  Pt  Pt2       1.0  0.50234193  0.63832736  0.4920274624320202  1.0000
  Pt  Pt3       1.0  0.82391308  0.86188849  0.5234007084169099  1.0000
  Pt  Pt4       1.0  0.40902595  0.11167263999999995  0.505746272246749  1.0000
  Pt  Pt5       1.0  0.12734193000000002  0.8883273600000001  0.4725421109284945  1.0000
  Pt  Pt6       1.0  0.7523419299999999  0.13832735999999995  0.45305675942496865  1.0000
  Pt  Pt7       1.0  0.04718455  0.3692716999999999  0.4850372718453641  1.0000
  Pt  Pt8       1.0  0.6721845500000001  0.6192717  0.4655519203418384  1.0000
  V   V1        1.0  0.9528154500000001  0.88205052  0.4985135560634832  1.0000
  V   V2        1.0  0.33739279999999994  0.59972288  0.5164986976193618  1.0000
  V   V3        1.0  0.21226324000000002  0.37879953  0.45930433988340347  1.0000
  V   V4        1.0  0.5872632400000001  0.12879952999999997  0.47878969138692934  1.0000
