data_image0
_chemical_formula_structural       COV3Pt3V3Pt3V3Pt3V3Pt3
_chemical_formula_sum              "C1 O1 V12 Pt12"
_cell_length_a       7.8526971
_cell_length_b       6.0600916457726886
_cell_length_c       100.66190792
_cell_angle_alpha    71.56505120697608
_cell_angle_beta     90.0
_cell_angle_gamma    90.0

_space_group_name_H-M_alt    "P 1"
_space_group_IT_number       1

loop_
  _space_group_symop_operation_xyz
  'x, y, z'

loop_
  _atom_site_type_symbol
  _atom_site_label
  _atom_site_symmetry_multiplicity
  _atom_site_fract_x
  _atom_site_fract_y
  _atom_site_fract_z
  _atom_site_occupancy
  C   C1        1.0  0.25136805500000003  0.40951439000000006  0.5355969642358188  1.0000
  O   O1        1.0  0.251368195  0.37471237  0.5477202475351893  1.0000
  V   V1        1.0  0.25136772500000004  0.8366509  0.4522797524648106  1.0000
  V   V2        1.0  0.25136772500000004  0.5033175599999999  0.47766332549580914  1.0000
  V   V3        1.0  0.25136772500000004  0.16998423000000001  0.46497153745729547  1.0000
  Pt  Pt1       1.0  0.0013677250000000288  0.8366509  0.47131743299956674  1.0000
  Pt  Pt2       1.0  0.0013677250000000288  0.5033175599999999  0.458625644961053  1.0000
  Pt  Pt3       1.0  0.0013677250000000288  0.16998423000000001  0.4840092179920516  1.0000
  V   V4        1.0  0.25136772500000004  0.8366509  0.49035511353432293  1.0000
  V   V5        1.0  0.25136800500000006  0.47916212  0.5148800018843953  1.0000
  V   V6        1.0  0.25136782500000004  0.1633491  0.5031475088608978  1.0000
  Pt  Pt4       1.0  0.998694635  0.8190919000000001  0.5098615413622203  1.0000
  Pt  Pt5       1.0  0.003152375000000029  0.49769338  0.4965745470953524  1.0000
  Pt  Pt6       1.0  0.001305365000000029  0.16961418  0.5215421300535077  1.0000
  V   V7        1.0  0.751367725  0.8366509  0.4522797524648106  1.0000
  V   V8        1.0  0.751367725  0.5033175599999999  0.47766332549580914  1.0000
  V   V9        1.0  0.751367725  0.16998423000000001  0.46497153745729547  1.0000
  Pt  Pt7       1.0  0.501367725  0.8366509  0.47131743299956674  1.0000
  Pt  Pt8       1.0  0.501367725  0.5033175599999999  0.458625644961053  1.0000
  Pt  Pt9       1.0  0.501367725  0.16998423000000001  0.4840092179920516  1.0000
  V   V10       1.0  0.751367725  0.8366509  0.49035511353432293  1.0000
  V   V11       1.0  0.751367815  0.49129431000000007  0.5136359427669543  1.0000
  V   V12       1.0  0.751367915  0.17218661  0.5031825107788218  1.0000
  Pt  Pt10      1.0  0.504041995  0.81909191  0.5098614012448914  1.0000
  Pt  Pt11      1.0  0.4995832650000001  0.49769247  0.4965745257731502  1.0000
  Pt  Pt12      1.0  0.5014262650000001  0.16961662  0.5215420508567566  1.0000
