data_image0
_chemical_formula_structural       CONi6Sn2Ni6Sn2
_chemical_formula_sum              "C1 O1 Ni12 Sn4"
_cell_length_a       5.36429231
_cell_length_b       5.364292317881907
_cell_length_c       100.02465277
_cell_angle_alpha    90.0
_cell_angle_beta     90.0
_cell_angle_gamma    120.00000001306154

_space_group_name_H-M_alt    "P 1"
_space_group_IT_number       1

loop_
  _space_group_symop_operation_xyz
  'x, y, z'

loop_
  _atom_site_type_symbol
  _atom_site_label
  _atom_site_symmetry_multiplicity
  _atom_site_fract_x
  _atom_site_fract_y
  _atom_site_fract_z
  _atom_site_occupancy
  C   C1        1.0  0.00019195999999999103  0.08048925000000001  0.5328425575550987  1.0000
  O   O1        1.0  0.9998080399999999  0.08091848  0.5448458685659715  1.0000
  Ni  Ni1       1.0  0.84585359  0.7560079700000001  0.45515413143402844  1.0000
  Ni  Ni2       1.0  0.16508697000000003  0.9156246700000001  0.4765950257807356  1.0000
  Ni  Ni3       1.0  0.6862368900000001  0.9156246700000001  0.4765950257807356  1.0000
  Ni  Ni4       1.0  0.3247036699999999  0.23485805000000004  0.45515413143402844  1.0000
  Ni  Ni5       1.0  0.84585359  0.23485805000000004  0.45515413143402844  1.0000
  Ni  Ni6       1.0  0.16508696999999992  0.39447475  0.4765950257807356  1.0000
  Sn  Sn1       1.0  0.3388036099999999  0.74190803  0.45515413143402844  1.0000
  Sn  Sn2       1.0  0.67213695  0.40857468999999996  0.4765950257807356  1.0000
  Ni  Ni7       1.0  0.8423863899999999  0.7567984200000002  0.4980692752986271  1.0000
  Ni  Ni8       1.0  0.16151525999999994  0.91913904  0.5200605209647009  1.0000
  Ni  Ni9       1.0  0.68002264  0.9195107500000002  0.5200097767990356  1.0000
  Ni  Ni10      1.0  0.3238493399999999  0.23824763000000002  0.49806855488456275  1.0000
  Ni  Ni11      1.0  0.84192468  0.23871157  0.4980749305490332  1.0000
  Ni  Ni12      1.0  0.16113027999999988  0.40060200999999995  0.5200064658960644  1.0000
  Sn  Sn3       1.0  0.3362253099999999  0.74444809  0.4979750871631498  1.0000
  Sn  Sn4       1.0  0.6674926699999998  0.41319437  0.5203318469117273  1.0000
