data_image0
_chemical_formula_structural       COIr30W10
_chemical_formula_sum              "C1 O1 Ir30 W10"
_cell_length_a       14.705889689480824
_cell_length_b       7.113508682402129
_cell_length_c       98.45403475
_cell_angle_alpha    85.17088062414439
_cell_angle_beta     81.50832987071576
_cell_angle_gamma    53.79596526874443

_space_group_name_H-M_alt    "P 1"
_space_group_IT_number       1

loop_
  _space_group_symop_operation_xyz
  'x, y, z'

loop_
  _atom_site_type_symbol
  _atom_site_label
  _atom_site_symmetry_multiplicity
  _atom_site_fract_x
  _atom_site_fract_y
  _atom_site_fract_z
  _atom_site_occupancy
  C   C1        1.0  0.20517882999999998  0.9276976499999999  0.5334899816014264  1.0000
  O   O1        1.0  0.18116906  0.92755434  0.5453835841657638  1.0000
  Ir  Ir1       1.0  0.4469598  0.8187973900000001  0.5180182769044432  1.0000
  Ir  Ir2       1.0  0.84901405  0.61539473  0.46185941218679427  1.0000
  Ir  Ir3       1.0  0.05117880999999998  0.018765280000000023  0.5055298952265409  1.0000
  Ir  Ir4       1.0  0.24901405  0.41539473000000005  0.47630982796825616  1.0000
  Ir  Ir5       1.0  0.6491329699999999  0.21263225000000002  0.49022266805206566  1.0000
  Ir  Ir6       1.0  0.34901404999999996  0.7823349500000001  0.485923672247164  1.0000
  Ir  Ir7       1.0  0.74709894  0.58698606  0.5003339100925871  1.0000
  Ir  Ir8       1.0  0.9490140499999998  0.9823349499999999  0.471473256465702  1.0000
  Ir  Ir9       1.0  0.15017067999999995  0.38475598000000005  0.5137192001772132  1.0000
  Ir  Ir10      1.0  0.54901405  0.18233495000000002  0.4570228406842401  1.0000
  Ir  Ir11      1.0  0.24741061000000003  0.58952807  0.5012143132344052  1.0000
  Ir  Ir12      1.0  0.6448050599999999  0.39425053000000004  0.5138671550943164  1.0000
  Ir  Ir13      1.0  0.84893198  0.7821708199999999  0.4859355331484373  1.0000
  Ir  Ir14      1.0  0.048931979999999986  0.18217082  0.45703470158551346  1.0000
  Ir  Ir15      1.0  0.44893198  0.98217082  0.4714851173669754  1.0000
  Ir  Ir16      1.0  0.34461213  0.12121720000000002  0.49736003764542747  1.0000
  Ir  Ir17      1.0  0.7503392500000001  0.91788384  0.5114162894356185  1.0000
  Ir  Ir18      1.0  0.9489319799999999  0.31564093000000004  0.48351724739716023  1.0000
  Ir  Ir19      1.0  0.14893197999999996  0.7156409300000001  0.4546164158342363  1.0000
  Ir  Ir20      1.0  0.54893198  0.51564093  0.46906683161569834  1.0000
  Ir  Ir21      1.0  0.5499452600000001  0.017665050000000026  0.5052802903046646  1.0000
  Ir  Ir22      1.0  0.95106802  0.80788852  0.5182096235300552  1.0000
  Ir  Ir23      1.0  0.14779394999999995  0.21524701000000007  0.490233066571262  1.0000
  Ir  Ir24      1.0  0.34909612000000007  0.6155588599999999  0.46184755128552085  1.0000
  Ir  Ir25      1.0  0.74909612  0.41555886000000003  0.47629796706698274  1.0000
  Ir  Ir26      1.0  0.44674317  0.4750999  0.5079871884301785  1.0000
  Ir  Ir27      1.0  0.84760246  0.28563025000000003  0.5200729584037441  1.0000
  Ir  Ir28      1.0  0.05138071999999999  0.68542136  0.49289256733301273  1.0000
  Ir  Ir29      1.0  0.24909611999999995  0.08208875000000003  0.46426583703679797  1.0000
  Ir  Ir30      1.0  0.6490961199999998  0.8820887500000001  0.47871625281825986  1.0000
  W   W1        1.0  0.24955261000000004  0.92346199  0.5127385082597885  1.0000
  W   W2        1.0  0.6490140499999999  0.7155315099999999  0.4546243202116689  1.0000
  W   W3        1.0  0.8465368  0.11535235000000003  0.4985049874390401  1.0000
  W   W4        1.0  0.049014049999999976  0.51553151  0.4690747359931307  1.0000
  W   W5        1.0  0.44901405  0.31553151  0.48352515177459265  1.0000
  W   W6        1.0  0.54857354  0.68625508  0.49303523339793986  1.0000
  W   W7        1.0  0.9432259900000001  0.48473253  0.508048423512094  1.0000
  W   W8        1.0  0.14901404999999993  0.8821981700000001  0.47870834844082744  1.0000
  W   W9        1.0  0.35352911  0.2584538  0.5194418104837404  1.0000
  W   W10       1.0  0.74901405  0.08219817000000003  0.46425793265936544  1.0000
