data_image0
_chemical_formula_structural       COSb8Si4V16
_chemical_formula_sum              "C1 O1 Sb8 Si4 V16"
_cell_length_a       7.39418601196873
_cell_length_b       7.394186006088808
_cell_length_c       99.96749985
_cell_angle_alpha    94.53782889654927
_cell_angle_beta     94.53782889293318
_cell_angle_gamma    84.16935064990224

_space_group_name_H-M_alt    "P 1"
_space_group_IT_number       1

loop_
  _space_group_symop_operation_xyz
  'x, y, z'

loop_
  _atom_site_type_symbol
  _atom_site_label
  _atom_site_symmetry_multiplicity
  _atom_site_fract_x
  _atom_site_fract_y
  _atom_site_fract_z
  _atom_site_occupancy
  C   C1        1.0  0.19399118999999998  0.357206655  0.5433540188951123  1.0000
  O   O1        1.0  0.24329716999999995  0.362419835  0.5548395145747153  1.0000
  Sb  Sb1       1.0  0.8985808799999999  0.6711515749999999  0.5293658341550834  1.0000
  Sb  Sb2       1.0  0.23126329999999995  0.9891232849999998  0.520754193761629  1.0000
  Sb  Sb3       1.0  0.66605565  0.046203725000000015  0.5078535683908346  1.0000
  Sb  Sb4       1.0  0.97985988  0.35195607499999987  0.49764442875372333  1.0000
  Sb  Sb5       1.0  0.020140119999999987  0.8283129849999998  0.48556952652755786  1.0000
  Sb  Sb6       1.0  0.33325010999999993  0.14142298500000003  0.476232113111414  1.0000
  Sb  Sb7       1.0  0.8096070299999999  0.181703225  0.4641572108852484  1.0000
  Sb  Sb8       1.0  0.12271701999999998  0.494813215  0.45481979746910456  1.0000
  Si  Si1       1.0  0.39513539  0.47381914499999994  0.5247990740533014  1.0000
  Si  Si2       1.0  0.45280825999999996  0.5489528549999999  0.5019607080103584  1.0000
  Si  Si3       1.0  0.5357142799999999  0.6258488149999999  0.4809008198194859  1.0000
  Si  Si4       1.0  0.60714285  0.6972773849999999  0.4594885041771765  1.0000
  V   V1        1.0  0.11044968999999998  0.349200495  0.5240786249888798  1.0000
  V   V2        1.0  0.36709933999999994  0.868019565  0.49522883857137784  1.0000
  V   V3        1.0  0.54729826  0.7455300449999999  0.5207980624583017  1.0000
  V   V4        1.0  0.33626564999999997  0.256065525  0.5041996872685224  1.0000
  V   V5        1.0  0.7017077199999999  0.41123537499999996  0.5154193567525431  1.0000
  V   V6        1.0  0.15421642999999996  0.6525897650000001  0.5099976127197293  1.0000
  V   V7        1.0  0.63290066  0.31224949499999993  0.48798511670990335  1.0000
  V   V8        1.0  0.75282387  0.681507405  0.5008224900990254  1.0000
  V   V9        1.0  0.23937475999999996  0.49865773499999994  0.4828111046090994  1.0000
  V   V10       1.0  0.5099564799999999  0.010876715000000028  0.45240420428903483  1.0000
  V   V11       1.0  0.66290536  0.922188335  0.4789905350298725  1.0000
  V   V12       1.0  0.4799517699999999  0.40093786499999995  0.4613987889667899  1.0000
  V   V13       1.0  0.8493136099999999  0.5286624449999999  0.4738165229290685  1.0000
  V   V14       1.0  0.29354352999999994  0.7944637649999998  0.466572801067594  1.0000
  V   V15       1.0  0.7757578  0.4551066349999999  0.4451604854252846  1.0000
  V   V16       1.0  0.90348237  0.8244684649999999  0.45757821938756316  1.0000
