data_image0
_chemical_formula_structural       COGa4Ni8Ga4Ni8Ga4Ni8Ga4Ni8
_chemical_formula_sum              "C1 O1 Ga16 Ni32"
_cell_length_a       6.515781084850509
_cell_length_b       8.17378235845635
_cell_length_c       109.09468649
_cell_angle_alpha    71.72278730232256
_cell_angle_beta     102.30794672602667
_cell_angle_gamma    71.72278729707975

_space_group_name_H-M_alt    "P 1"
_space_group_IT_number       1

loop_
  _space_group_symop_operation_xyz
  'x, y, z'

loop_
  _atom_site_type_symbol
  _atom_site_label
  _atom_site_symmetry_multiplicity
  _atom_site_fract_x
  _atom_site_fract_y
  _atom_site_fract_z
  _atom_site_occupancy
  C   C1        1.0  0.46517802999999996  0.15441436000000003  0.5571651731413408  1.0000
  O   O1        1.0  0.5163839199999999  0.09699075000000007  0.5691422542082722  1.0000
  Ga  Ga1       1.0  0.10017697999999997  0.07917305000000008  0.5350866833806047  1.0000
  Ga  Ga2       1.0  0.5811541499999999  0.08568307000000003  0.5055151510587964  1.0000
  Ga  Ga3       1.0  0.16448747999999996  0.4190164100000002  0.5104923118877416  1.0000
  Ga  Ga4       1.0  0.6633182799999999  0.42376188000000015  0.5390662396924106  1.0000
  Ni  Ni1       1.0  0.12282081999999997  0.25234974  0.4930722507782109  1.0000
  Ni  Ni2       1.0  0.62398871  0.25214582  0.5229315927772619  1.0000
  Ni  Ni3       1.0  0.9188458500000001  0.41362660000000007  0.5260991297446885  1.0000
  Ni  Ni4       1.0  0.41448747999999996  0.41901641000000006  0.49556082940090573  1.0000
  Ni  Ni5       1.0  0.33063263  0.09108542000000008  0.5197760428030167  1.0000
  Ni  Ni6       1.0  0.83115415  0.08568307000000003  0.4905836685719604  1.0000
  Ni  Ni7       1.0  0.38628560999999995  0.24361187000000004  0.5390089243055812  1.0000
  Ni  Ni8       1.0  0.8728208199999999  0.2523497400000001  0.5080037296814911  1.0000
  Ga  Ga5       1.0  0.08115414999999997  0.08568307000000007  0.47565218966868006  1.0000
  Ga  Ga6       1.0  0.5811541499999999  0.08568307000000003  0.44578922469500826  1.0000
  Ga  Ga7       1.0  0.16448747999999996  0.4190164100000002  0.4507663855239535  1.0000
  Ga  Ga8       1.0  0.6644874799999999  0.4190164100000002  0.4806293504976253  1.0000
  Ni  Ni9       1.0  0.12282081999999997  0.25234974  0.4333463244144228  1.0000
  Ni  Ni10      1.0  0.6228208199999999  0.25234974000000004  0.4632092858045391  1.0000
  Ni  Ni11      1.0  0.9144874799999999  0.4190164100000002  0.46569786801078944  1.0000
  Ni  Ni12      1.0  0.41448747999999996  0.41901641000000006  0.43583490662067315  1.0000
  Ni  Ni13      1.0  0.33115415  0.08568307000000007  0.4607207071818441  1.0000
  Ni  Ni14      1.0  0.83115415  0.08568307000000003  0.4308577457917278  1.0000
  Ni  Ni15      1.0  0.37282081999999994  0.25234974000000004  0.47814076829137486  1.0000
  Ni  Ni16      1.0  0.8728208199999999  0.2523497400000001  0.44827780690125857  1.0000
  Ga  Ga9       1.0  0.10003246999999996  0.5826613300000001  0.5350640102248919  1.0000
  Ga  Ga10      1.0  0.5811541499999999  0.5856830700000001  0.5055151510587964  1.0000
  Ga  Ga11      1.0  0.16448747999999996  0.91901641  0.5104923118877416  1.0000
  Ga  Ga12      1.0  0.6553994599999999  0.9208269500000001  0.5395887185022359  1.0000
  Ni  Ni17      1.0  0.12282081999999997  0.75234974  0.4930722507782109  1.0000
  Ni  Ni18      1.0  0.62822419  0.7476883300000001  0.5232352059343044  1.0000
  Ni  Ni19      1.0  0.91080657  0.9135716900000002  0.5267256965078617  1.0000
  Ni  Ni20      1.0  0.41448747999999996  0.91901641  0.49556082940090573  1.0000
  Ni  Ni21      1.0  0.32865667  0.5866383600000001  0.5198484306243218  1.0000
  Ni  Ni22      1.0  0.83115415  0.58568307  0.4905836685719604  1.0000
  Ni  Ni23      1.0  0.35677094000000004  0.76342186  0.5360600164762738  1.0000
  Ni  Ni24      1.0  0.8728208199999999  0.75234974  0.5080037296814911  1.0000
  Ga  Ga13      1.0  0.08115414999999997  0.5856830700000001  0.47565218966868006  1.0000
  Ga  Ga14      1.0  0.5811541499999999  0.5856830700000001  0.4457892246950083  1.0000
  Ga  Ga15      1.0  0.16448747999999996  0.91901641  0.4507663855239535  1.0000
  Ga  Ga16      1.0  0.6644874799999999  0.9190164100000002  0.4806293504976253  1.0000
  Ni  Ni25      1.0  0.12282081999999997  0.75234974  0.4333463244144228  1.0000
  Ni  Ni26      1.0  0.6228208199999999  0.75234974  0.4632092858045391  1.0000
  Ni  Ni27      1.0  0.9144874799999999  0.9190164100000001  0.46569786801078944  1.0000
  Ni  Ni28      1.0  0.41448747999999996  0.91901641  0.43583490662067315  1.0000
  Ni  Ni29      1.0  0.33115415  0.5856830700000001  0.4607207071818441  1.0000
  Ni  Ni30      1.0  0.83115415  0.58568307  0.4308577457917278  1.0000
  Ni  Ni31      1.0  0.37282081999999994  0.75234974  0.47814076829137486  1.0000
  Ni  Ni32      1.0  0.8728208199999999  0.75234974  0.44827780690125857  1.0000
