data_image0
_chemical_formula_structural       COV2Rh6V2Rh6
_chemical_formula_sum              "C1 O1 V4 Rh12"
_cell_length_a       5.43906945
_cell_length_b       5.439069441742789
_cell_length_c       100.3062704
_cell_angle_alpha    90.0
_cell_angle_beta     90.0
_cell_angle_gamma    119.99999998940058

_space_group_name_H-M_alt    "P 1"
_space_group_IT_number       1

loop_
  _space_group_symop_operation_xyz
  'x, y, z'

loop_
  _atom_site_type_symbol
  _atom_site_label
  _atom_site_symmetry_multiplicity
  _atom_site_fract_x
  _atom_site_fract_y
  _atom_site_fract_z
  _atom_site_occupancy
  C   C1        1.0  0.33454427000000003  0.6654544849999999  0.5359960150448737  1.0000
  O   O1        1.0  0.33454633000000006  0.6654533950000001  0.5476403249393746  1.0000
  V   V1        1.0  0.33453928999999993  0.665460155  0.47394091368182845  1.0000
  V   V2        1.0  0.66787263  0.33212681499999996  0.4523596750606253  1.0000
  Rh  Rh1       1.0  0.16891098999999998  0.334203545  0.4523596750606253  1.0000
  Rh  Rh2       1.0  0.6657959000000001  0.831088455  0.4523596750606253  1.0000
  Rh  Rh3       1.0  0.16891099000000004  0.831088455  0.4523596750606253  1.0000
  Rh  Rh4       1.0  0.8335009299999998  0.663383425  0.47394091368182845  1.0000
  Rh  Rh5       1.0  0.33661602  0.16649851499999999  0.47394091368182845  1.0000
  Rh  Rh6       1.0  0.83350093  0.16649851499999999  0.47394091368182845  1.0000
  V   V3        1.0  0.33453926  0.665461275  0.5159684421949422  1.0000
  V   V4        1.0  0.66787016  0.332127575  0.4957918703124661  1.0000
  Rh  Rh7       1.0  0.16649906999999994  0.3293789649999999  0.49551842392817286  1.0000
  Rh  Rh8       1.0  0.67061588  0.8335014850000001  0.4955185870823401  1.0000
  Rh  Rh9       1.0  0.16649956000000005  0.8335001550000001  0.49551871700139916  1.0000
  Rh  Rh10      1.0  0.83039137  0.6571788749999999  0.5166921880380692  1.0000
  Rh  Rh11      1.0  0.34281768  0.16959710499999994  0.5166923088930078  1.0000
  Rh  Rh12      1.0  0.8303952799999998  0.16960322499999997  0.516691967477806  1.0000
