data_image0
_chemical_formula_structural       COV4Ni8V4Ni8V4Ni8
_chemical_formula_sum              "C1 O1 V12 Ni24"
_cell_length_a       7.65144054
_cell_length_b       7.640696921581241
_cell_length_c       100.49013599
_cell_angle_alpha    109.42307402861827
_cell_angle_beta     90.0
_cell_angle_gamma    90.0

_space_group_name_H-M_alt    "P 1"
_space_group_IT_number       1

loop_
  _space_group_symop_operation_xyz
  'x, y, z'

loop_
  _atom_site_type_symbol
  _atom_site_label
  _atom_site_symmetry_multiplicity
  _atom_site_fract_x
  _atom_site_fract_y
  _atom_site_fract_z
  _atom_site_occupancy
  C   C1        1.0  0.8334089650000001  0.376265155  0.5347703924722391  1.0000
  O   O1        1.0  0.796661205  0.4548575250000001  0.5466372471765962  1.0000
  V   V1        1.0  0.08349099499999996  0.506406875  0.4596838813457869  1.0000
  V   V2        1.0  0.08349099499999996  0.006406875000000028  0.4723261414246953  1.0000
  V   V3        1.0  0.583490995  0.25640687500000003  0.46600500986816995  1.0000
  V   V4        1.0  0.583490995  0.756406875  0.4533627528234037  1.0000
  Ni  Ni1       1.0  0.915601395  0.25640687500000003  0.46600500986816995  1.0000
  Ni  Ni2       1.0  0.915601395  0.756406875  0.4533627528234037  1.0000
  Ni  Ni3       1.0  0.751380595  0.506406875  0.4596838813457869  1.0000
  Ni  Ni4       1.0  0.751380595  0.006406875000000028  0.4723261414246953  1.0000
  Ni  Ni5       1.0  0.41560139499999993  0.506406875  0.4596838813457869  1.0000
  Ni  Ni6       1.0  0.41560139499999993  0.006406875000000028  0.4723261414246953  1.0000
  Ni  Ni7       1.0  0.25138059499999993  0.25640687500000003  0.46600500986816995  1.0000
  Ni  Ni8       1.0  0.25138059499999993  0.756406875  0.4533627528234037  1.0000
  V   V5        1.0  0.08349099499999996  0.506406875  0.4849683984694615  1.0000
  V   V6        1.0  0.08296023499999997  0.005403005000000016  0.49825843576642126  1.0000
  V   V7        1.0  0.583490995  0.25640687500000003  0.49128953002598674  1.0000
  V   V8        1.0  0.583490995  0.756406875  0.4786472699470784  1.0000
  Ni  Ni9       1.0  0.915601395  0.25640687500000003  0.49128953002598674  1.0000
  Ni  Ni10      1.0  0.915601395  0.756406875  0.4786472699470784  1.0000
  Ni  Ni11      1.0  0.751380595  0.506406875  0.4849683984694615  1.0000
  Ni  Ni12      1.0  0.750090185  0.0048031650000000285  0.4978867442474094  1.0000
  Ni  Ni13      1.0  0.41560139499999993  0.506406875  0.4849683984694615  1.0000
  Ni  Ni14      1.0  0.41663416499999995  0.002620995000000237  0.49765694135312577  1.0000
  Ni  Ni15      1.0  0.25138059499999993  0.25640687500000003  0.49128953002598674  1.0000
  Ni  Ni16      1.0  0.25138059499999993  0.756406875  0.4786472699470784  1.0000
  V   V9        1.0  0.08474202499999996  0.49587975500000003  0.5096577321955671  1.0000
  V   V10       1.0  0.08397529499999996  0.9976100450000001  0.5208385400466042  1.0000
  V   V11       1.0  0.577218565  0.24144447500000008  0.515612931034931  1.0000
  V   V12       1.0  0.583125915  0.7495450550000001  0.5048423210012639  1.0000
  Ni  Ni17      1.0  0.9084528050000001  0.261302805  0.5175126833050084  1.0000
  Ni  Ni18      1.0  0.9170397650000002  0.7500587250000001  0.5042685101011841  1.0000
  Ni  Ni19      1.0  0.748198285  0.5035385250000001  0.5099477688803329  1.0000
  Ni  Ni20      1.0  0.743186165  0.994596995  0.5219775964634005  1.0000
  Ni  Ni21      1.0  0.41574709499999996  0.4996865350000001  0.5099295822321287  1.0000
  Ni  Ni22      1.0  0.41319347500000003  0.0011107350000001404  0.5220402150896329  1.0000
  Ni  Ni23      1.0  0.24831372499999996  0.25155782500000007  0.516015689135685  1.0000
  Ni  Ni24      1.0  0.248918785  0.7492970250000002  0.5043085182999195  1.0000
