data_image0
_chemical_formula_structural       COPt4W2Pt4W2
_chemical_formula_sum              "C1 O1 Pt8 W4"
_cell_length_a       5.619956813895641
_cell_length_b       4.845183677136304
_cell_length_c       41.2436623
_cell_angle_alpha    91.37187591543888
_cell_angle_beta     92.80049610661197
_cell_angle_gamma    73.14345332236847

_space_group_name_H-M_alt    "P 1"
_space_group_IT_number       1

loop_
  _space_group_symop_operation_xyz
  'x, y, z'

loop_
  _atom_site_type_symbol
  _atom_site_label
  _atom_site_symmetry_multiplicity
  _atom_site_fract_x
  _atom_site_fract_y
  _atom_site_fract_z
  _atom_site_occupancy
  C   C1        1.0  0.26242968  0.757198485  0.5753058053183792  1.0000
  O   O1        1.0  0.24484414  0.868202405  0.6013855712852575  1.0000
  Pt  Pt1       1.0  0.04376912999999999  0.595617155  0.5435159380131358  1.0000
  Pt  Pt2       1.0  0.39758494000000005  0.131797595  0.5139138265054249  1.0000
  Pt  Pt3       1.0  0.09884784999999997  0.23931544500000002  0.456396608370076  1.0000
  Pt  Pt4       1.0  0.45623087  0.769035665  0.4279860637210945  1.0000
  W   W1        1.0  0.24784558999999998  0.681719435  0.4880078870649071  1.0000
  W   W2        1.0  0.30878936  0.316675555  0.3986144287147421  1.0000
  Pt  Pt5       1.0  0.5403486200000001  0.590692765  0.5439483254838444  1.0000
  Pt  Pt6       1.0  0.8908635300000001  0.152139755  0.5144961743037962  1.0000
  Pt  Pt7       1.0  0.59884785  0.23931544500000002  0.456396608370076  1.0000
  Pt  Pt8       1.0  0.9562308700000001  0.769035665  0.4279860637210946  1.0000
  W   W3        1.0  0.7484859899999998  0.693084005  0.4860423176985454  1.0000
  W   W4        1.0  0.80878936  0.316675555  0.3986144287147421  1.0000
