data_image0
_chemical_formula_structural       COCo8Sb8V8Co8Sb8V8
_chemical_formula_sum              "C1 O1 Co16 Sb16 V16"
_cell_length_a       10.11591370028403
_cell_length_b       8.25960894
_cell_length_c       108.29823114
_cell_angle_alpha    90.0
_cell_angle_beta     84.94884746386636
_cell_angle_gamma    90.0

_space_group_name_H-M_alt    "P 1"
_space_group_IT_number       1

loop_
  _space_group_symop_operation_xyz
  'x, y, z'

loop_
  _atom_site_type_symbol
  _atom_site_label
  _atom_site_symmetry_multiplicity
  _atom_site_fract_x
  _atom_site_fract_y
  _atom_site_fract_z
  _atom_site_occupancy
  C   C1        1.0  0.8838912849999999  0.37718975000000005  0.5407803202269174  1.0000
  O   O1        1.0  0.836842455  0.37719665  0.5511751038014029  1.0000
  Co  Co1       1.0  0.4173734649999999  0.3771888500000001  0.5032611865458171  1.0000
  Co  Co2       1.0  0.10761011499999998  0.37719088  0.4819783386101681  1.0000
  Co  Co3       1.0  0.795110115  0.37719088  0.4598760436691207  1.0000
  Co  Co4       1.0  0.7261920149999999  0.37718458  0.5231174887113617  1.0000
  Co  Co5       1.0  0.763860115  0.12719088000000003  0.4930294860806918  1.0000
  Co  Co6       1.0  0.45136011499999995  0.12719088000000003  0.47092719113964443  1.0000
  Co  Co7       1.0  0.13886011499999998  0.12719088000000003  0.448824896198597  1.0000
  Co  Co8       1.0  0.08073513499999997  0.12280575000000002  0.5143220660988493  1.0000
  Sb  Sb1       1.0  0.8266386149999999  0.12377519000000002  0.5155436263447526  1.0000
  Sb  Sb2       1.0  0.513860115  0.12719088000000003  0.4930294860806918  1.0000
  Sb  Sb3       1.0  0.20136011499999998  0.12719088000000003  0.47092719113964443  1.0000
  Sb  Sb4       1.0  0.888860115  0.12719088000000003  0.44882489619859706  1.0000
  Sb  Sb5       1.0  0.4654838349999999  0.37718898  0.5264932270313992  1.0000
  Sb  Sb6       1.0  0.17173214499999997  0.37719307  0.5041135288388221  1.0000
  Sb  Sb7       1.0  0.8576101150000001  0.37719088  0.4819783386101681  1.0000
  Sb  Sb8       1.0  0.545110115  0.37719088  0.4598760436691207  1.0000
  V   V1        1.0  0.38886011499999995  0.12719088000000003  0.448824896198597  1.0000
  V   V2        1.0  0.3251106549999999  0.12857639000000004  0.5151575682112928  1.0000
  V   V3        1.0  0.013860114999999977  0.12719088000000003  0.49302948608069186  1.0000
  V   V4        1.0  0.7013601149999998  0.12719088000000003  0.47092719113964443  1.0000
  V   V5        1.0  0.665187825  0.37718956000000003  0.5047638703015347  1.0000
  V   V6        1.0  0.35761011499999995  0.37719088  0.4819783386101681  1.0000
  V   V7        1.0  0.04511011499999997  0.37719088  0.4598760436691207  1.0000
  V   V8        1.0  0.9717412249999999  0.37718973  0.5240168929789386  1.0000
  Co  Co9       1.0  0.4196703249999999  0.87719241  0.5032575299421421  1.0000
  Co  Co10      1.0  0.10761011499999998  0.8771908800000001  0.4819783386101681  1.0000
  Co  Co11      1.0  0.795110115  0.8771908800000001  0.4598760436691207  1.0000
  Co  Co12      1.0  0.715326775  0.87717653  0.5230712966831185  1.0000
  Co  Co13      1.0  0.763860115  0.6271908800000001  0.4930294860806918  1.0000
  Co  Co14      1.0  0.45136011499999995  0.6271908800000001  0.47092719113964443  1.0000
  Co  Co15      1.0  0.13886011499999998  0.6271908800000001  0.448824896198597  1.0000
  Co  Co16      1.0  0.08074538499999996  0.63159289  0.5143214578436925  1.0000
  Sb  Sb9       1.0  0.8266436749999999  0.63061476  0.5155431453988147  1.0000
  Sb  Sb10      1.0  0.513860115  0.6271908800000001  0.4930294860806918  1.0000
  Sb  Sb11      1.0  0.20136011499999998  0.6271908800000001  0.47092719113964443  1.0000
  Sb  Sb12      1.0  0.888860115  0.6271908800000001  0.44882489619859706  1.0000
  Sb  Sb13      1.0  0.45884064499999994  0.87718632  0.526537240657453  1.0000
  Sb  Sb14      1.0  0.175347545  0.87719425  0.5037182231051589  1.0000
  Sb  Sb15      1.0  0.8576101150000001  0.8771908800000001  0.4819783386101681  1.0000
  Sb  Sb16      1.0  0.545110115  0.8771908800000001  0.4598760436691207  1.0000
  V   V9        1.0  0.38886011499999995  0.6271908800000001  0.448824896198597  1.0000
  V   V10       1.0  0.3251020649999999  0.62581392  0.5151571190926595  1.0000
  V   V11       1.0  0.013860114999999977  0.6271908800000001  0.49302948608069186  1.0000
  V   V12       1.0  0.7013601149999998  0.6271908800000001  0.47092719113964443  1.0000
  V   V13       1.0  0.6644432549999999  0.87718722  0.5047660557764585  1.0000
  V   V14       1.0  0.35761011499999995  0.8771908800000001  0.4819783386101681  1.0000
  V   V15       1.0  0.04511011499999997  0.8771908800000001  0.4598760436691207  1.0000
  V   V16       1.0  0.986139885  0.87718777  0.5233464331232789  1.0000
