data_image0
_chemical_formula_structural       COSn12Pt8Sn12Pt8
_chemical_formula_sum              "C1 O1 Sn24 Pt16"
_cell_length_a       7.6957361
_cell_length_b       14.003712618993221
_cell_length_c       101.10194717
_cell_angle_alpha    99.1280431849621
_cell_angle_beta     90.0
_cell_angle_gamma    74.05140278677374

_space_group_name_H-M_alt    "P 1"
_space_group_IT_number       1

loop_
  _space_group_symop_operation_xyz
  'x, y, z'

loop_
  _atom_site_type_symbol
  _atom_site_label
  _atom_site_symmetry_multiplicity
  _atom_site_fract_x
  _atom_site_fract_y
  _atom_site_fract_z
  _atom_site_occupancy
  C   C1        1.0  0.3799279100000001  0.8594907250000001  0.5448452108031618  1.0000
  O   O1        1.0  0.3582689900000002  0.8638856450000001  0.5563997677167148  1.0000
  Sn  Sn1       1.0  0.7978920100000002  0.07074640500000003  0.463981367186963  1.0000
  Sn  Sn2       1.0  0.29789201  0.07074640500000003  0.4859549064980619  1.0000
  Sn  Sn3       1.0  0.7021079900000002  0.9289811250000001  0.48283982192220215  1.0000
  Sn  Sn4       1.0  0.20210799000000004  0.9289811250000001  0.46086628261110313  1.0000
  Sn  Sn5       1.0  0.6187746500000001  0.428981125  0.47185305072850486  1.0000
  Sn  Sn6       1.0  0.11877465000000006  0.428981125  0.44987951141740584  1.0000
  Sn  Sn7       1.0  0.8812253500000002  0.570746405  0.4749681353043647  1.0000
  Sn  Sn8       1.0  0.3812253500000001  0.570746405  0.4529945959932657  1.0000
  Sn  Sn9       1.0  0.8750000000000001  0.24986376500000004  0.4459436681084871  1.0000
  Sn  Sn10      1.0  0.375  0.24986376500000004  0.4679172074195861  1.0000
  Sn  Sn11      1.0  0.6250000000000002  0.749863765  0.4569304393021844  1.0000
  Sn  Sn12      1.0  0.12500000000000008  0.749863765  0.4789039786132834  1.0000
  Pt  Pt1       1.0  0.09499074000000006  0.14321561500000002  0.4655737715943842  1.0000
  Pt  Pt2       1.0  0.5949907400000001  0.14321561500000002  0.44360023228328516  1.0000
  Pt  Pt3       1.0  0.5116574100000001  0.643215615  0.4765605397117858  1.0000
  Pt  Pt4       1.0  0.011657410000000005  0.643215615  0.4545870004006869  1.0000
  Pt  Pt5       1.0  0.9883425900000002  0.356511915  0.47026064632108366  1.0000
  Pt  Pt6       1.0  0.4883425900000001  0.356511915  0.44828710700998464  1.0000
  Pt  Pt7       1.0  0.40500926000000004  0.8565119150000001  0.4812474144384853  1.0000
  Pt  Pt8       1.0  0.90500926  0.8565119150000001  0.4592738751273863  1.0000
  Sn  Sn13      1.0  0.7746167100000001  0.07803072500000001  0.5105668860738718  1.0000
  Sn  Sn14      1.0  0.31099362000000014  0.07541088500000001  0.5290468733946257  1.0000
  Sn  Sn15      1.0  0.7234670700000002  0.921466655  0.5277077250195997  1.0000
  Sn  Sn16      1.0  0.20379654000000008  0.929253595  0.505247411156056  1.0000
  Sn  Sn17      1.0  0.6166030500000003  0.431318105  0.5166650452303028  1.0000
  Sn  Sn18      1.0  0.11877465000000006  0.428981125  0.4938265900396038  1.0000
  Sn  Sn19      1.0  0.89411298  0.565510715  0.5205559254032422  1.0000
  Sn  Sn20      1.0  0.3812253500000001  0.570746405  0.4969416746154637  1.0000
  Sn  Sn21      1.0  0.8750000000000001  0.24986376500000004  0.48989074980698066  1.0000
  Sn  Sn22      1.0  0.36212254  0.249598375  0.5107266473314531  1.0000
  Sn  Sn23      1.0  0.6257061500000001  0.7559510150000001  0.5016353387264751  1.0000
  Sn  Sn24      1.0  0.13361859000000006  0.7446796450000001  0.5215176523042753  1.0000
  Pt  Pt9       1.0  0.08602418000000006  0.13873167500000003  0.5087837759517801  1.0000
  Pt  Pt10      1.0  0.5949907400000001  0.14321561500000002  0.48754731090548314  1.0000
  Pt  Pt11      1.0  0.5289868300000002  0.639222135  0.5185632487983708  1.0000
  Pt  Pt12      1.0  0.011657410000000005  0.643215615  0.4985340820991804  1.0000
  Pt  Pt13      1.0  0.9829478800000002  0.35469507499999997  0.5125292334807672  1.0000
  Pt  Pt14      1.0  0.4883425900000001  0.356511915  0.4922341856321826  1.0000
  Pt  Pt15      1.0  0.4054811000000002  0.8571173649999999  0.5259843688625644  1.0000
  Pt  Pt16      1.0  0.9086069  0.8573430750000001  0.5025986345382465  1.0000
