data_image0
_chemical_formula_structural       COGa3Ag6Ga3Ag6Ga3Ag6
_chemical_formula_sum              "C1 O1 Ga9 Ag18"
_cell_length_a       7.96271844
_cell_length_b       8.494677861066716
_cell_length_c       37.45288474
_cell_angle_alpha    110.38432312359423
_cell_angle_beta     90.0
_cell_angle_gamma    62.05079148365923

_space_group_name_H-M_alt    "P 1"
_space_group_IT_number       1

loop_
  _space_group_symop_operation_xyz
  'x, y, z'

loop_
  _atom_site_type_symbol
  _atom_site_label
  _atom_site_symmetry_multiplicity
  _atom_site_fract_x
  _atom_site_fract_y
  _atom_site_fract_z
  _atom_site_occupancy
  C   C1        1.0  0.9853875799999999  0.8103379150000001  0.623596275604592  1.0000
  O   O1        1.0  0.9317309399999999  0.8347000950000002  0.6547805106621741  1.0000
  Ga  Ga1       1.0  0.33979575  0.332556865  0.5322174112291056  1.0000
  Ga  Ga2       1.0  0.66902443  0.6671715050000001  0.5524520844916638  1.0000
  Ga  Ga3       1.0  0.0002668000000001225  0.010342375000000011  0.5428432997307666  1.0000
  Ag  Ag1       1.0  0.9997332  0.7000015050000001  0.5591593501302984  1.0000
  Ag  Ag2       1.0  0.6838712100000001  0.315291635  0.5301519887320119  1.0000
  Ag  Ag3       1.0  0.32028824000000006  0.9910721050000001  0.504214474644047  1.0000
  Ag  Ag4       1.0  0.65257284  0.9932911150000001  0.5416859543638336  1.0000
  Ag  Ag5       1.0  0.36406184  0.6438803350000001  0.5178302958449097  1.0000
  Ag  Ag6       1.0  0.00588700000000003  0.348059395  0.562274951075629  1.0000
  Ga  Ga4       1.0  0.34140636  0.34004221500000004  0.45055462888544884  1.0000
  Ga  Ga5       1.0  0.6747397  0.6733755550000001  0.4768884137723547  1.0000
  Ga  Ga6       1.0  0.00807303000000001  0.006708885000000012  0.4637215256739763  1.0000
  Ag  Ag7       1.0  0.008073030000000002  0.7011771950000001  0.47908477943608085  1.0000
  Ag  Ag8       1.0  0.70254134  0.312240575  0.4483582632217227  1.0000
  Ag  Ag9       1.0  0.31360472000000006  0.006708885000000012  0.42422084399854304  1.0000
  Ag  Ag10      1.0  0.6470239600000001  0.006708885000000012  0.4637215256739763  1.0000
  Ag  Ag11      1.0  0.3691221  0.6456598150000001  0.43519815343964213  1.0000
  Ag  Ag12      1.0  0.015318929999999993  0.35939453500000007  0.48840429520390016  1.0000
  Ga  Ga7       1.0  0.34140636  0.34004221500000004  0.37155327422473144  1.0000
  Ga  Ga8       1.0  0.6747397  0.6733755550000001  0.3978870591116373  1.0000
  Ga  Ga9       1.0  0.00807303000000001  0.006708885000000012  0.3847201623231098  1.0000
  Ag  Ag13      1.0  0.008073030000000002  0.7011771950000001  0.4000834247753634  1.0000
  Ag  Ag14      1.0  0.70254134  0.312240575  0.3693569085610052  1.0000
  Ag  Ag15      1.0  0.31360472000000006  0.006708885000000012  0.3452194893378256  1.0000
  Ag  Ag16      1.0  0.6470239600000001  0.006708885000000012  0.3847201623231098  1.0000
  Ag  Ag17      1.0  0.3691221  0.6456598150000001  0.3561967987789246  1.0000
  Ag  Ag18      1.0  0.008073030000000031  0.367757955  0.4132435345574441  1.0000
