data_image0
_chemical_formula_structural       COGa16Pt16
_chemical_formula_sum              "C1 O1 Ga16 Pt16"
_cell_length_a       7.06941771
_cell_length_b       8.658233083477898
_cell_length_c       102.7795414
_cell_angle_alpha    95.05115255091961
_cell_angle_beta     90.0
_cell_angle_gamma    90.0

_space_group_name_H-M_alt    "P 1"
_space_group_IT_number       1

loop_
  _space_group_symop_operation_xyz
  'x, y, z'

loop_
  _atom_site_type_symbol
  _atom_site_label
  _atom_site_symmetry_multiplicity
  _atom_site_fract_x
  _atom_site_fract_y
  _atom_site_fract_z
  _atom_site_occupancy
  C   C1        1.0  0.22423503500000003  0.65387651  0.5387835834243956  1.0000
  O   O1        1.0  0.23925996500000002  0.68750911  0.5499939910280881  1.0000
  Ga  Ga1       1.0  0.04846786500000002  0.6068862700000001  0.4531948653375099  1.0000
  Ga  Ga2       1.0  0.548467865  0.29438627000000006  0.47312802819846034  1.0000
  Ga  Ga3       1.0  0.043769555000000016  0.98402963  0.4923172694749099  1.0000
  Ga  Ga4       1.0  0.561708805  0.66388858  0.5139564814467215  1.0000
  Ga  Ga5       1.0  0.890705285  0.3141066  0.49199626900950316  1.0000
  Ga  Ga6       1.0  0.382377495  0.01597037000000002  0.5131675045355427  1.0000
  Ga  Ga7       1.0  0.890705285  0.9391066  0.45212994328760225  1.0000
  Ga  Ga8       1.0  0.39070528500000007  0.6266065999999999  0.47206310614855274  1.0000
  Ga  Ga9       1.0  0.949957305  0.6539308500000001  0.5039177929955865  1.0000
  Ga  Ga10      1.0  0.456621225  0.36182227000000006  0.5214600479200584  1.0000
  Ga  Ga11      1.0  0.956230445  0.2828566  0.4620965247180775  1.0000
  Ga  Ga12      1.0  0.456230445  0.9703566  0.4820296875790279  1.0000
  Ga  Ga13      1.0  0.293072355  0.44531247  0.4959689515569967  1.0000
  Ga  Ga14      1.0  0.824190645  0.13303316  0.5166986404165647  1.0000
  Ga  Ga15      1.0  0.298467865  0.06593305000000002  0.45580711111439653  1.0000
  Ga  Ga16      1.0  0.798467865  0.7534330499999999  0.475740273975347  1.0000
  Pt  Pt1       1.0  0.04846786500000002  0.5310671699999999  0.47737589682984094  1.0000
  Pt  Pt2       1.0  0.546408505  0.22052934000000002  0.49634434563721824  1.0000
  Pt  Pt3       1.0  0.05604775500000002  0.9116380599999999  0.5145954876191466  1.0000
  Pt  Pt4       1.0  0.548467865  0.84356717  0.45744273396889046  1.0000
  Pt  Pt5       1.0  0.19398170500000003  0.20037794  0.4799057532633377  1.0000
  Pt  Pt6       1.0  0.674307795  0.89774377  0.5025191419597957  1.0000
  Pt  Pt7       1.0  0.219886635  0.5950785499999999  0.5205131365728997  1.0000
  Pt  Pt8       1.0  0.693981705  0.51287794  0.4599725904023872  1.0000
  Pt  Pt9       1.0  0.652954025  0.5441279400000001  0.48987233469381286  1.0000
  Pt  Pt10      1.0  0.15711240500000004  0.24444942000000006  0.5103730951645554  1.0000
  Pt  Pt11      1.0  0.652954025  0.16912794  0.450006008971912  1.0000
  Pt  Pt12      1.0  0.15295402500000002  0.8566279400000001  0.46993917183286243  1.0000
  Pt  Pt13      1.0  0.311101715  0.7404156799999999  0.4953752399092037  1.0000
  Pt  Pt14      1.0  0.791082295  0.42265521000000006  0.5151533610347686  1.0000
  Pt  Pt15      1.0  0.298467865  0.36920947000000004  0.45580711111439653  1.0000
  Pt  Pt16      1.0  0.798467865  0.05670947000000002  0.475740273975347  1.0000
