data_image0
_chemical_formula_structural       COAl12Ni8Al12Ni8
_chemical_formula_sum              "C1 O1 Al24 Ni16"
_cell_length_a       7.04237438
_cell_length_b       6.412091150006288
_cell_length_c       108.47254687
_cell_angle_alpha    78.70675551990016
_cell_angle_beta     90.0
_cell_angle_gamma    90.0

_space_group_name_H-M_alt    "P 1"
_space_group_IT_number       1

loop_
  _space_group_symop_operation_xyz
  'x, y, z'

loop_
  _atom_site_type_symbol
  _atom_site_label
  _atom_site_symmetry_multiplicity
  _atom_site_fract_x
  _atom_site_fract_y
  _atom_site_fract_z
  _atom_site_occupancy
  C   C1        1.0  0.73482721  0.44566521500000006  0.557191644902932  1.0000
  O   O1        1.0  0.6670080899999999  0.41627408500000007  0.5671772974620266  1.0000
  Al  Al1       1.0  0.004448669999999979  0.532499555  0.4580396749540509  1.0000
  Al  Al2       1.0  0.004448669999999979  0.03249955500000002  0.4875959593482995  1.0000
  Al  Al3       1.0  0.5044486699999999  0.282499555  0.4728178189245524  1.0000
  Al  Al4       1.0  0.5044486699999999  0.7824995550000001  0.44326153098354953  1.0000
  Al  Al5       1.0  0.3377819999999999  0.20884165500000004  0.43890742549332185  1.0000
  Al  Al6       1.0  0.3377819999999999  0.7088416550000001  0.46846370988757036  1.0000
  Al  Al7       1.0  0.837782  0.9588416550000002  0.45368556591706904  1.0000
  Al  Al8       1.0  0.837782  0.45884165500000007  0.4832418538580718  1.0000
  Al  Al9       1.0  0.17111533999999995  0.6061574550000001  0.4328374960500301  1.0000
  Al  Al10      1.0  0.17111533999999995  0.10615745500000001  0.4623937839910329  1.0000
  Al  Al11      1.0  0.6711153399999998  0.35615745500000007  0.44761564002053156  1.0000
  Al  Al12      1.0  0.6711153399999998  0.8561574550000001  0.4771719244147801  1.0000
  Ni  Ni1       1.0  0.3377819999999999  0.459091965  0.45370036297587996  1.0000
  Ni  Ni2       1.0  0.3377819999999999  0.959091965  0.48325665091688286  1.0000
  Ni  Ni3       1.0  0.837782  0.20909196500000005  0.46847850694638143  1.0000
  Ni  Ni4       1.0  0.837782  0.7090919650000002  0.43892222255213287  1.0000
  Ni  Ni5       1.0  0.17111533999999995  0.35590714500000004  0.47715713090272327  1.0000
  Ni  Ni6       1.0  0.17111533999999995  0.8559071450000001  0.4476008429617205  1.0000
  Ni  Ni7       1.0  0.6711153399999998  0.10590714500000001  0.43282270253797334  1.0000
  Ni  Ni8       1.0  0.6711153399999998  0.605907145  0.4623789869322219  1.0000
  Al  Al13      1.0  0.00524179999999998  0.523915585  0.5164465637793807  1.0000
  Al  Al14      1.0  0.9955513300000001  0.9574992450000002  0.5431840403909186  1.0000
  Al  Al15      1.0  0.50246666  0.288580605  0.533041539717778  1.0000
  Al  Al16      1.0  0.5044486699999999  0.7824995550000001  0.502374103318801  1.0000
  Al  Al17      1.0  0.3377819999999999  0.20884165500000004  0.4980199942818189  1.0000
  Al  Al18      1.0  0.31437694  0.687907325  0.5289002749512438  1.0000
  Al  Al19      1.0  0.837782  0.9588416550000002  0.5127981382523203  1.0000
  Al  Al20      1.0  0.8745408600000001  0.519370235  0.5405834750386533  1.0000
  Al  Al21      1.0  0.17111533999999995  0.6061574550000001  0.4919500683852815  1.0000
  Al  Al22      1.0  0.17988872999999997  0.10748220500000001  0.5206983099413999  1.0000
  Al  Al23      1.0  0.6711153399999998  0.35615745500000007  0.5067282123557829  1.0000
  Al  Al24      1.0  0.6446121800000001  0.877754355  0.5348271957156481  1.0000
  Ni  Ni9       1.0  0.3377819999999999  0.459091965  0.5128129353111314  1.0000
  Ni  Ni10      1.0  0.33005928999999995  0.9675004450000001  0.5408714005502253  1.0000
  Ni  Ni11      1.0  0.83055475  0.215307735  0.5276876964146795  1.0000
  Ni  Ni12      1.0  0.837782  0.7090919650000002  0.49803479134063  1.0000
  Ni  Ni13      1.0  0.15701887999999997  0.3302824750000001  0.5360299745701665  1.0000
  Ni  Ni14      1.0  0.17111533999999995  0.8559071450000001  0.5067134152969719  1.0000
  Ni  Ni15      1.0  0.6711153399999998  0.10590714500000001  0.49193527132647036  1.0000
  Ni  Ni16      1.0  0.67023963  0.6039822950000001  0.5216725997923893  1.0000
