data_image0
_chemical_formula_structural       COGa12Pd28
_chemical_formula_sum              "C1 O1 Ga12 Pd28"
_cell_length_a       11.885477463365397
_cell_length_b       7.227116734567402
_cell_length_c       99.21018592
_cell_angle_alpha    96.64777490724649
_cell_angle_beta     93.10131505709664
_cell_angle_gamma    82.35412612652654

_space_group_name_H-M_alt    "P 1"
_space_group_IT_number       1

loop_
  _space_group_symop_operation_xyz
  'x, y, z'

loop_
  _atom_site_type_symbol
  _atom_site_label
  _atom_site_symmetry_multiplicity
  _atom_site_fract_x
  _atom_site_fract_y
  _atom_site_fract_z
  _atom_site_occupancy
  C   C1        1.0  0.11282976500000004  0.22874593  0.5340379982083356  1.0000
  O   O1        1.0  0.12019805500000004  0.23823245  0.5460149440015709  1.0000
  Ga  Ga1       1.0  0.9542143750000002  0.3810439  0.5079181522823202  1.0000
  Ga  Ga2       1.0  0.5446134050000001  0.21502657  0.4920289744654137  1.0000
  Ga  Ga3       1.0  0.817486515  0.9599697700000003  0.511796307291751  1.0000
  Ga  Ga4       1.0  0.379304505  0.8405362  0.4925912039805588  1.0000
  Ga  Ga5       1.0  0.7171759150000001  0.59523086  0.49078846691980615  1.0000
  Ga  Ga6       1.0  0.17603208500000003  0.7242260200000001  0.5107597495281054  1.0000
  Ga  Ga7       1.0  0.10804650500000003  0.09375000000000001  0.47320188340420427  1.0000
  Ga  Ga8       1.0  0.6705465050000001  0.9687500000000001  0.45480017794351557  1.0000
  Ga  Ga9       1.0  0.9364170950000001  0.7172691500000001  0.47401700534929087  1.0000
  Ga  Ga10      1.0  0.4989170950000001  0.59226915  0.4556152998886023  1.0000
  Ga  Ga11      1.0  0.8421759150000001  0.34523086000000003  0.4539850559984289  1.0000
  Ga  Ga12      1.0  0.27967591500000005  0.47023086  0.4723867614591176  1.0000
  Pd  Pd1       1.0  0.763505485  0.2728333400000001  0.5005821254390891  1.0000
  Pd  Pd2       1.0  0.15552102500000003  0.37753919  0.5191942728034262  1.0000
  Pd  Pd3       1.0  0.583315585  0.86335466  0.502277193385123  1.0000
  Pd  Pd4       1.0  0.026666075000000036  0.06583856  0.5195048170405079  1.0000
  Pd  Pd5       1.0  0.973333925  0.7099714700000002  0.5020057343704397  1.0000
  Pd  Pd6       1.0  0.38068625500000003  0.80756916  0.5171457684530865  1.0000
  Pd  Pd7       1.0  0.7777028750000001  0.63144579  0.5151524368321271  1.0000
  Pd  Pd8       1.0  0.3308204250000001  0.5035066799999999  0.4986267896595651  1.0000
  Pd  Pd9       1.0  0.641961725  0.15890672000000003  0.5196980202264807  1.0000
  Pd  Pd10      1.0  0.20411122500000006  0.04005697  0.5024162484486754  1.0000
  Pd  Pd11      1.0  0.5574377150000001  0.49979774000000005  0.5094344910878282  1.0000
  Pd  Pd12      1.0  0.11906015500000004  0.38062117999999995  0.49123938525468774  1.0000
  Pd  Pd13      1.0  0.9714392650000001  0.05772421999999997  0.4915674950237341  1.0000
  Pd  Pd14      1.0  0.41326188500000005  0.17276069000000002  0.5099418894092462  1.0000
  Pd  Pd15      1.0  0.8892965050000002  0.031249999999999986  0.4640010306738599  1.0000
  Pd  Pd16      1.0  0.32679650500000007  0.15625000000000003  0.4824027361345486  1.0000
  Pd  Pd17      1.0  0.705356045  0.6253609800000002  0.4649335819982417  1.0000
  Pd  Pd18      1.0  0.14285604500000004  0.7503609800000001  0.4833352874589303  1.0000
  Pd  Pd19      1.0  0.07323696500000004  0.43713903000000004  0.46306847934947815  1.0000
  Pd  Pd20      1.0  0.5107369650000001  0.5621390300000001  0.4814701848101668  1.0000
  Pd  Pd21      1.0  0.8927738550000001  0.39044067  0.47989431575142516  1.0000
  Pd  Pd22      1.0  0.45527385500000006  0.26544067000000005  0.4614926102907366  1.0000
  Pd  Pd23      1.0  0.7608191550000001  0.9220593400000001  0.4849111565176719  1.0000
  Pd  Pd24      1.0  0.3233191550000001  0.79705934  0.4665094510569832  1.0000
  Pd  Pd25      1.0  0.6815601550000001  0.25562117999999995  0.47283767979399915  1.0000
  Pd  Pd26      1.0  0.24406015500000006  0.13062118000000003  0.4544359743333105  1.0000
  Pd  Pd27      1.0  0.09703284500000005  0.80687882  0.45516438155372063  1.0000
  Pd  Pd28      1.0  0.5345328450000001  0.9318788200000001  0.4735660870144093  1.0000
