data_image0
_chemical_formula_structural       COCu6Ni6Sb12
_chemical_formula_sum              "C1 O1 Cu6 Ni6 Sb12"
_cell_length_a       6.64452432892041
_cell_length_b       8.858854623608723
_cell_length_c       101.63082762
_cell_angle_alpha    89.49384212346477
_cell_angle_beta     84.6379817461025
_cell_angle_gamma    88.79516091635354

_space_group_name_H-M_alt    "P 1"
_space_group_IT_number       1

loop_
  _space_group_symop_operation_xyz
  'x, y, z'

loop_
  _atom_site_type_symbol
  _atom_site_label
  _atom_site_symmetry_multiplicity
  _atom_site_fract_x
  _atom_site_fract_y
  _atom_site_fract_z
  _atom_site_occupancy
  C   C1        1.0  0.4142712  0.9073186749999999  0.5384371773960526  1.0000
  O   O1        1.0  0.40826840999999997  0.909367555  0.549955594354049  1.0000
  Cu  Cu1       1.0  0.96886481  0.06246584500000001  0.48894848175249966  1.0000
  Cu  Cu2       1.0  0.14651143999999997  0.7258647149999999  0.5132181982896131  1.0000
  Cu  Cu3       1.0  0.5554000699999999  0.391294065  0.5019728008007543  1.0000
  Cu  Cu4       1.0  0.21886480999999994  0.06246584500000001  0.45004440564595105  1.0000
  Cu  Cu5       1.0  0.38553148  0.729132515  0.47598045845853415  1.0000
  Cu  Cu6       1.0  0.8021981500000002  0.395799175  0.46301243205224263  1.0000
  Ni  Ni1       1.0  0.42295883999999995  0.9027603649999999  0.5208901038841072  1.0000
  Ni  Ni2       1.0  0.8447045599999999  0.5605253349999999  0.5074589353449085  1.0000
  Ni  Ni3       1.0  0.2653448599999999  0.230428135  0.49397663440040135  1.0000
  Ni  Ni4       1.0  0.67719815  0.895799175  0.48246447010551696  1.0000
  Ni  Ni5       1.0  0.09386480999999994  0.562465845  0.4694964436992254  1.0000
  Ni  Ni6       1.0  0.51053148  0.22913251499999998  0.45652842040525987  1.0000
  Sb  Sb1       1.0  0.78391951  0.8559484449999999  0.5077178310782562  1.0000
  Sb  Sb2       1.0  0.19788631999999992  0.520676695  0.4943584203293545  1.0000
  Sb  Sb3       1.0  0.34496566  0.195516475  0.5188955168007331  1.0000
  Sb  Sb4       1.0  0.32863479  0.9375341549999999  0.49689991468998224  1.0000
  Sb  Sb5       1.0  0.49332028  0.603731575  0.5213415841311606  1.0000
  Sb  Sb6       1.0  0.9286686800000001  0.265306115  0.5103680234275257  1.0000
  Sb  Sb7       1.0  0.03113518999999994  0.8599536849999998  0.4681019099733927  1.0000
  Sb  Sb8       1.0  0.44780185999999994  0.526620345  0.45513388356710105  1.0000
  Sb  Sb9       1.0  0.61446853  0.19328701499999998  0.48106993326735814  1.0000
  Sb  Sb10      1.0  0.5732611000000001  0.931644675  0.4579229541310926  1.0000
  Sb  Sb11      1.0  0.7399277699999999  0.5983113449999999  0.48385900694367573  1.0000
  Sb  Sb12      1.0  0.15659443  0.264978005  0.4708909805373842  1.0000
