data_image0
_chemical_formula_structural       COIn4Au12In4Au12
_chemical_formula_sum              "C1 O1 In8 Au24"
_cell_length_a       5.1919482
_cell_length_b       13.334498973664786
_cell_length_c       103.80615896
_cell_angle_alpha    111.23396465014942
_cell_angle_beta     90.0
_cell_angle_gamma    90.0

_space_group_name_H-M_alt    "P 1"
_space_group_IT_number       1

loop_
  _space_group_symop_operation_xyz
  'x, y, z'

loop_
  _atom_site_type_symbol
  _atom_site_label
  _atom_site_symmetry_multiplicity
  _atom_site_fract_x
  _atom_site_fract_y
  _atom_site_fract_z
  _atom_site_occupancy
  C   C1        1.0  0.14900068500000005  0.44625263500000006  0.5442419540659688  1.0000
  O   O1        1.0  0.14691099500000004  0.486704205  0.5563716658311821  1.0000
  In  In1       1.0  0.832626175  0.256092295  0.4727710900377877  1.0000
  In  In2       1.0  0.832626175  0.756092295  0.44950921794948556  1.0000
  In  In3       1.0  0.17117979500000002  0.006092295000000017  0.4844020277102699  1.0000
  In  In4       1.0  0.17117979500000002  0.5060922950000001  0.4611401556219677  1.0000
  Au  Au1       1.0  0.16902597500000002  0.256092295  0.44950921794948556  1.0000
  Au  Au2       1.0  0.16902597500000002  0.756092295  0.4727710900377877  1.0000
  Au  Au3       1.0  0.8347799950000002  0.006092295000000017  0.4611401556219677  1.0000
  Au  Au4       1.0  0.8347799950000002  0.5060922950000001  0.4844020277102699  1.0000
  Au  Au5       1.0  0.669841035  0.3796862150000001  0.45525927184130016  1.0000
  Au  Au6       1.0  0.669841035  0.8796862150000001  0.4785211439296023  1.0000
  Au  Au7       1.0  0.3339649350000001  0.382498375  0.4786519738184554  1.0000
  Au  Au8       1.0  0.3339649350000001  0.8824983750000001  0.45539010173015315  1.0000
  Au  Au9       1.0  0.669841035  0.13249837500000003  0.4437591673143332  1.0000
  Au  Au10      1.0  0.669841035  0.6324983750000001  0.4670210394026354  1.0000
  Au  Au11      1.0  0.3339649350000001  0.12968621500000002  0.4668902062571202  1.0000
  Au  Au12      1.0  0.3339649350000001  0.6296862150000001  0.4436283341688179  1.0000
  In  In5       1.0  0.8264526050000001  0.21216534500000003  0.5179589546540496  1.0000
  In  In6       1.0  0.832626175  0.756092295  0.4960329621260899  1.0000
  In  In7       1.0  0.16904200500000005  0.942966865  0.5319399876692589  1.0000
  In  In8       1.0  0.17269166500000002  0.49424806500000007  0.5077820221916867  1.0000
  Au  Au13      1.0  0.16902597500000002  0.256092295  0.4960329621260899  1.0000
  Au  Au14      1.0  0.14355086500000003  0.7140358750000001  0.5220297856075813  1.0000
  Au  Au15      1.0  0.7942263150000001  0.993907705  0.5148127454502878  1.0000
  Au  Au16      1.0  0.8564491350000001  0.4472273050000001  0.5293876112699434  1.0000
  Au  Au17      1.0  0.669841035  0.3796862150000001  0.5017830160179045  1.0000
  Au  Au18      1.0  0.6455460150000001  0.8204392450000001  0.5238183509778022  1.0000
  Au  Au19      1.0  0.38228007500000005  0.3332054950000001  0.5292693032470859  1.0000
  Au  Au20      1.0  0.3339649350000001  0.8824983750000001  0.5019138491634197  1.0000
  Au  Au21      1.0  0.669841035  0.13249837500000003  0.4902829114909376  1.0000
  Au  Au22      1.0  0.648440645  0.6037744950000001  0.5191643886116738  1.0000
  Au  Au23      1.0  0.296493965  0.10819444500000003  0.5183965523481523  1.0000
  Au  Au24      1.0  0.3339649350000001  0.6296862150000001  0.49015207834542235  1.0000
