data_image0
_chemical_formula_structural       COPd12V6
_chemical_formula_sum              "C1 O1 Pd12 V6"
_cell_length_a       4.803231020656872
_cell_length_b       6.186267551718056
_cell_length_c       102.57515894
_cell_angle_alpha    84.91047341099748
_cell_angle_beta     87.59432068300706
_cell_angle_gamma    74.08092195259779

_space_group_name_H-M_alt    "P 1"
_space_group_IT_number       1

loop_
  _space_group_symop_operation_xyz
  'x, y, z'

loop_
  _atom_site_type_symbol
  _atom_site_label
  _atom_site_symmetry_multiplicity
  _atom_site_fract_x
  _atom_site_fract_y
  _atom_site_fract_z
  _atom_site_occupancy
  C   C1        1.0  0.5690090249999998  0.7952197700000001  0.544360892270323  1.0000
  O   O1        1.0  0.623133015  0.7111078300000001  0.5549085266107082  1.0000
  Pd  Pd1       1.0  0.9418096649999999  0.71946017  0.49557128419600777  1.0000
  Pd  Pd2       1.0  0.23022230499999993  0.33534942000000006  0.511119577980093  1.0000
  Pd  Pd3       1.0  0.485274555  0.93717167  0.5273212857263389  1.0000
  Pd  Pd4       1.0  0.646142345  0.53974729  0.5153220099158371  1.0000
  Pd  Pd5       1.0  0.9095877750000001  0.14881544  0.5297777394844013  1.0000
  Pd  Pd6       1.0  0.358255615  0.91997119  0.5004695134619428  1.0000
  Pd  Pd7       1.0  0.08466680499999998  0.8623173199999999  0.4502036329117832  1.0000
  Pd  Pd8       1.0  0.3703810950000001  0.48136494  0.4653261812227009  1.0000
  Pd  Pd9       1.0  0.656095375  0.10041255  0.48044873270935434  1.0000
  Pd  Pd10      1.0  0.786827045  0.6818759500000001  0.4702244136643716  1.0000
  Pd  Pd11      1.0  0.07254133499999996  0.30092357000000003  0.48534696515102504  1.0000
  Pd  Pd12      1.0  0.501112765  0.06282832999999999  0.4551018621777182  1.0000
  V   V1        1.0  0.05819033500000001  0.7717125199999999  0.51849739306259  1.0000
  V   V2        1.0  0.507175495  0.51019187  0.4904591246735164  1.0000
  V   V3        1.0  0.788434975  0.12862588999999996  0.505637769179016  1.0000
  V   V4        1.0  0.22146121500000004  0.8911442500000001  0.47533657318686295  1.0000
  V   V5        1.0  0.6500326349999999  0.65304901  0.4450914733892918  1.0000
  V   V6        1.0  0.935746925  0.27209663  0.4602140217002096  1.0000
