data_image0
_chemical_formula_structural       COV4Rh4V4Rh4V4Rh4
_chemical_formula_sum              "C1 O1 V12 Rh12"
_cell_length_a       5.84687616
_cell_length_b       7.280334944244848
_cell_length_c       100.85199084
_cell_angle_alpha    67.34093127105253
_cell_angle_beta     90.0
_cell_angle_gamma    90.0

_space_group_name_H-M_alt    "P 1"
_space_group_IT_number       1

loop_
  _space_group_symop_operation_xyz
  'x, y, z'

loop_
  _atom_site_type_symbol
  _atom_site_label
  _atom_site_symmetry_multiplicity
  _atom_site_fract_x
  _atom_site_fract_y
  _atom_site_fract_z
  _atom_site_occupancy
  C   C1        1.0  0.63720163  0.36783292  0.5361818321715918  1.0000
  O   O1        1.0  0.5194846799999999  0.49180886  0.5406900159595779  1.0000
  V   V1        1.0  0.80345855  0.11001673000000001  0.48116403527991247  1.0000
  V   V2        1.0  0.39616655000000006  0.11001673000000001  0.48116403527991247  1.0000
  V   V3        1.0  0.30345855  0.61001673  0.4672588723916444  1.0000
  V   V4        1.0  0.8961665500000001  0.61001673  0.4672588723916444  1.0000
  Rh  Rh1       1.0  0.59981255  0.8241916000000001  0.47520776380200214  1.0000
  Rh  Rh2       1.0  0.59981255  0.39584186  0.4593099840404222  1.0000
  Rh  Rh3       1.0  0.09981255  0.3241916  0.46130260091373404  1.0000
  Rh  Rh4       1.0  0.09981255  0.8958418599999999  0.4732151469286903  1.0000
  V   V5        1.0  0.81199201  0.10553910000000001  0.5101565731592327  1.0000
  V   V6        1.0  0.39639078  0.10285786000000002  0.5094593288710767  1.0000
  V   V7        1.0  0.30345855  0.61001673  0.4950691951090451  1.0000
  V   V8        1.0  0.8961665500000001  0.61001673  0.4950691951090451  1.0000
  Rh  Rh5       1.0  0.59981255  0.8241916000000001  0.5030180865194028  1.0000
  Rh  Rh6       1.0  0.59981255  0.39584186  0.4871203067578229  1.0000
  Rh  Rh7       1.0  0.09981255  0.3241916  0.48911292363113473  1.0000
  Rh  Rh8       1.0  0.09981255  0.8958418599999999  0.501025469646091  1.0000
  V   V9        1.0  0.8322515200000001  0.15027962000000003  0.5352092412126963  1.0000
  V   V10       1.0  0.40537679  0.12321445  0.5348196694804203  1.0000
  V   V11       1.0  0.30473127  0.6062111099999999  0.5236357606024238  1.0000
  V   V12       1.0  0.9001874500000001  0.6023267  0.5239410409143197  1.0000
  Rh  Rh9       1.0  0.60218734  0.86388941  0.5314519742457312  1.0000
  Rh  Rh10      1.0  0.59884659  0.4036432100000001  0.5137151615100983  1.0000
  Rh  Rh11      1.0  0.11203286  0.33221359  0.5169158524179606  1.0000
  Rh  Rh12      1.0  0.102168  0.89714214  0.5288938516967061  1.0000
