data_image0
_chemical_formula_structural       CORe24
_chemical_formula_sum              "C1 O1 Re24"
_cell_length_a       5.564642577372407
_cell_length_b       8.99838456
_cell_length_c       103.38785547
_cell_angle_alpha    90.0
_cell_angle_beta     119.9999998967275
_cell_angle_gamma    90.0

_space_group_name_H-M_alt    "P 1"
_space_group_IT_number       1

loop_
  _space_group_symop_operation_xyz
  'x, y, z'

loop_
  _atom_site_type_symbol
  _atom_site_label
  _atom_site_symmetry_multiplicity
  _atom_site_fract_x
  _atom_site_fract_y
  _atom_site_fract_z
  _atom_site_occupancy
  C   C1        1.0  0.25637041  0.12583377499999998  0.5291092561124106  1.0000
  O   O1        1.0  0.37215487999999997  0.12298971499999997  0.5428301344377056  1.0000
  Re  Re1       1.0  0.34126503999999996  0.12595360499999997  0.45716986556229444  1.0000
  Re  Re2       1.0  0.17459838  0.375953605  0.4661403631096256  1.0000
  Re  Re3       1.0  0.34126503999999996  0.12595360499999997  0.48408135497490884  1.0000
  Re  Re4       1.0  0.17313331  0.37600159499999997  0.49303436543572016  1.0000
  Re  Re5       1.0  0.35258391  0.12599447499999997  0.511549708789779  1.0000
  Re  Re6       1.0  0.15882350999999997  0.37658184499999997  0.5186311650268258  1.0000
  Re  Re7       1.0  0.34126503999999996  0.625953605  0.45716986556229444  1.0000
  Re  Re8       1.0  0.17459838  0.8759536050000001  0.4661403631096256  1.0000
  Re  Re9       1.0  0.34126503999999996  0.625953605  0.48408135497490884  1.0000
  Re  Re10      1.0  0.17312118999999998  0.876196895  0.4930401234182252  1.0000
  Re  Re11      1.0  0.33746571  0.625939115  0.510738475902961  1.0000
  Re  Re12      1.0  0.15873496  0.8748852650000001  0.5186326666879951  1.0000
  Re  Re13      1.0  0.8412650399999999  0.12595360499999997  0.45716986556229444  1.0000
  Re  Re14      1.0  0.67459838  0.375953605  0.46614036310962553  1.0000
  Re  Re15      1.0  0.8412650399999999  0.12595360499999997  0.4840813549749089  1.0000
  Re  Re16      1.0  0.6740882599999999  0.37524098499999997  0.49301716899329756  1.0000
  Re  Re17      1.0  0.82679569  0.12601341499999996  0.5113907038629137  1.0000
  Re  Re18      1.0  0.65706576  0.380038265  0.5184115575762983  1.0000
  Re  Re19      1.0  0.8412650399999999  0.625953605  0.45716986556229444  1.0000
  Re  Re20      1.0  0.67459838  0.8759536050000001  0.46614036310962553  1.0000
  Re  Re21      1.0  0.8412650399999999  0.625953605  0.4840813549749089  1.0000
  Re  Re22      1.0  0.67405921  0.877010285  0.4930192002725997  1.0000
  Re  Re23      1.0  0.8387300599999998  0.625940835  0.5107804901219125  1.0000
  Re  Re24      1.0  0.6569753199999999  0.871910145  0.518409577967058  1.0000
