data_image0
_chemical_formula_structural       CONi12Sn16
_chemical_formula_sum              "C1 O1 Ni12 Sn16"
_cell_length_a       6.534834547092505
_cell_length_b       6.737947610168736
_cell_length_c       30.991728289999998
_cell_angle_alpha    88.64215628141827
_cell_angle_beta     87.98908813873568
_cell_angle_gamma    112.9754915869059

_space_group_name_H-M_alt    "P 1"
_space_group_IT_number       1

loop_
  _space_group_symop_operation_xyz
  'x, y, z'

loop_
  _atom_site_type_symbol
  _atom_site_label
  _atom_site_symmetry_multiplicity
  _atom_site_fract_x
  _atom_site_fract_y
  _atom_site_fract_z
  _atom_site_occupancy
  C   C1        1.0  0.27765156999999996  0.24172406499999996  0.6838376138901879  1.0000
  O   O1        1.0  0.23194639999999994  0.22981060499999995  0.7211653656606472  1.0000
  Ni  Ni1       1.0  0.3762168799999999  0.28491574499999994  0.6285818093699385  1.0000
  Ni  Ni2       1.0  0.46522563999999983  0.9486700849999998  0.5157966949487448  1.0000
  Ni  Ni3       1.0  0.9404435599999998  0.9849927749999999  0.6318039092820238  1.0000
  Ni  Ni4       1.0  0.023444109999999956  0.6523820549999999  0.5284500384984498  1.0000
  Ni  Ni5       1.0  0.8162087099999998  0.5788507949999999  0.6051520845514892  1.0000
  Ni  Ni6       1.0  0.90700716  0.24495811499999995  0.5031433639857119  1.0000
  Ni  Ni7       1.0  0.54855897  0.615336755  0.41090776624101666  1.0000
  Ni  Ni8       1.0  0.6318922999999999  0.2820034149999999  0.30601883753328835  1.0000
  Ni  Ni9       1.0  0.10677743999999995  0.319048725  0.4235611097907214  1.0000
  Ni  Ni10      1.0  0.19011076999999993  0.9857153949999999  0.3186721810829932  1.0000
  Ni  Ni11      1.0  0.9903405  0.9116247749999999  0.3982544226913116  1.0000
  Ni  Ni12      1.0  0.07367382999999995  0.5782914449999998  0.2933654939835834  1.0000
  Sn  Sn1       1.0  0.5254992199999999  0.7054699149999999  0.6509248009323636  1.0000
  Sn  Sn2       1.0  0.5870854199999999  0.34761793499999993  0.5429808981426808  1.0000
  Sn  Sn3       1.0  0.2588632899999999  0.8878942549999997  0.5925825934103044  1.0000
  Sn  Sn4       1.0  0.34336585  0.5497222350000001  0.4886125043414808  1.0000
  Sn  Sn5       1.0  0.009659499999999946  0.6880432349999999  0.6835059676710198  1.0000
  Sn  Sn6       1.0  0.06820352999999993  0.3499163849999999  0.5829663382817153  1.0000
  Sn  Sn7       1.0  0.77891441  0.8807571249999998  0.5535159929101746  1.0000
  Sn  Sn8       1.0  0.72725746  0.23285052499999992  0.6596257910368811  1.0000
  Sn  Sn9       1.0  0.67041875  0.014284604999999959  0.43809196943495243  1.0000
  Sn  Sn10      1.0  0.75375209  0.6809512749999999  0.3332030281405524  1.0000
  Sn  Sn11      1.0  0.4266991799999999  0.21638890499999994  0.3837235756337527  1.0000
  Sn  Sn12      1.0  0.5100325199999999  0.8830555649999999  0.27883463433935235  1.0000
  Sn  Sn13      1.0  0.15153685999999997  0.016583044999999956  0.47807740957398714  1.0000
  Sn  Sn14      1.0  0.23487019999999995  0.6832497149999999  0.3731884682795868  1.0000
  Sn  Sn15      1.0  0.9455810799999999  0.21409045499999996  0.3437381229080462  1.0000
  Sn  Sn16      1.0  0.86224774  0.547423785  0.4486270642024464  1.0000
