data_image0
_chemical_formula_structural       CONi15Pt5Ni15Pt5
_chemical_formula_sum              "C1 O1 Ni30 Pt10"
_cell_length_a       8.211497715692976
_cell_length_b       5.19340716
_cell_length_c       108.16359270000001
_cell_angle_alpha    90.0
_cell_angle_beta     104.96321740908841
_cell_angle_gamma    71.56505116447131

_space_group_name_H-M_alt    "P 1"
_space_group_IT_number       1

loop_
  _space_group_symop_operation_xyz
  'x, y, z'

loop_
  _atom_site_type_symbol
  _atom_site_label
  _atom_site_symmetry_multiplicity
  _atom_site_fract_x
  _atom_site_fract_y
  _atom_site_fract_z
  _atom_site_occupancy
  C   C1        1.0  0.34651649500000004  0.8500126849999999  0.5518586868751266  1.0000
  O   O1        1.0  0.344502535  0.8510458049999999  0.5629176213106661  1.0000
  Ni  Ni1       1.0  0.6424087749999999  0.950620355  0.5249427277241487  1.0000
  Ni  Ni2       1.0  0.04338909499999996  0.7510860349999999  0.5135293416414934  1.0000
  Ni  Ni3       1.0  0.246871545  0.14858209499999983  0.5379797908967254  1.0000
  Ni  Ni4       1.0  0.443389095  0.5510860349999999  0.5017682712323122  1.0000
  Ni  Ni5       1.0  0.8268957750000001  0.3719830849999998  0.5470679849003975  1.0000
  Ni  Ni6       1.0  0.642371755  0.4526195849999998  0.5249385360782358  1.0000
  Ni  Ni7       1.0  0.04338909499999996  0.2510860349999998  0.5135293416414934  1.0000
  Ni  Ni8       1.0  0.24689313499999999  0.651044905  0.5379886187570574  1.0000
  Ni  Ni9       1.0  0.443389095  0.051086034999999835  0.5017682712323122  1.0000
  Ni  Ni10      1.0  0.826972745  0.8474299149999998  0.5470736690262946  1.0000
  Ni  Ni11      1.0  0.34338909500000003  0.3510860349999998  0.5194098786102447  1.0000
  Ni  Ni12      1.0  0.743389095  0.1510860349999998  0.5076488082010635  1.0000
  Ni  Ni13      1.0  0.9566109050000001  0.5448124949999998  0.5316431089992888  1.0000
  Ni  Ni14      1.0  0.143389095  0.9510860349999999  0.49588773426356086  1.0000
  Ni  Ni15      1.0  0.537541865  0.7544063849999999  0.54354956036655  1.0000
  Pt  Pt1       1.0  0.543773105  0.2512246849999999  0.5426688066465282  1.0000
  Pt  Pt2       1.0  0.948347595  0.048913964999999886  0.5315191978773877  1.0000
  Pt  Pt3       1.0  0.143389095  0.45108603499999983  0.49588773426356086  1.0000
  Pt  Pt4       1.0  0.34338909500000003  0.8510860349999998  0.5194098786102447  1.0000
  Pt  Pt5       1.0  0.743389095  0.6510860349999998  0.5076488082010635  1.0000
  Ni  Ni16      1.0  0.643389095  0.9510860349999999  0.46648505647644734  1.0000
  Ni  Ni17      1.0  0.04338909499999996  0.7510860349999999  0.4547239860672662  1.0000
  Ni  Ni18      1.0  0.243389095  0.15108603499999984  0.47824612688562845  1.0000
  Ni  Ni19      1.0  0.443389095  0.5510860349999999  0.4429629121297636  1.0000
  Ni  Ni20      1.0  0.8433890949999999  0.35108603499999996  0.49000720082313104  1.0000
  Ni  Ni21      1.0  0.643389095  0.45108603499999994  0.46648505647644734  1.0000
  Ni  Ni22      1.0  0.04338909499999996  0.2510860349999998  0.4547239860672662  1.0000
  Ni  Ni23      1.0  0.243389095  0.6510860349999997  0.47824612688562845  1.0000
  Ni  Ni24      1.0  0.443389095  0.051086034999999835  0.4429629121297636  1.0000
  Ni  Ni25      1.0  0.8433890949999999  0.8510860349999998  0.49000720082313104  1.0000
  Ni  Ni26      1.0  0.34338909500000003  0.3510860349999998  0.460604519507696  1.0000
  Ni  Ni27      1.0  0.743389095  0.1510860349999998  0.4488434490985149  1.0000
  Ni  Ni28      1.0  0.943389095  0.5510860349999999  0.47236559344519863  1.0000
  Ni  Ni29      1.0  0.143389095  0.9510860349999999  0.43708237868933375  1.0000
  Ni  Ni30      1.0  0.543389095  0.7510860349999999  0.4841266638543798  1.0000
  Pt  Pt6       1.0  0.543389095  0.2510860349999998  0.4841266638543798  1.0000
  Pt  Pt7       1.0  0.943389095  0.05108603499999992  0.47236559344519863  1.0000
  Pt  Pt8       1.0  0.143389095  0.45108603499999983  0.43708237868933375  1.0000
  Pt  Pt9       1.0  0.34338909500000003  0.8510860349999998  0.460604519507696  1.0000
  Pt  Pt10      1.0  0.743389095  0.6510860349999998  0.4488434490985149  1.0000
