data_image0
_chemical_formula_structural       COAl5Ir5Al5Ir5Al5Ir5Al5Ir5
_chemical_formula_sum              "C1 O1 Al20 Ir20"
_cell_length_a       8.57208142
_cell_length_b       6.7768253877948235
_cell_length_c       101.49583826
_cell_angle_alpha    75.03678257666073
_cell_angle_beta     90.0
_cell_angle_gamma    71.56505120442489

_space_group_name_H-M_alt    "P 1"
_space_group_IT_number       1

loop_
  _space_group_symop_operation_xyz
  'x, y, z'

loop_
  _atom_site_type_symbol
  _atom_site_label
  _atom_site_symmetry_multiplicity
  _atom_site_fract_x
  _atom_site_fract_y
  _atom_site_fract_z
  _atom_site_occupancy
  C   C1        1.0  0.19444288999999992  0.5253667750000001  0.5508141021505201  1.0000
  O   O1        1.0  0.20371368999999992  0.49019806500000007  0.562650543514493  1.0000
  Al  Al1       1.0  0.4504681799999998  0.5014874750000001  0.4425213968989622  1.0000
  Al  Al2       1.0  0.35046817999999974  0.9014874750000003  0.45286528393220365  1.0000
  Al  Al3       1.0  0.05046817999999991  0.10148747500000002  0.48389693882559714  1.0000
  Al  Al4       1.0  0.2504681799999999  0.30148747500000006  0.4632091678622796  1.0000
  Al  Al5       1.0  0.15046817999999992  0.7014874750000001  0.47355305179235563  1.0000
  Ir  Ir1       1.0  0.4504681799999998  0.5014874750000001  0.4683811113789004  1.0000
  Ir  Ir2       1.0  0.35046817999999974  0.9014874750000003  0.47872499530897633  1.0000
  Ir  Ir3       1.0  0.05046817999999991  0.10148747500000002  0.4580372243456589  1.0000
  Ir  Ir4       1.0  0.2504681799999999  0.30148747500000006  0.43734945648550694  1.0000
  Ir  Ir5       1.0  0.15046817999999992  0.7014874750000001  0.4476933404155829  1.0000
  Al  Al6       1.0  0.4504681799999998  0.5014874750000001  0.4942408227556731  1.0000
  Al  Al7       1.0  0.35046817999999974  0.9014874750000003  0.5045847066857491  1.0000
  Al  Al8       1.0  0.050892169999999924  0.09763449500000002  0.5340669076059985  1.0000
  Al  Al9       1.0  0.2506256899999999  0.30012505500000003  0.5166172184580006  1.0000
  Al  Al10      1.0  0.16156408999999994  0.6554375649999999  0.5292866301216148  1.0000
  Ir  Ir6       1.0  0.44926097  0.501420025  0.51977755356515  1.0000
  Ir  Ir7       1.0  0.3491702399999999  0.901381675  0.528916742104782  1.0000
  Ir  Ir8       1.0  0.04902975999999991  0.10469839500000003  0.5089017808638702  1.0000
  Ir  Ir9       1.0  0.2504681799999999  0.30148747500000006  0.48906887923905235  1.0000
  Ir  Ir10      1.0  0.15046817999999992  0.7014874750000001  0.49941276627229386  1.0000
  Al  Al11      1.0  0.9504681799999999  0.5014874750000001  0.4425213968989622  1.0000
  Al  Al12      1.0  0.8504681799999997  0.9014874750000003  0.45286528393220365  1.0000
  Al  Al13      1.0  0.5504681799999999  0.10148747500000002  0.48389693882559714  1.0000
  Al  Al14      1.0  0.7504681799999997  0.30148747500000006  0.4632091678622796  1.0000
  Al  Al15      1.0  0.6504681799999998  0.7014874750000001  0.47355305179235563  1.0000
  Ir  Ir11      1.0  0.9504681799999999  0.5014874750000001  0.4683811113789004  1.0000
  Ir  Ir12      1.0  0.8504681799999997  0.9014874750000003  0.47872499530897633  1.0000
  Ir  Ir13      1.0  0.5504681799999999  0.10148747500000002  0.4580372243456589  1.0000
  Ir  Ir14      1.0  0.7504681799999997  0.30148747500000006  0.43734945648550694  1.0000
  Ir  Ir15      1.0  0.6504681799999998  0.7014874750000001  0.4476933404155829  1.0000
  Al  Al16      1.0  0.9504681799999999  0.5014874750000001  0.4942408227556731  1.0000
  Al  Al17      1.0  0.8504681799999997  0.9014874750000003  0.5045847066857491  1.0000
  Al  Al18      1.0  0.5504679099999997  0.09763212500000003  0.5340537501843238  1.0000
  Al  Al19      1.0  0.7503862499999997  0.300626335  0.5167189122942516  1.0000
  Al  Al20      1.0  0.6552026399999998  0.6808218950000001  0.5267238653864165  1.0000
  Ir  Ir16      1.0  0.9509702399999999  0.501386915  0.5198257612410269  1.0000
  Ir  Ir17      1.0  0.8503815699999997  0.902367875  0.5288530806647682  1.0000
  Ir  Ir18      1.0  0.5494291099999999  0.10530632500000002  0.5088941098387805  1.0000
  Ir  Ir19      1.0  0.7504681799999997  0.30148747500000006  0.48906887923905235  1.0000
  Ir  Ir20      1.0  0.6504681799999998  0.7014874750000001  0.49941276627229386  1.0000
