data_image0
_chemical_formula_structural       COSb8Os4Sb8Os4Sb8Os4Sb8Os4
_chemical_formula_sum              "C1 O1 Sb32 Os16"
_cell_length_a       14.870434621257004
_cell_length_b       6.53824312
_cell_length_c       106.25371114000001
_cell_angle_alpha    90.0
_cell_angle_beta     66.02557938181198
_cell_angle_gamma    90.0

_space_group_name_H-M_alt    "P 1"
_space_group_IT_number       1

loop_
  _space_group_symop_operation_xyz
  'x, y, z'

loop_
  _atom_site_type_symbol
  _atom_site_label
  _atom_site_symmetry_multiplicity
  _atom_site_fract_x
  _atom_site_fract_y
  _atom_site_fract_z
  _atom_site_occupancy
  C   C1        1.0  0.8328057349999999  0.6248174849999999  0.555267543180458  1.0000
  O   O1        1.0  0.7984108050000001  0.6248168049999999  0.5676687249402602  1.0000
  Sb  Sb1       1.0  0.194935075  0.3748171149999999  0.5111635113489017  1.0000
  Sb  Sb2       1.0  0.698529555  0.37445130499999996  0.5387399801922235  1.0000
  Sb  Sb3       1.0  0.5525778050000001  0.3748171149999999  0.5115098697664815  1.0000
  Sb  Sb4       1.0  0.052571355000000014  0.376686105  0.5399160811567015  1.0000
  Sb  Sb5       1.0  0.444935075  0.12481711499999996  0.489197853021871  1.0000
  Sb  Sb6       1.0  0.942681445  0.12481708499999995  0.5189231347832742  1.0000
  Sb  Sb7       1.0  0.308571545  0.12481710499999996  0.532989602028057  1.0000
  Sb  Sb8       1.0  0.802577805  0.12481711499999996  0.5050422357004516  1.0000
  Os  Os1       1.0  0.373756435  0.3748171149999999  0.5113366905576916  1.0000
  Os  Os2       1.0  0.874653735  0.4120228349999999  0.5393563195234672  1.0000
  Os  Os3       1.0  0.631153175  0.12481709499999996  0.524506553805197  1.0000
  Os  Os4       1.0  0.123756435  0.12481711499999996  0.49712004436116125  1.0000
  Sb  Sb9       1.0  0.194935075  0.3748171149999999  0.4542969299747755  1.0000
  Sb  Sb10      1.0  0.694935075  0.3748171149999999  0.4827302189558412  1.0000
  Sb  Sb11      1.0  0.5525778050000001  0.3748171149999999  0.4546432918043502  1.0000
  Sb  Sb12      1.0  0.052577805000000005  0.3748171149999999  0.48307658078541577  1.0000
  Sb  Sb13      1.0  0.444935075  0.12481711499999996  0.43233127505973973  1.0000
  Sb  Sb14      1.0  0.9449350750000001  0.12481711499999996  0.4607645640408054  1.0000
  Sb  Sb15      1.0  0.302577805  0.12481711499999996  0.476608946719386  1.0000
  Sb  Sb16      1.0  0.802577805  0.12481711499999996  0.44817565773832024  1.0000
  Os  Os5       1.0  0.373756435  0.3748171149999999  0.45447010918356534  1.0000
  Os  Os6       1.0  0.8737564349999999  0.3748171149999999  0.48290340157662587  1.0000
  Os  Os7       1.0  0.6237564349999999  0.12481711499999996  0.4686867553800957  1.0000
  Os  Os8       1.0  0.123756435  0.12481711499999996  0.44025346639902996  1.0000
  Sb  Sb17      1.0  0.194935075  0.8748171149999999  0.5111635113489017  1.0000
  Sb  Sb18      1.0  0.698529545  0.875182915  0.5387399801922235  1.0000
  Sb  Sb19      1.0  0.5525778050000001  0.8748171149999999  0.5115098697664815  1.0000
  Sb  Sb20      1.0  0.052571385000000005  0.8729481649999999  0.5399160845686964  1.0000
  Sb  Sb21      1.0  0.444935075  0.6248171149999999  0.489197853021871  1.0000
  Sb  Sb22      1.0  0.947428645  0.624817135  0.5171062168367553  1.0000
  Sb  Sb23      1.0  0.309649945  0.6248171049999999  0.5329282475373079  1.0000
  Sb  Sb24      1.0  0.802577805  0.6248171149999999  0.5050422357004516  1.0000
  Os  Os9       1.0  0.373756435  0.8748171149999999  0.5113366905576916  1.0000
  Os  Os10      1.0  0.874653735  0.8376114349999999  0.5393563195234672  1.0000
  Os  Os11      1.0  0.630062065  0.624817135  0.5245434374691386  1.0000
  Os  Os12      1.0  0.123756435  0.6248171149999999  0.49712004436116125  1.0000
  Sb  Sb25      1.0  0.194935075  0.8748171149999999  0.4542969299747755  1.0000
  Sb  Sb26      1.0  0.694935075  0.8748171149999999  0.4827302189558412  1.0000
  Sb  Sb27      1.0  0.5525778050000001  0.8748171149999999  0.4546432918043502  1.0000
  Sb  Sb28      1.0  0.052577805000000005  0.8748171149999999  0.48307658078541577  1.0000
  Sb  Sb29      1.0  0.444935075  0.6248171149999999  0.43233127505973973  1.0000
  Sb  Sb30      1.0  0.9449350750000001  0.6248171149999999  0.4607645640408054  1.0000
  Sb  Sb31      1.0  0.302577805  0.6248171149999999  0.476608946719386  1.0000
  Sb  Sb32      1.0  0.802577805  0.6248171149999999  0.44817565773832024  1.0000
  Os  Os13      1.0  0.373756435  0.8748171149999999  0.45447010918356534  1.0000
  Os  Os14      1.0  0.8737564349999999  0.8748171149999999  0.48290340157662587  1.0000
  Os  Os15      1.0  0.6237564349999999  0.6248171149999999  0.4686867553800957  1.0000
  Os  Os16      1.0  0.123756435  0.6248171149999999  0.44025346639902996  1.0000
