data_image0
_chemical_formula_structural       COAg2Au6Ag2Au6
_chemical_formula_sum              "C1 O1 Ag4 Au12"
_cell_length_a       5.908072901030224
_cell_length_b       4.89718464
_cell_length_c       34.55156261
_cell_angle_alpha    90.0
_cell_angle_beta     60.000000005768314
_cell_angle_gamma    90.0

_space_group_name_H-M_alt    "P 1"
_space_group_IT_number       1

loop_
  _space_group_symop_operation_xyz
  'x, y, z'

loop_
  _atom_site_type_symbol
  _atom_site_label
  _atom_site_symmetry_multiplicity
  _atom_site_fract_x
  _atom_site_fract_y
  _atom_site_fract_z
  _atom_site_occupancy
  C   C1        1.0  0.12911132500000008  0.749994705  0.6686833994998344  1.0000
  O   O1        1.0  0.055084055000000076  0.749967165  0.7068923679997319  1.0000
  Ag  Ag1       1.0  0.7878722550000001  0.749971135  0.6025778545466355  1.0000
  Ag  Ag2       1.0  0.44124178500000005  0.25005087499999995  0.5501857202226402  1.0000
  Au  Au1       1.0  0.9449159449999999  0.249983675  0.5488787733869188  1.0000
  Au  Au2       1.0  0.942467105  0.24998554499999998  0.46410056459732746  1.0000
  Au  Au3       1.0  0.4440621550000001  0.24998554499999998  0.46410056459732746  1.0000
  Au  Au4       1.0  0.28368712500000004  0.7500163249999999  0.6030455373072281  1.0000
  Au  Au5       1.0  0.27729829500000014  0.7500148050000001  0.5220446683387773  1.0000
  Au  Au6       1.0  0.7725616050000002  0.7500110750000001  0.5214867423498821  1.0000
  Ag  Ag3       1.0  0.7763321250000002  0.749985545  0.4356926508886146  1.0000
  Ag  Ag4       1.0  0.44299878500000006  0.24998554499999998  0.3786950135293121  1.0000
  Au  Au7       1.0  0.942467105  0.24998554499999998  0.3788768337307649  1.0000
  Au  Au8       1.0  0.942467105  0.24998554499999998  0.2931076320002684  1.0000
  Au  Au9       1.0  0.4440621550000001  0.24998554499999998  0.29310763200026846  1.0000
  Au  Au10      1.0  0.2768638050000001  0.749985545  0.4355108204275862  1.0000
  Au  Au11      1.0  0.2768638050000001  0.749985545  0.3502870998205994  1.0000
  Au  Au12      1.0  0.7752687550000001  0.749985545  0.3502870998205994  1.0000
