data_image0
_chemical_formula_structural       COAl36Re6
_chemical_formula_sum              "C1 O1 Al36 Re6"
_cell_length_a       5.080717380261519
_cell_length_b       10.425741632252244
_cell_length_c       109.63676032000001
_cell_angle_alpha    91.56389086274895
_cell_angle_beta     90.06914986673664
_cell_angle_gamma    93.95438591484955

_space_group_name_H-M_alt    "P 1"
_space_group_IT_number       1

loop_
  _space_group_symop_operation_xyz
  'x, y, z'

loop_
  _atom_site_type_symbol
  _atom_site_label
  _atom_site_symmetry_multiplicity
  _atom_site_fract_x
  _atom_site_fract_y
  _atom_site_fract_z
  _atom_site_occupancy
  C   C1        1.0  0.1767834550000001  0.7850418750000002  0.5559829782525987  1.0000
  O   O1        1.0  0.13724577500000007  0.767585905  0.5663420754571152  1.0000
  Al  Al1       1.0  0.8775877150000002  0.7588002850000001  0.501376568530704  1.0000
  Al  Al2       1.0  0.7664765950000001  0.9810225050000001  0.46120678588232566  1.0000
  Al  Al3       1.0  0.011586135000000088  0.5316610250000001  0.5415193920350103  1.0000
  Al  Al4       1.0  0.21207535500000008  0.291902755  0.4953928315891526  1.0000
  Al  Al5       1.0  0.10096424500000009  0.514124985  0.45522305255605444  1.0000
  Al  Al6       1.0  0.31116737500000013  0.077602565  0.5361042916622755  1.0000
  Al  Al7       1.0  0.15651979500000007  0.903013865  0.4753079402649635  1.0000
  Al  Al8       1.0  0.04540868500000007  0.125236095  0.43513816123186516  1.0000
  Al  Al9       1.0  0.27168358500000006  0.6824435350000001  0.5151252511752022  1.0000
  Al  Al10      1.0  0.9412171250000002  0.149703065  0.520964438370551  1.0000
  Al  Al11      1.0  0.8220321550000002  0.36991139500000003  0.4812916772065148  1.0000
  Al  Al12      1.0  0.7109210450000002  0.5921336250000001  0.4411218981734165  1.0000
  Al  Al13      1.0  0.35609642500000005  0.49099268500000004  0.477559254749991  1.0000
  Al  Al14      1.0  0.2449853150000001  0.7132149050000001  0.4373894757168927  1.0000
  Al  Al15      1.0  0.46654441500000005  0.276841035  0.5174245476583691  1.0000
  Al  Al16      1.0  0.6447740250000001  0.9381620850000001  0.48710912572232673  1.0000
  Al  Al17      1.0  0.5336629150000002  0.160384305  0.4469393466892284  1.0000
  Al  Al18      1.0  0.7689147150000002  0.7196344650000001  0.5294839147323025  1.0000
  Al  Al19      1.0  0.3893334850000001  0.7236520750000001  0.4895753830733408  1.0000
  Al  Al20      1.0  0.2782223750000001  0.9458742950000001  0.44940560404024255  1.0000
  Al  Al21      1.0  0.5003709950000002  0.5049763450000001  0.5306033645388002  1.0000
  Al  Al22      1.0  0.6780110850000001  0.170821475  0.4991252540456765  1.0000
  Al  Al23      1.0  0.5668999750000001  0.39304369500000014  0.4589554750125782  1.0000
  Al  Al24      1.0  0.7638948950000001  0.970770635  0.5387693785756512  1.0000
  Al  Al25      1.0  0.44822284500000004  0.161202655  0.4738277035759832  1.0000
  Al  Al26      1.0  0.33711173500000013  0.383424875  0.43365792454288493  1.0000
  Al  Al27      1.0  0.5593339550000002  0.9389804250000001  0.5139974826090813  1.0000
  Al  Al28      1.0  0.6883049750000001  0.279821105  0.5416473548758889  1.0000
  Al  Al29      1.0  0.585884665  0.5006115050000001  0.5028568052196843  1.0000
  Al  Al30      1.0  0.47477355500000007  0.7228337250000001  0.4626870261865861  1.0000
  Al  Al31      1.0  0.15934862500000008  0.018977494999999997  0.49953689345873664  1.0000
  Al  Al32      1.0  0.048237515000000064  0.24119971499999998  0.4593671144256384  1.0000
  Al  Al33      1.0  0.2998267050000001  0.7967799150000001  0.5385037422514136  1.0000
  Al  Al34      1.0  0.9884138649999998  0.42082162500000003  0.5171787917596715  1.0000
  Al  Al35      1.0  0.8747588850000002  0.642836665  0.4771476153369307  1.0000
  Al  Al36      1.0  0.763647775  0.865058885  0.4369778363038324  1.0000
  Re  Re1       1.0  0.9499925550000001  0.126641775  0.48007506674600914  1.0000
  Re  Re2       1.0  0.8388814450000002  0.34886400500000003  0.43990528771291093  1.0000
  Re  Re3       1.0  0.058363985000000104  0.903362905  0.5206653787813346  1.0000
  Re  Re4       1.0  0.08411495500000007  0.535172375  0.49660944204965823  1.0000
  Re  Re5       1.0  0.9730038450000001  0.7573946050000001  0.45643966301656  1.0000
  Re  Re6       1.0  0.18922866500000005  0.314667425  0.535992763884955  1.0000
