data_image0
_chemical_formula_structural       COPd12V6
_chemical_formula_sum              "C1 O1 Pd12 V6"
_cell_length_a       4.803231021433587
_cell_length_b       7.235851655020339
_cell_length_c       41.80638191
_cell_angle_alpha    89.63361143278168
_cell_angle_beta     89.88030353765305
_cell_angle_gamma    82.34774782389322

_space_group_name_H-M_alt    "P 1"
_space_group_IT_number       1

loop_
  _space_group_symop_operation_xyz
  'x, y, z'

loop_
  _atom_site_type_symbol
  _atom_site_label
  _atom_site_symmetry_multiplicity
  _atom_site_fract_x
  _atom_site_fract_y
  _atom_site_fract_z
  _atom_site_occupancy
  C   C1        1.0  0.10102025999999999  0.5404822450000001  0.5887084403934357  1.0000
  O   O1        1.0  0.16594615000000001  0.5061920550000001  0.6156120656207866  1.0000
  Pd  Pd1       1.0  0.61833423  0.221754155  0.5184671501959828  1.0000
  Pd  Pd2       1.0  0.2368576  0.6736848850000001  0.5498190964146115  1.0000
  Pd  Pd3       1.0  0.7905911600000001  0.496674385  0.5581486408798765  1.0000
  Pd  Pd4       1.0  0.16075253  0.042880395  0.5278872704411901  1.0000
  Pd  Pd5       1.0  0.42710348  0.31818390500000004  0.45605822049208883  1.0000
  Pd  Pd6       1.0  0.029304460000000004  0.7673686850000001  0.487198517562977  1.0000
  Pd  Pd7       1.0  0.5715744500000001  0.5887893850000001  0.4968151942082622  1.0000
  Pd  Pd8       1.0  0.97069554  0.14150985500000002  0.46598708367660435  1.0000
  Pd  Pd9       1.0  0.24528529999999993  0.40909299500000007  0.3947504476767532  1.0000
  Pd  Pd10      1.0  0.8361943900000001  0.8636384450000001  0.42540433071249356  1.0000
  Pd  Pd11      1.0  0.37978645  0.6869644050000001  0.4353332006408642  1.0000
  Pd  Pd12      1.0  0.7888773600000001  0.232418955  0.4046793108612687  1.0000
  V   V1        1.0  0.10022790000000001  0.40469699499999995  0.506615897170892  1.0000
  V   V2        1.0  0.67782759  0.8667629750000001  0.5310696889082306  1.0000
  V   V3        1.0  0.9034449600000001  0.502574155  0.44569570719454893  1.0000
  V   V4        1.0  0.4943540599999999  0.9571196050000002  0.47634959697414425  1.0000
  V   V5        1.0  0.7216267799999999  0.593483245  0.38438793437921337  1.0000
  V   V6        1.0  0.31253587  0.048028694999999996  0.4150418241588087  1.0000
