data_image0
_chemical_formula_structural       COSi20V24
_chemical_formula_sum              "C1 O1 Si20 V24"
_cell_length_a       9.158750345672482
_cell_length_b       4.85755295
_cell_length_c       104.01979152999999
_cell_angle_alpha    90.0
_cell_angle_beta     87.22852051076505
_cell_angle_gamma    105.37803190927957

_space_group_name_H-M_alt    "P 1"
_space_group_IT_number       1

loop_
  _space_group_symop_operation_xyz
  'x, y, z'

loop_
  _atom_site_type_symbol
  _atom_site_label
  _atom_site_symmetry_multiplicity
  _atom_site_fract_x
  _atom_site_fract_y
  _atom_site_fract_z
  _atom_site_occupancy
  C   C1        1.0  0.6010827400000002  0.52435592  0.5661573046261242  1.0000
  O   O1        1.0  0.63073101  0.6509236499999999  0.5757959105719875  1.0000
  Si  Si1       1.0  0.96608177  0.7336428899999998  0.5064306299823149  1.0000
  Si  Si2       1.0  0.96608177  0.2336428899999998  0.5064306299823149  1.0000
  Si  Si3       1.0  0.3015469  0.13896387999999993  0.5426693583487814  1.0000
  Si  Si4       1.0  0.23788761000000003  0.61977279  0.5328387177843242  1.0000
  Si  Si5       1.0  0.3892083  0.19520614999999988  0.507194968122429  1.0000
  Si  Si6       1.0  0.5429552400000001  0.7720796200000001  0.5056662918422008  1.0000
  Si  Si7       1.0  0.89991604  0.9467518699999998  0.5381154099545393  1.0000
  Si  Si8       1.0  0.6186009  0.82459427  0.5427366000634175  1.0000
  Si  Si9       1.0  0.7049660000000001  0.35004816999999994  0.5294047102360517  1.0000
  Si  Si10      1.0  0.82302181  0.3880021799999998  0.5510433425648196  1.0000
  Si  Si11      1.0  0.36608177000000003  0.9336428899999997  0.44102040173707086  1.0000
  Si  Si12      1.0  0.36608177000000003  0.43364288999999995  0.44102040173707086  1.0000
  Si  Si13      1.0  0.70472726  0.3529656299999999  0.47921242996246527  1.0000
  Si  Si14      1.0  0.6274362800000001  0.81432014  0.4682386017569205  1.0000
  Si  Si15      1.0  0.7892083  0.39520614999999987  0.4417847398771851  1.0000
  Si  Si16      1.0  0.9429552399999999  0.9720796199999997  0.44025606359695674  1.0000
  Si  Si17      1.0  0.30431679  0.15276039999999988  0.47200124664445425  1.0000
  Si  Si18      1.0  0.027846749999999986  0.014525369999999885  0.4754497883454429  1.0000
  Si  Si19      1.0  0.10001172000000001  0.55060786  0.4636489688126592  1.0000
  Si  Si20      1.0  0.23215181999999998  0.6166779099999998  0.4838020629067265  1.0000
  V   V1        1.0  0.4702803400000001  0.9793197800000001  0.525964632618598  1.0000
  V   V2        1.0  0.07667355999999999  0.30811627999999985  0.5497319492512877  1.0000
  V   V3        1.0  0.07329984999999999  0.7585492099999999  0.5498852806378288  1.0000
  V   V4        1.0  0.47214500000000015  0.48789736999999994  0.526572290368485  1.0000
  V   V5        1.0  0.14479456999999998  0.0728598299999999  0.5224416475368433  1.0000
  V   V6        1.0  0.7819920599999999  0.8915980299999998  0.4896143176732566  1.0000
  V   V7        1.0  0.6910903800000001  0.34614718999999994  0.5044790700354582  1.0000
  V   V8        1.0  0.24107317  0.62113858  0.5083821931996829  1.0000
  V   V9        1.0  0.5558738099999999  0.3046450899999999  0.5501841661347726  1.0000
  V   V10       1.0  0.97215325  0.48620969999999986  0.527559690468961  1.0000
  V   V11       1.0  0.1716136  0.0864087999999999  0.49413806289460627  1.0000
  V   V12       1.0  0.7605499500000001  0.8808769700000001  0.518723200340535  1.0000
  V   V13       1.0  0.86241828  0.18181113999999993  0.46131133153460796  1.0000
  V   V14       1.0  0.46974526  0.4854746299999999  0.48613970345528923  1.0000
  V   V15       1.0  0.46974526  0.98547463  0.48613970345528923  1.0000
  V   V16       1.0  0.86241828  0.68181114  0.46131133153460796  1.0000
  V   V17       1.0  0.5501714800000002  0.27568773999999996  0.45783671404612925  1.0000
  V   V18       1.0  0.18199206  0.0915980299999999  0.4242040894280126  1.0000
  V   V19       1.0  0.09109037999999998  0.5461471899999999  0.43906884179021427  1.0000
  V   V20       1.0  0.64107317  0.82113858  0.4429719649544389  1.0000
  V   V21       1.0  0.9630381100000001  0.48212104999999983  0.48561120843413613  1.0000
  V   V22       1.0  0.36912544  0.68516472  0.461839826555761  1.0000
  V   V23       1.0  0.5716136000000002  0.28640879999999996  0.4287278346493623  1.0000
  V   V24       1.0  0.16054995  0.0808769699999999  0.4533129720952909  1.0000
