data_image0
_chemical_formula_structural       COCo18Pt6Co18Pt6
_chemical_formula_sum              "C1 O1 Co36 Pt12"
_cell_length_a       5.181681816523345
_cell_length_b       9.726947814361399
_cell_length_c       109.70474703
_cell_angle_alpha    83.72805151505224
_cell_angle_beta     113.04886495272811
_cell_angle_gamma    74.55239678275963

_space_group_name_H-M_alt    "P 1"
_space_group_IT_number       1

loop_
  _space_group_symop_operation_xyz
  'x, y, z'

loop_
  _atom_site_type_symbol
  _atom_site_label
  _atom_site_symmetry_multiplicity
  _atom_site_fract_x
  _atom_site_fract_y
  _atom_site_fract_z
  _atom_site_occupancy
  C   C1        1.0  0.34047353999999996  0.8138852350000001  0.552918833621815  1.0000
  O   O1        1.0  0.43122809999999995  0.7824881549999999  0.5650071971172518  1.0000
  Co  Co1       1.0  0.3207221399999999  0.02459129500000001  0.4386807727269138  1.0000
  Co  Co2       1.0  0.3207221399999999  0.35792463500000005  0.458787642471204  1.0000
  Co  Co3       1.0  0.32072213999999993  0.691257965  0.4788945158347312  1.0000
  Co  Co4       1.0  0.84584958  0.8495488250000001  0.45979811170270074  1.0000
  Co  Co5       1.0  0.84584958  0.18288215500000002  0.47990498144699084  1.0000
  Co  Co6       1.0  0.84584958  0.5162154849999999  0.4396912383391736  1.0000
  Co  Co7       1.0  0.84584958  0.02459129500000001  0.4386807727269138  1.0000
  Co  Co8       1.0  0.84584958  0.35792463500000005  0.45878764247120407  1.0000
  Co  Co9       1.0  0.84584958  0.691257965  0.47889451583473114  1.0000
  Co  Co10      1.0  0.6875587199999998  0.9634518750000001  0.4762170152220621  1.0000
  Co  Co11      1.0  0.6875587199999997  0.29678520500000005  0.4360032721142447  1.0000
  Co  Co12      1.0  0.6875587199999998  0.630118535  0.456110141858535  1.0000
  Co  Co13      1.0  0.1624312799999999  0.13849434500000002  0.4550996762462753  1.0000
  Co  Co14      1.0  0.1624312799999999  0.471827685  0.47520654599056544  1.0000
  Co  Co15      1.0  0.16243127999999996  0.8051610149999999  0.4349928028827482  1.0000
  Co  Co16      1.0  0.16243127999999984  0.9634518750000001  0.4762170152220621  1.0000
  Co  Co17      1.0  0.1624312799999999  0.29678520500000005  0.4360032721142448  1.0000
  Co  Co18      1.0  0.16243127999999984  0.630118535  0.456110141858535  1.0000
  Pt  Pt1       1.0  0.6708070999999999  0.132910475  0.45577332119419406  1.0000
  Pt  Pt2       1.0  0.6708071  0.46624380499999996  0.47588019093848427  1.0000
  Pt  Pt3       1.0  0.6708071  0.7995771449999999  0.43566644783066694  1.0000
  Pt  Pt4       1.0  0.33747375999999984  0.855132695  0.4591244667547819  1.0000
  Pt  Pt5       1.0  0.33747375999999984  0.188466025  0.4792313364990722  1.0000
  Pt  Pt6       1.0  0.33747375999999984  0.521799365  0.43901759339125485  1.0000
  Co  Co19      1.0  0.3207221399999999  0.02459129500000001  0.49900138557902135  1.0000
  Co  Co20      1.0  0.32809288999999986  0.35982318500000005  0.5194223001297408  1.0000
  Co  Co21      1.0  0.3183387499999999  0.698669875  0.5394515046690528  1.0000
  Co  Co22      1.0  0.8419549599999999  0.8535797049999999  0.5199633579524826  1.0000
  Co  Co23      1.0  0.8241386899999998  0.195581535  0.538618247753906  1.0000
  Co  Co24      1.0  0.84584958  0.5162154849999999  0.500011854810518  1.0000
  Co  Co25      1.0  0.84584958  0.02459129500000001  0.49900138557902135  1.0000
  Co  Co26      1.0  0.8401101899999999  0.36130072500000004  0.5193330787012901  1.0000
  Co  Co27      1.0  0.8377092599999999  0.695462915  0.5383937790611453  1.0000
  Co  Co28      1.0  0.6678171999999999  0.975408705  0.5359595165038828  1.0000
  Co  Co29      1.0  0.6875587199999997  0.29678520500000005  0.49632388496635227  1.0000
  Co  Co30      1.0  0.6787957099999998  0.634066835  0.5161585627599087  1.0000
  Co  Co31      1.0  0.1657983399999999  0.13902987500000002  0.5156420144095614  1.0000
  Co  Co32      1.0  0.15415041999999998  0.48306527499999996  0.5351298281563351  1.0000
  Co  Co33      1.0  0.16243127999999996  0.8051610149999999  0.4953134193540927  1.0000
  Co  Co34      1.0  0.16955708999999994  0.964684445  0.5372743635600062  1.0000
  Co  Co35      1.0  0.1624312799999999  0.29678520500000005  0.4963238849663523  1.0000
  Co  Co36      1.0  0.16147977999999985  0.6342154550000001  0.5160197179741042  1.0000
  Pt  Pt7       1.0  0.6711513699999999  0.133765615  0.5158668993145674  1.0000
  Pt  Pt8       1.0  0.6684651099999998  0.47440530499999994  0.5366520212953704  1.0000
  Pt  Pt9       1.0  0.6708071  0.7995771449999999  0.49598706430201134  1.0000
  Pt  Pt10      1.0  0.3348841799999999  0.8589979349999999  0.5195490494257724  1.0000
  Pt  Pt11      1.0  0.33042826999999986  0.194659235  0.5395722641279886  1.0000
  Pt  Pt12      1.0  0.33747375999999984  0.521799365  0.49933820986259925  1.0000
