data_image0
_chemical_formula_structural       COV6Sn6Rh12V6Sn6Rh12
_chemical_formula_sum              "C1 O1 V12 Sn12 Rh24"
_cell_length_a       7.3926424
_cell_length_b       9.174054152618362
_cell_length_c       104.8130878
_cell_angle_alpha    71.56505117707799
_cell_angle_beta     90.0
_cell_angle_gamma    90.0

_space_group_name_H-M_alt    "P 1"
_space_group_IT_number       1

loop_
  _space_group_symop_operation_xyz
  'x, y, z'

loop_
  _atom_site_type_symbol
  _atom_site_label
  _atom_site_symmetry_multiplicity
  _atom_site_fract_x
  _atom_site_fract_y
  _atom_site_fract_z
  _atom_site_occupancy
  C   C1        1.0  0.8739397400000001  0.50077854  0.5533601770586672  1.0000
  O   O1        1.0  0.8699869199999999  0.49277719999999997  0.5647450433344743  1.0000
  V   V1        1.0  0.63270663  0.6735833800000001  0.46293366495454213  1.0000
  V   V2        1.0  0.63270663  0.34025004  0.4444811927618647  1.0000
  V   V3        1.0  0.63270663  0.006916710000000022  0.481386133825775  1.0000
  V   V4        1.0  0.13270663  0.6735833800000001  0.4352549566655259  1.0000
  V   V5        1.0  0.13270663  0.34025004  0.4721598977294363  1.0000
  V   V6        1.0  0.13270663  0.006916710000000022  0.4537074288582034  1.0000
  Sn  Sn1       1.0  0.63270663  0.6735833800000001  0.4352549566655259  1.0000
  Sn  Sn2       1.0  0.63270663  0.34025004  0.4721598977294363  1.0000
  Sn  Sn3       1.0  0.63270663  0.006916710000000022  0.4537074288582034  1.0000
  Sn  Sn4       1.0  0.13270663  0.6735833800000001  0.46293366495454213  1.0000
  Sn  Sn5       1.0  0.13270663  0.34025004  0.4444811927618647  1.0000
  Sn  Sn6       1.0  0.13270663  0.006916710000000022  0.481386133825775  1.0000
  Rh  Rh1       1.0  0.88270663  0.8402500399999999  0.4444811927618647  1.0000
  Rh  Rh2       1.0  0.88270663  0.5069167099999999  0.48138613382577494  1.0000
  Rh  Rh3       1.0  0.88270663  0.17358338  0.4629336649545422  1.0000
  Rh  Rh4       1.0  0.88270663  0.5069167099999999  0.4537074288582034  1.0000
  Rh  Rh5       1.0  0.88270663  0.17358338  0.4352549566655259  1.0000
  Rh  Rh6       1.0  0.88270663  0.8402500399999999  0.47215989772943623  1.0000
  Rh  Rh7       1.0  0.38270663  0.5069167099999999  0.4537074288582034  1.0000
  Rh  Rh8       1.0  0.38270663  0.17358338  0.4352549566655259  1.0000
  Rh  Rh9       1.0  0.38270663  0.8402500399999999  0.47215989772943623  1.0000
  Rh  Rh10      1.0  0.38270663  0.8402500399999999  0.4444811927618647  1.0000
  Rh  Rh11      1.0  0.38270663  0.5069167099999999  0.48138613382577494  1.0000
  Rh  Rh12      1.0  0.38270663  0.17358338  0.4629336649545422  1.0000
  V   V7        1.0  0.63180729  0.66681654  0.5189970645740507  1.0000
  V   V8        1.0  0.63270663  0.34025004  0.49983860601845254  1.0000
  V   V9        1.0  0.6331450799999999  0.9797566400000001  0.5344325688760662  1.0000
  V   V10       1.0  0.13270663  0.6735833800000001  0.4906123699221137  1.0000
  V   V11       1.0  0.11397294999999999  0.31400461  0.5263877241695947  1.0000
  V   V12       1.0  0.13222198999999998  0.9943272900000001  0.5101825082660885  1.0000
  Sn  Sn7       1.0  0.63270663  0.6735833800000001  0.4906123699221137  1.0000
  Sn  Sn8       1.0  0.63991238  0.30021722  0.5310466449405765  1.0000
  Sn  Sn9       1.0  0.6327140099999999  0.006434180000000067  0.5080814619738862  1.0000
  Sn  Sn10      1.0  0.14146472  0.6587857699999999  0.5202181804428764  1.0000
  Sn  Sn11      1.0  0.13270663  0.34025004  0.49983860601845254  1.0000
  Sn  Sn12      1.0  0.13127047  0.99356582  0.5387663301724164  1.0000
  Rh  Rh13      1.0  0.88270663  0.8402500399999999  0.4998386060184526  1.0000
  Rh  Rh14      1.0  0.8686373700000001  0.5096250800000001  0.5352499000306361  1.0000
  Rh  Rh15      1.0  0.88602705  0.17099921  0.5182694522844997  1.0000
  Rh  Rh16      1.0  0.8710834999999999  0.50327965  0.508821038107351  1.0000
  Rh  Rh17      1.0  0.88270663  0.17358338  0.4906123699221137  1.0000
  Rh  Rh18      1.0  0.87665515  0.8517414099999999  0.5270344858515531  1.0000
  Rh  Rh19      1.0  0.39434646  0.5032435000000001  0.5088211078576902  1.0000
  Rh  Rh20      1.0  0.38270663  0.17358338  0.4906123699221137  1.0000
  Rh  Rh21      1.0  0.38703736  0.8633345099999999  0.5267237248398215  1.0000
  Rh  Rh22      1.0  0.38270663  0.8402500399999999  0.4998386060184526  1.0000
  Rh  Rh23      1.0  0.45134868999999994  0.54045108  0.5340950104482614  1.0000
  Rh  Rh24      1.0  0.38037745  0.17984950000000002  0.5186668066817602  1.0000
