data_image0
_chemical_formula_structural       COFe6Si12
_chemical_formula_sum              "C1 O1 Fe6 Si12"
_cell_length_a       5.8324891895675535
_cell_length_b       6.07522415659311
_cell_length_c       98.44456452
_cell_angle_alpha    87.55179484489015
_cell_angle_beta     86.45018251952355
_cell_angle_gamma    65.37691528044239

_space_group_name_H-M_alt    "P 1"
_space_group_IT_number       1

loop_
  _space_group_symop_operation_xyz
  'x, y, z'

loop_
  _atom_site_type_symbol
  _atom_site_label
  _atom_site_symmetry_multiplicity
  _atom_site_fract_x
  _atom_site_fract_y
  _atom_site_fract_z
  _atom_site_occupancy
  C   C1        1.0  0.598982785  0.65921472  0.5342898726783851  1.0000
  O   O1        1.0  0.592314995  0.66373298  0.5462264661604038  1.0000
  Fe  Fe1       1.0  0.477739605  0.5264608000000001  0.4805881494070816  1.0000
  Fe  Fe2       1.0  0.394406265  0.7764608000000001  0.4565098208791969  1.0000
  Fe  Fe3       1.0  0.43607293499999994  0.15146080000000003  0.46854898514313925  1.0000
  Fe  Fe4       1.0  0.617148375  0.65271924  0.5162331329702107  1.0000
  Fe  Fe5       1.0  0.514592585  0.89963908  0.4925685317338579  1.0000
  Fe  Fe6       1.0  0.570893055  0.26590761  0.5040899185519582  1.0000
  Si  Si1       1.0  0.7182608049999999  0.7366916300000002  0.47128527218273986  1.0000
  Si  Si2       1.0  0.7599274749999998  0.11169163000000003  0.4833244364466822  1.0000
  Si  Si3       1.0  0.676594145  0.36169163000000004  0.4592461108081968  1.0000
  Si  Si4       1.0  0.153885065  0.56622996  0.4658126981035386  1.0000
  Si  Si5       1.0  0.19555172499999993  0.9412299600000001  0.47785185947808173  1.0000
  Si  Si6       1.0  0.112218395  0.19122996000000003  0.45377353383959623  1.0000
  Si  Si7       1.0  0.8389765649999998  0.8643386900000002  0.5086669089045429  1.0000
  Si  Si8       1.0  0.887781605  0.25861964000000004  0.5167865511550884  1.0000
  Si  Si9       1.0  0.8039364749999999  0.4943261100000001  0.4946233886467698  1.0000
  Si  Si10      1.0  0.2867101749999999  0.6802123400000001  0.503547497420406  1.0000
  Si  Si11      1.0  0.346321345  0.058770040000000016  0.5145212159580211  1.0000
  Si  Si12      1.0  0.2428570649999999  0.31365611000000004  0.48985451329383145  1.0000
