data_image0
_chemical_formula_structural       CORe12Ir4Re12Ir4
_chemical_formula_sum              "C1 O1 Re24 Ir8"
_cell_length_a       5.51951035
_cell_length_b       8.755913514149299
_cell_length_c       103.11706212
_cell_angle_alpha    108.3721381178636
_cell_angle_beta     90.0
_cell_angle_gamma    71.62786188213641

_space_group_name_H-M_alt    "P 1"
_space_group_IT_number       1

loop_
  _space_group_symop_operation_xyz
  'x, y, z'

loop_
  _atom_site_type_symbol
  _atom_site_label
  _atom_site_symmetry_multiplicity
  _atom_site_fract_x
  _atom_site_fract_y
  _atom_site_fract_z
  _atom_site_occupancy
  C   C1        1.0  0.41963503999999996  0.29590897999999993  0.5484255078804067  1.0000
  O   O1        1.0  0.3981750299999999  0.33873143999999994  0.5608700449152939  1.0000
  Re  Re1       1.0  0.6874999999999999  0.26039306999999995  0.4525116173465511  1.0000
  Re  Re2       1.0  0.18749999999999986  0.26039306999999995  0.47927493865864257  1.0000
  Re  Re3       1.0  0.18749999999999986  0.26039306999999995  0.4525116173465511  1.0000
  Re  Re4       1.0  0.6874999999999999  0.26039306999999995  0.47927493865864257  1.0000
  Re  Re5       1.0  0.062499999999999875  0.010393070000000008  0.45920244687167433  1.0000
  Re  Re6       1.0  0.5624999999999999  0.010393070000000008  0.48596576818376586  1.0000
  Re  Re7       1.0  0.9374999999999999  0.7603930699999999  0.46589327639679745  1.0000
  Re  Re8       1.0  0.43749999999999994  0.7603930699999999  0.4391299550847059  1.0000
  Re  Re9       1.0  0.43749999999999994  0.7603930699999999  0.46589327639679745  1.0000
  Re  Re10      1.0  0.9374999999999999  0.7603930699999999  0.4391299550847059  1.0000
  Re  Re11      1.0  0.8124999999999997  0.51039307  0.44582078460982916  1.0000
  Re  Re12      1.0  0.3124999999999998  0.51039307  0.4725841091335194  1.0000
  Ir  Ir1       1.0  0.062499999999999875  0.010393070000000008  0.48596576818376586  1.0000
  Ir  Ir2       1.0  0.5624999999999999  0.010393070000000008  0.45920244687167433  1.0000
  Ir  Ir3       1.0  0.8124999999999997  0.51039307  0.4725841091335194  1.0000
  Ir  Ir4       1.0  0.3124999999999998  0.51039307  0.44582078460982916  1.0000
  Re  Re13      1.0  0.6874999999999999  0.26039306999999995  0.506038259970734  1.0000
  Re  Re14      1.0  0.17853738999999988  0.25751361999999994  0.5320391670243815  1.0000
  Re  Re15      1.0  0.18749999999999986  0.26039306999999995  0.506038259970734  1.0000
  Re  Re16      1.0  0.6992125299999998  0.25744148  0.5320431526183508  1.0000
  Re  Re17      1.0  0.06335204999999987  0.008526350000000007  0.5127571235407866  1.0000
  Re  Re18      1.0  0.5699771899999998  0.99551172  0.5379081837733646  1.0000
  Re  Re19      1.0  0.9370552399999997  0.7601131199999998  0.519764976395394  1.0000
  Re  Re20      1.0  0.43749999999999994  0.7603930699999999  0.49265660092048763  1.0000
  Re  Re21      1.0  0.43789986999999997  0.7600695999999999  0.5197615431963987  1.0000
  Re  Re22      1.0  0.9374999999999999  0.7603930699999999  0.49265660092048763  1.0000
  Re  Re23      1.0  0.8124999999999997  0.51039307  0.4993474304456109  1.0000
  Re  Re24      1.0  0.3204115499999999  0.49457523999999997  0.5249992688380862  1.0000
  Ir  Ir5       1.0  0.06553571999999988  0.0044882799999999  0.5381728773138603  1.0000
  Ir  Ir6       1.0  0.5607272699999998  0.013787920000000007  0.5131579214219928  1.0000
  Ir  Ir7       1.0  0.8148286899999999  0.5057724399999999  0.5252406044213392  1.0000
  Ir  Ir8       1.0  0.3124999999999998  0.51039307  0.4993474304456109  1.0000
