data_image0
_chemical_formula_structural       COV4Pt4V4Pt4V4Pt4V4Pt4
_chemical_formula_sum              "C1 O1 V16 Pt16"
_cell_length_a       8.307213366148252
_cell_length_b       7.66547698
_cell_length_c       100.66190792
_cell_angle_alpha    90.0
_cell_angle_beta     76.66245621095734
_cell_angle_gamma    76.66245628184033

_space_group_name_H-M_alt    "P 1"
_space_group_IT_number       1

loop_
  _space_group_symop_operation_xyz
  'x, y, z'

loop_
  _atom_site_type_symbol
  _atom_site_label
  _atom_site_symmetry_multiplicity
  _atom_site_fract_x
  _atom_site_fract_y
  _atom_site_fract_z
  _atom_site_occupancy
  C   C1        1.0  0.8819684150000001  0.5108287100000001  0.5375187145208205  1.0000
  O   O1        1.0  0.9022120450000001  0.49581731000000023  0.5486925475705325  1.0000
  V   V1        1.0  0.102459455  0.4684651900000001  0.49427734633594556  1.0000
  V   V2        1.0  0.6026147850000001  0.0934880600000001  0.5034955983808387  1.0000
  V   V3        1.0  0.6020510950000001  0.34772213  0.5199510109738894  1.0000
  V   V4        1.0  0.11190236500000003  0.20421514000000007  0.5117806172338603  1.0000
  Pt  Pt1       1.0  0.8402473250000001  0.03380171000000006  0.5173386025763613  1.0000
  Pt  Pt2       1.0  0.34778795500000004  0.15625000000000008  0.48938281349897966  1.0000
  Pt  Pt3       1.0  0.3616421150000001  0.40155999000000003  0.5086284037813487  1.0000
  Pt  Pt4       1.0  0.8552174050000001  0.28808687000000005  0.49917397484078474  1.0000
  V   V5        1.0  0.09778795500000002  0.46875000000000006  0.4560668725631564  1.0000
  V   V6        1.0  0.597787955  0.09375000000000007  0.4655857128305345  1.0000
  V   V7        1.0  0.597787955  0.34375000000000006  0.48462339336529064  1.0000
  V   V8        1.0  0.09778795500000002  0.21875000000000008  0.47510455309791255  1.0000
  Pt  Pt5       1.0  0.847787955  0.031250000000000035  0.4798639732316016  1.0000
  Pt  Pt6       1.0  0.34778795500000004  0.15625000000000008  0.4513074524294674  1.0000
  Pt  Pt7       1.0  0.34778795500000004  0.4062500000000001  0.47034513296422353  1.0000
  Pt  Pt8       1.0  0.847787955  0.28125  0.46082629269684544  1.0000
  V   V9        1.0  0.09798395500000003  0.96857581  0.4949235187196129  1.0000
  V   V10       1.0  0.597859075  0.5928500600000001  0.5038127996448655  1.0000
  V   V11       1.0  0.598879905  0.8385175500000001  0.5199399051525725  1.0000
  V   V12       1.0  0.11173643500000004  0.72346149  0.5118237916472843  1.0000
  Pt  Pt9       1.0  0.843851015  0.53467662  0.5199329906670024  1.0000
  Pt  Pt10      1.0  0.34778795500000004  0.6562500100000002  0.48938281349897966  1.0000
  Pt  Pt11      1.0  0.358019755  0.9049446600000001  0.508811119824049  1.0000
  Pt  Pt12      1.0  0.8536148650000001  0.7708519300000002  0.4992441766685102  1.0000
  V   V13       1.0  0.09778795500000002  0.96875  0.4560668725631564  1.0000
  V   V14       1.0  0.597787955  0.59375  0.4655857128305345  1.0000
  V   V15       1.0  0.597787955  0.84375  0.48462339336529064  1.0000
  V   V16       1.0  0.09778795500000002  0.7187500000000001  0.47510455309791255  1.0000
  Pt  Pt13      1.0  0.847787955  0.5312500100000002  0.4798639732316016  1.0000
  Pt  Pt14      1.0  0.34778795500000004  0.6562500100000002  0.4513074524294674  1.0000
  Pt  Pt15      1.0  0.34778795500000004  0.9062500000000001  0.47034513296422353  1.0000
  Pt  Pt16      1.0  0.847787955  0.7812500100000002  0.46082629269684544  1.0000
