data_image0
_chemical_formula_structural       COAu3In3Pd6
_chemical_formula_sum              "C1 O1 Au3 In3 Pd6"
_cell_length_a       4.63560578
_cell_length_b       4.635605782243025
_cell_length_c       35.93539359
_cell_angle_alpha    90.0
_cell_angle_beta     90.0
_cell_angle_gamma    119.99999998399376

_space_group_name_H-M_alt    "P 1"
_space_group_IT_number       1

loop_
  _space_group_symop_operation_xyz
  'x, y, z'

loop_
  _atom_site_type_symbol
  _atom_site_label
  _atom_site_symmetry_multiplicity
  _atom_site_fract_x
  _atom_site_fract_y
  _atom_site_fract_z
  _atom_site_occupancy
  C   C1        1.0  0.499980515  0.8332505149999999  0.6658956268635132  1.0000
  O   O1        1.0  0.4998477150000001  0.8333892150000001  0.697901313101035  1.0000
  Au  Au1       1.0  0.16664016500000003  0.166622415  0.48642040975055906  1.0000
  Au  Au2       1.0  0.833359835  0.499908255  0.5890093487105965  1.0000
  Au  Au3       1.0  0.499973495  0.833289085  0.38109371504082074  1.0000
  In  In1       1.0  0.500015175  0.833262105  0.5412913061681601  1.0000
  In  In2       1.0  0.16664016500000003  0.166622415  0.3284303629462503  1.0000
  In  In3       1.0  0.833306835  0.499955745  0.43375705765598854  1.0000
  Pd  Pd1       1.0  0.499973495  0.833289085  0.30209868689896513  1.0000
  Pd  Pd2       1.0  0.16664016500000003  0.166622415  0.40742538160870334  1.0000
  Pd  Pd3       1.0  0.8332957350000001  0.500032985  0.5124696659556262  1.0000
  Pd  Pd4       1.0  0.833306835  0.499955745  0.3547620389935355  1.0000
  Pd  Pd5       1.0  0.499973495  0.833289085  0.4600887337032738  1.0000
  Pd  Pd6       1.0  0.16668143500000004  0.16661078499999998  0.5639033973395159  1.0000
