data_image0
_chemical_formula_structural       COIr12Sn12
_chemical_formula_sum              "C1 O1 Ir12 Sn12"
_cell_length_a       9.029536974339111
_cell_length_b       6.984967637287321
_cell_length_c       101.07389896000001
_cell_angle_alpha    85.58838283558167
_cell_angle_beta     88.39448815145315
_cell_angle_gamma    97.16009858140055

_space_group_name_H-M_alt    "P 1"
_space_group_IT_number       1

loop_
  _space_group_symop_operation_xyz
  'x, y, z'

loop_
  _atom_site_type_symbol
  _atom_site_label
  _atom_site_symmetry_multiplicity
  _atom_site_fract_x
  _atom_site_fract_y
  _atom_site_fract_z
  _atom_site_occupancy
  C   C1        1.0  0.17583890500000005  0.28451735499999997  0.5396724966439822  1.0000
  O   O1        1.0  0.20695967500000004  0.305102445  0.5504615487497622  1.0000
  Ir  Ir1       1.0  0.903962595  0.7949515049999999  0.5193365502960635  1.0000
  Ir  Ir2       1.0  0.5830311450000001  0.406801835  0.5074523722738666  1.0000
  Ir  Ir3       1.0  0.236572615  0.02533196499999998  0.49456657235287704  1.0000
  Ir  Ir4       1.0  0.06944444500000004  0.338259765  0.48796812904012127  1.0000
  Ir  Ir5       1.0  0.7398280950000001  0.10602360499999998  0.5120606071357432  1.0000
  Ir  Ir6       1.0  0.399282015  0.7216077049999999  0.5019208044527909  1.0000
  Ir  Ir7       1.0  0.902777775  0.650759765  0.48156318069222454  1.0000
  Ir  Ir8       1.0  0.5694444450000001  0.275759765  0.4687532901451796  1.0000
  Ir  Ir9       1.0  0.23611110500000002  0.9007597649999999  0.45594339652376054  1.0000
  Ir  Ir10      1.0  0.06944444500000004  0.21325976499999996  0.4495384512502381  1.0000
  Ir  Ir11      1.0  0.7361111050000001  0.963259765  0.47515823541870206  1.0000
  Ir  Ir12      1.0  0.40277777500000006  0.588259765  0.4623483417972829  1.0000
  Sn  Sn1       1.0  0.929503025  0.9746680349999999  0.495258610916143  1.0000
  Sn  Sn2       1.0  0.6124194450000001  0.742330945  0.5192249043961483  1.0000
  Sn  Sn3       1.0  0.28831524500000005  0.35406395500000004  0.505590180765641  1.0000
  Sn  Sn4       1.0  0.888785715  0.472166135  0.5068066337864019  1.0000
  Sn  Sn5       1.0  0.5448879950000001  0.08608594499999998  0.4928665079693112  1.0000
  Sn  Sn6       1.0  0.18833612500000005  0.8073765549999999  0.5180039935327637  1.0000
  Sn  Sn7       1.0  0.9305555549999999  0.8486764349999999  0.45701088689028524  1.0000
  Sn  Sn8       1.0  0.5972222150000001  0.5986764350000001  0.48263067413312344  1.0000
  Sn  Sn9       1.0  0.263888885  0.22367643499999998  0.4698207805117043  1.0000
  Sn  Sn10      1.0  0.8749999950000001  0.327843095  0.46768579977865493  1.0000
  Sn  Sn11      1.0  0.541666665  0.952843095  0.45487590615723583  1.0000
  Sn  Sn12      1.0  0.20833333500000004  0.702843095  0.48049569032569983  1.0000
