data_image0
_chemical_formula_structural       COFe8Sb24
_chemical_formula_sum              "C1 O1 Fe8 Sb24"
_cell_length_a       7.98154425
_cell_length_b       7.981544245580745
_cell_length_c       109.10142153000001
_cell_angle_alpha    90.0
_cell_angle_beta     90.0
_cell_angle_gamma    109.47122064570675

_space_group_name_H-M_alt    "P 1"
_space_group_IT_number       1

loop_
  _space_group_symop_operation_xyz
  'x, y, z'

loop_
  _atom_site_type_symbol
  _atom_site_label
  _atom_site_symmetry_multiplicity
  _atom_site_fract_x
  _atom_site_fract_y
  _atom_site_fract_z
  _atom_site_occupancy
  C   C1        1.0  0.6678124699999998  0.7700681499999998  0.5528358206281573  1.0000
  O   O1        1.0  0.6122573199999999  0.77919744  0.5627013642238504  1.0000
  Fe  Fe1       1.0  0.7509637399999998  0.7572126699999999  0.5380463074197707  1.0000
  Fe  Fe2       1.0  0.25287444999999986  0.25797505  0.47739142436438603  1.0000
  Fe  Fe3       1.0  0.5028744499999998  0.007975049999999994  0.447525162145863  1.0000
  Fe  Fe4       1.0  0.002874449999999884  0.50797505  0.5072576901668607  1.0000
  Fe  Fe5       1.0  0.25550998999999985  0.25755490999999997  0.5367897632335968  1.0000
  Fe  Fe6       1.0  0.7528744499999999  0.7579750499999999  0.47739142436438603  1.0000
  Fe  Fe7       1.0  0.002874449999999884  0.50797505  0.447525162145863  1.0000
  Fe  Fe8       1.0  0.5028744499999998  0.007975049999999994  0.5072576901668607  1.0000
  Sb  Sb1       1.0  0.9306557499999998  0.08450832999999998  0.5357548147754433  1.0000
  Sb  Sb2       1.0  0.4172717999999998  0.5935776999999999  0.47795169993556025  1.0000
  Sb  Sb3       1.0  0.006229159999999869  0.6682878099999999  0.5473361142770459  1.0000
  Sb  Sb4       1.0  0.5086233499999998  0.18281116999999997  0.4874914336583296  1.0000
  Sb  Sb5       1.0  0.5921079299999998  0.7569160199999998  0.4379854284230936  1.0000
  Sb  Sb6       1.0  0.09210792999999991  0.25691601999999997  0.49771795644409134  1.0000
  Sb  Sb7       1.0  0.7575643199999998  0.25328517999999994  0.4372986357761497  1.0000
  Sb  Sb8       1.0  0.2575643199999998  0.7532851799999999  0.4970311637971473  1.0000
  Sb  Sb9       1.0  0.6777105699999999  0.013723949999999993  0.4672914186543941  1.0000
  Sb  Sb10      1.0  0.1753263599999999  0.51678096  0.5271919049836232  1.0000
  Sb  Sb11      1.0  0.3123413699999998  0.99202495  0.5453915087250583  1.0000
  Sb  Sb12      1.0  0.8280383299999998  0.5022261499999999  0.4874914336583296  1.0000
  Sb  Sb13      1.0  0.2539334799999999  0.41874156999999995  0.4379854284230936  1.0000
  Sb  Sb14      1.0  0.7539334799999998  0.91874157  0.49771795644409134  1.0000
  Sb  Sb15      1.0  0.49836415999999983  0.8349248799999999  0.5270770285826814  1.0000
  Sb  Sb16      1.0  0.9971255499999999  0.33313892999999994  0.4672914186543941  1.0000
  Sb  Sb17      1.0  0.5701102299999998  0.43980484999999997  0.53480011457778  1.0000
  Sb  Sb18      1.0  0.08847709999999985  0.9223723999999999  0.47683114879321187  1.0000
  Sb  Sb19      1.0  0.9136409699999999  0.7590340799999998  0.5167974203056784  1.0000
  Sb  Sb20      1.0  0.41364096999999994  0.25903408  0.4570648958686324  1.0000
  Sb  Sb21      1.0  0.24818457999999982  0.76266492  0.45775168851557635  1.0000
  Sb  Sb22      1.0  0.74818458  0.26266491999999997  0.5174842129526225  1.0000
  Sb  Sb23      1.0  0.2518154199999999  0.09720852999999999  0.5167974203056784  1.0000
  Sb  Sb24      1.0  0.7518154199999998  0.59720853  0.4570648958686324  1.0000
