data_image0
_chemical_formula_structural       COPt4W2Pt4W2Pt4W2Pt4W2Pt4W2Pt4W2
_chemical_formula_sum              "C1 O1 Pt24 W12"
_cell_length_a       7.94629896
_cell_length_b       8.37981646
_cell_length_c       100.90976251000001
_cell_angle_alpha    90.0
_cell_angle_beta     90.0
_cell_angle_gamma    90.0

_space_group_name_H-M_alt    "P 1"
_space_group_IT_number       1

loop_
  _space_group_symop_operation_xyz
  'x, y, z'

loop_
  _atom_site_type_symbol
  _atom_site_label
  _atom_site_symmetry_multiplicity
  _atom_site_fract_x
  _atom_site_fract_y
  _atom_site_fract_z
  _atom_site_occupancy
  C   C1        1.0  0.25764501500000003  0.5814954999999998  0.5344199945588174  1.0000
  O   O1        1.0  0.257644935  0.58149555  0.5461839237617405  1.0000
  Pt  Pt1       1.0  0.25764471499999997  0.24448625999999998  0.4538160762382594  1.0000
  Pt  Pt2       1.0  0.007644715000000003  0.41850457999999996  0.46773929834733996  1.0000
  Pt  Pt3       1.0  0.007644715000000003  0.74448626  0.46773929834733996  1.0000
  Pt  Pt4       1.0  0.25764471499999997  0.91850458  0.4538160762382594  1.0000
  W   W1        1.0  0.007644715000000003  0.08149541999999997  0.46773929834733996  1.0000
  W   W2        1.0  0.25764471499999997  0.58149542  0.4538160762382594  1.0000
  Pt  Pt5       1.0  0.25764471499999997  0.24448625999999998  0.4816625235195297  1.0000
  Pt  Pt6       1.0  0.010575255000000004  0.4182906799999999  0.4956257192040822  1.0000
  Pt  Pt7       1.0  0.010575275000000004  0.7447001299999999  0.4956257222671914  1.0000
  Pt  Pt8       1.0  0.25764471499999997  0.91850458  0.4816625235195297  1.0000
  W   W3        1.0  0.012666065000000004  0.08149544999999997  0.49592968684867705  1.0000
  W   W4        1.0  0.25764471499999997  0.58149542  0.4816625235195297  1.0000
  Pt  Pt9       1.0  0.257644665  0.24810151  0.5120772163573551  1.0000
  Pt  Pt10      1.0  0.9966528350000001  0.41350349  0.5233784506584125  1.0000
  Pt  Pt11      1.0  0.9966528450000001  0.74948746  0.5233784475953033  1.0000
  Pt  Pt12      1.0  0.257644655  0.91488939  0.5120772010418089  1.0000
  W   W5        1.0  0.003347155000000004  0.08149543999999997  0.5206667106867952  1.0000
  W   W6        1.0  0.257644625  0.5814954399999999  0.5141145485063482  1.0000
  Pt  Pt13      1.0  0.7576447150000001  0.24448625999999998  0.4538160762382594  1.0000
  Pt  Pt14      1.0  0.5076447150000001  0.41850457999999996  0.46773929834733996  1.0000
  Pt  Pt15      1.0  0.5076447150000001  0.74448626  0.46773929834733996  1.0000
  Pt  Pt16      1.0  0.7576447150000001  0.91850458  0.4538160762382594  1.0000
  W   W7        1.0  0.5076447150000001  0.08149541999999997  0.46773929834733996  1.0000
  W   W8        1.0  0.7576447150000001  0.58149542  0.4538160762382594  1.0000
  Pt  Pt17      1.0  0.7576447150000001  0.24448625999999998  0.4816625235195297  1.0000
  Pt  Pt18      1.0  0.504714185  0.4182906699999999  0.49562570388853605  1.0000
  Pt  Pt19      1.0  0.504714185  0.7447001599999999  0.49562570388853605  1.0000
  Pt  Pt20      1.0  0.7576447150000001  0.91850458  0.4816625235195297  1.0000
  W   W9        1.0  0.502623355  0.08149543999999997  0.49592968378556795  1.0000
  W   W10       1.0  0.7576447150000001  0.58149542  0.4816625235195297  1.0000
  Pt  Pt21      1.0  0.7576447450000001  0.24707933  0.5106283442490575  1.0000
  Pt  Pt22      1.0  0.5186365350000001  0.4135034999999999  0.5233784292166479  1.0000
  Pt  Pt23      1.0  0.5186365150000001  0.74948744  0.5233784230904295  1.0000
  Pt  Pt24      1.0  0.7576447450000001  0.9159115499999999  0.5106283289335113  1.0000
  W   W11       1.0  0.5119422550000001  0.08149542999999998  0.5206667137499045  1.0000
  W   W12       1.0  0.7576447550000001  0.58149543  0.5103231115403499  1.0000
