data_image0
_chemical_formula_structural       COAl10Cu30
_chemical_formula_sum              "C1 O1 Al10 Cu30"
_cell_length_a       10.073302749698472
_cell_length_b       9.737793155090621
_cell_length_c       102.74077593999999
_cell_angle_alpha    78.4178086044035
_cell_angle_beta     83.48450392799577
_cell_angle_gamma    41.12967222630934

_space_group_name_H-M_alt    "P 1"
_space_group_IT_number       1

loop_
  _space_group_symop_operation_xyz
  'x, y, z'

loop_
  _atom_site_type_symbol
  _atom_site_label
  _atom_site_symmetry_multiplicity
  _atom_site_fract_x
  _atom_site_fract_y
  _atom_site_fract_z
  _atom_site_occupancy
  C   C1        1.0  0.5666053300000002  0.7122360499999998  0.5394882356297371  1.0000
  O   O1        1.0  0.5377469600000001  0.7058080399999999  0.5507927364840373  1.0000
  Al  Al1       1.0  0.53535843  0.9453668399999999  0.49741962951582436  1.0000
  Al  Al2       1.0  0.33337342000000003  0.7494276999999998  0.4811062197438255  1.0000
  Al  Al3       1.0  0.13337342000000005  0.5494277  0.4651725382816958  1.0000
  Al  Al4       1.0  0.7275939799999999  0.14492080999999998  0.5137922456614002  1.0000
  Al  Al5       1.0  0.9333734200000001  0.34942769999999984  0.44923885681956616  1.0000
  Al  Al6       1.0  0.8666265799999999  0.44954796  0.4837554460390718  1.0000
  Al  Al7       1.0  0.66662658  0.24954796  0.467821764576942  1.0000
  Al  Al8       1.0  0.46662657999999996  0.049547959999999995  0.4518880831148123  1.0000
  Al  Al9       1.0  0.06382310000000012  0.6494440699999999  0.4991161204484604  1.0000
  Al  Al10      1.0  0.25874816000000017  0.8519160999999998  0.5147786775735667  1.0000
  Cu  Cu1       1.0  0.8329768600000002  0.75002254  0.4810746264402224  1.0000
  Cu  Cu2       1.0  0.6329768600000001  0.55002254  0.46514094497809266  1.0000
  Cu  Cu3       1.0  0.43297686000000013  0.35002253999999994  0.4492072635159631  1.0000
  Cu  Cu4       1.0  0.02952296999999996  0.9510468899999999  0.49656933497807043  1.0000
  Cu  Cu5       1.0  0.22984664000000002  0.14724624999999994  0.5128170406211922  1.0000
  Cu  Cu6       1.0  0.5689764800000002  0.64863406  0.49935481337023563  1.0000
  Cu  Cu7       1.0  0.3670231400000001  0.44895311000000004  0.48378703934267475  1.0000
  Cu  Cu8       1.0  0.16702314000000007  0.2489531099999999  0.46785335788054516  1.0000
  Cu  Cu9       1.0  0.7634308700000001  0.8484720299999998  0.5156994882119994  1.0000
  Cu  Cu10      1.0  0.96702314  0.048953109999999994  0.45191967641841535  1.0000
  Cu  Cu11      1.0  0.8820804700000002  0.5397974400000001  0.5053669259932078  1.0000
  Cu  Cu12      1.0  0.68430898  0.34851918000000004  0.489068752007423  1.0000
  Cu  Cu13      1.0  0.48430897999999994  0.14851918000000006  0.4731350705452933  1.0000
  Cu  Cu14      1.0  0.0724662000000001  0.7565939499999998  0.5195764365312657  1.0000
  Cu  Cu15      1.0  0.28430898  0.9485191799999999  0.4572013890831636  1.0000
  Cu  Cu16      1.0  0.18312139000000005  0.34931090999999986  0.48913182707885905  1.0000
  Cu  Cu17      1.0  0.9831213899999999  0.14931091000000007  0.47319814561672924  1.0000
  Cu  Cu18      1.0  0.7831213900000001  0.9493109099999999  0.45726446415459965  1.0000
  Cu  Cu19      1.0  0.3820948100000001  0.5380182099999998  0.5054867504645394  1.0000
  Cu  Cu20      1.0  0.5822912499999999  0.74282901  0.5209990465999853  1.0000
  Cu  Cu21      1.0  0.5156910199999999  0.85045647  0.4757929169622105  1.0000
  Cu  Cu22      1.0  0.31569102000000004  0.6504564700000001  0.4598592355000808  1.0000
  Cu  Cu23      1.0  0.11030404000000019  0.46060934999999986  0.5214361903376351  1.0000
  Cu  Cu24      1.0  0.71569102  0.05045647000000013  0.49172659842434013  1.0000
  Cu  Cu25      1.0  0.91818844  0.2407548600000001  0.5080186347560258  1.0000
  Cu  Cu26      1.0  0.81687861  0.6496647400000001  0.4597961572419085  1.0000
  Cu  Cu27      1.0  0.6091650599999999  0.4549669499999999  0.5215623787213426  1.0000
  Cu  Cu28      1.0  0.42021382  0.23923370000000002  0.5078788613155037  1.0000
  Cu  Cu29      1.0  0.01687861000000005  0.8496647399999999  0.4757298387040382  1.0000
  Cu  Cu30      1.0  0.21687860999999997  0.049664739999999916  0.4916635201661679  1.0000
