data_image0
_chemical_formula_structural       COAu24Ga12
_chemical_formula_sum              "C1 O1 Au24 Ga12"
_cell_length_a       9.263960839487986
_cell_length_b       9.796642803965
_cell_length_c       99.38992841
_cell_angle_alpha    91.78691265060979
_cell_angle_beta     97.3578264176114
_cell_angle_gamma    97.35782640510561

_space_group_name_H-M_alt    "P 1"
_space_group_IT_number       1

loop_
  _space_group_symop_operation_xyz
  'x, y, z'

loop_
  _atom_site_type_symbol
  _atom_site_label
  _atom_site_symmetry_multiplicity
  _atom_site_fract_x
  _atom_site_fract_y
  _atom_site_fract_z
  _atom_site_occupancy
  C   C1        1.0  0.504499165  0.22458618500000002  0.5387245260921656  1.0000
  O   O1        1.0  0.49547352499999997  0.18614702500000002  0.5494787164180986  1.0000
  Au  Au1       1.0  0.14573319499999998  0.21776832500000004  0.45828932610393475  1.0000
  Au  Au2       1.0  0.14573319499999998  0.46776832500000004  0.48293126560472316  1.0000
  Au  Au3       1.0  0.16113300499999994  0.765522735  0.5144964617813341  1.0000
  Au  Au4       1.0  0.802858375  0.327406285  0.5126354294956524  1.0000
  Au  Au5       1.0  0.800444395  0.674607225  0.45403503110245796  1.0000
  Au  Au6       1.0  0.800444395  0.9246072249999999  0.4786769735602791  1.0000
  Au  Au7       1.0  0.312248665  0.053476535000000026  0.47858646469854993  1.0000
  Au  Au8       1.0  0.29995475499999996  0.32037207500000003  0.5027451806747868  1.0000
  Au  Au9       1.0  0.3122486649999999  0.8034765349999999  0.4539445222407288  1.0000
  Au  Au10      1.0  0.633928925  0.468686565  0.4702289051488378  1.0000
  Au  Au11      1.0  0.690513855  0.769784115  0.5100820020521163  1.0000
  Au  Au12      1.0  0.692258715  0.04906290500000002  0.513937375578801  1.0000
  Au  Au13      1.0  0.271295615  0.044855545000000024  0.5128532001805075  1.0000
  Au  Au14      1.0  0.32772627499999996  0.503416365  0.4592602412296867  1.0000
  Au  Au15      1.0  0.3277262749999999  0.753416365  0.4839021807304752  1.0000
  Au  Au16      1.0  0.6184513150000001  0.16475699500000004  0.4751632260397225  1.0000
  Au  Au17      1.0  0.575511225  0.49628185500000005  0.5101939523591014  1.0000
  Au  Au18      1.0  0.618451315  0.9147569949999999  0.4505212835819013  1.0000
  Au  Au19      1.0  0.038536464999999964  0.16904889500000003  0.48605736977380953  1.0000
  Au  Au20      1.0  0.10523550499999997  0.481461655  0.5165009988716329  1.0000
  Au  Au21      1.0  0.04365753499999994  0.9188106249999999  0.46059963221992106  1.0000
  Au  Au22      1.0  0.902520055  0.40116843500000005  0.45886068399283014  1.0000
  Au  Au23      1.0  0.902520055  0.6511684350000001  0.48350262349361856  1.0000
  Au  Au24      1.0  0.961463535  0.9551444549999999  0.5151308399545073  1.0000
  Ga  Ga1       1.0  0.391504055  0.32679863500000006  0.47824066336202575  1.0000
  Ga  Ga2       1.0  0.340722365  0.609787675  0.5056039661164433  1.0000
  Ga  Ga3       1.0  0.391504055  0.07679863500000002  0.45359872090420456  1.0000
  Ga  Ga4       1.0  0.558062075  0.9392029249999999  0.49056918980988956  1.0000
  Ga  Ga5       1.0  0.518575945  0.222626495  0.5156787988423943  1.0000
  Ga  Ga6       1.0  0.5546735349999999  0.722194825  0.4679300989336378  1.0000
  Ga  Ga7       1.0  0.849263375  0.35883255500000005  0.48595715001617346  1.0000
  Ga  Ga8       1.0  0.874498625  0.6001774550000001  0.5085874052782444  1.0000
  Ga  Ga9       1.0  0.8543912850000001  0.11762864500000003  0.46098063998965705  1.0000
  Ga  Ga10      1.0  0.08184347499999997  0.896443805  0.49079247240399265  1.0000
  Ga  Ga11      1.0  0.048892574999999966  0.21229279500000003  0.5130638178028782  1.0000
  Ga  Ga12      1.0  0.09178630499999997  0.647303015  0.4639055772133881  1.0000
