data_image0
_chemical_formula_structural       COGa6Co12Ni6Ga6Co12Ni6
_chemical_formula_sum              "C1 O1 Ga12 Co24 Ni12"
_cell_length_a       7.21359162
_cell_length_b       10.140807121963222
_cell_length_c       101.95222462
_cell_angle_alpha    72.18576459261634
_cell_angle_beta     90.0
_cell_angle_gamma    90.0

_space_group_name_H-M_alt    "P 1"
_space_group_IT_number       1

loop_
  _space_group_symop_operation_xyz
  'x, y, z'

loop_
  _atom_site_type_symbol
  _atom_site_label
  _atom_site_symmetry_multiplicity
  _atom_site_fract_x
  _atom_site_fract_y
  _atom_site_fract_z
  _atom_site_occupancy
  C   C1        1.0  0.377844895  0.250707055  0.5333443758237698  1.0000
  O   O1        1.0  0.377973965  0.21892696500000006  0.5457004436014389  1.0000
  Ga  Ga1       1.0  0.127970885  0.7093068650000001  0.4673580531990934  1.0000
  Ga  Ga2       1.0  0.12982103500000003  0.040747535000000036  0.519478152558677  1.0000
  Ga  Ga3       1.0  0.12197030500000001  0.37309028499999997  0.49369397509320395  1.0000
  Ga  Ga4       1.0  0.378148835  0.704929875  0.5066430281184665  1.0000
  Ga  Ga5       1.0  0.37797088500000003  0.042640195000000033  0.4804165499996257  1.0000
  Ga  Ga6       1.0  0.37797088500000003  0.375973525  0.4542995563985612  1.0000
  Co  Co1       1.0  0.37797088500000003  0.792640195  0.48041654999962563  1.0000
  Co  Co2       1.0  0.37797088500000003  0.12597352500000003  0.45429955639856107  1.0000
  Co  Co3       1.0  0.37797199500000006  0.46035812500000006  0.5055858227488693  1.0000
  Co  Co4       1.0  0.12301586500000002  0.6229274650000001  0.49357820996130874  1.0000
  Co  Co5       1.0  0.127970885  0.959306865  0.46735805319909335  1.0000
  Co  Co6       1.0  0.182226195  0.28663889500000006  0.5201425249461892  1.0000
  Co  Co7       1.0  0.12959832500000001  0.7977650850000001  0.5180783183774378  1.0000
  Co  Co8       1.0  0.12210903500000002  0.12644768500000003  0.49327713537252116  1.0000
  Co  Co9       1.0  0.127970885  0.45930686500000006  0.46735805319909335  1.0000
  Co  Co10      1.0  0.3779077050000001  0.9547419550000001  0.5065346154420217  1.0000
  Co  Co11      1.0  0.37797088500000003  0.292640195  0.48041654999962563  1.0000
  Co  Co12      1.0  0.37797088500000003  0.625973525  0.45429955639856107  1.0000
  Ni  Ni1       1.0  0.37797088500000003  0.542640195  0.48041654999962563  1.0000
  Ni  Ni2       1.0  0.37797088500000003  0.8759735250000001  0.45429955639856107  1.0000
  Ni  Ni3       1.0  0.377994035  0.20022180500000006  0.5055038770316225  1.0000
  Ni  Ni4       1.0  0.12603249500000002  0.8756585850000002  0.4932003827578665  1.0000
  Ni  Ni5       1.0  0.127970885  0.209306865  0.46735805319909335  1.0000
  Ni  Ni6       1.0  0.13445732500000002  0.540149175  0.5184609845370673  1.0000
  Ga  Ga7       1.0  0.627970885  0.7093068650000001  0.4673580531990934  1.0000
  Ga  Ga8       1.0  0.6262265950000001  0.04069313500000003  0.5194707217522522  1.0000
  Ga  Ga9       1.0  0.634003725  0.373155045  0.493692768488196  1.0000
  Ga  Ga10      1.0  0.8777948050000001  0.6997806950000001  0.5074196304419026  1.0000
  Ga  Ga11      1.0  0.8779708850000001  0.042640195000000033  0.4804165499996257  1.0000
  Ga  Ga12      1.0  0.8779708850000001  0.375973525  0.4542995563985612  1.0000
  Co  Co13      1.0  0.8779708850000001  0.792640195  0.48041654999962563  1.0000
  Co  Co14      1.0  0.8779708850000001  0.12597352500000003  0.45429955639856107  1.0000
  Co  Co15      1.0  0.878002605  0.44517399500000004  0.5080494594517617  1.0000
  Co  Co16      1.0  0.632847425  0.6228851750000001  0.49358198334424236  1.0000
  Co  Co17      1.0  0.627970885  0.959306865  0.46735805319909335  1.0000
  Co  Co18      1.0  0.5735991250000001  0.28664216500000006  0.5201433178580515  1.0000
  Co  Co19      1.0  0.626274395  0.797569015  0.5181035567933551  1.0000
  Co  Co20      1.0  0.633865675  0.12650181500000005  0.4932728981518183  1.0000
  Co  Co21      1.0  0.627970885  0.45930686500000006  0.46735805319909335  1.0000
  Co  Co22      1.0  0.878029695  0.9537529949999999  0.5068892350868067  1.0000
  Co  Co23      1.0  0.8779708850000001  0.292640195  0.48041654999962563  1.0000
  Co  Co24      1.0  0.8779708850000001  0.625973525  0.45429955639856107  1.0000
  Ni  Ni7       1.0  0.8779708850000001  0.542640195  0.48041654999962563  1.0000
  Ni  Ni8       1.0  0.8779708850000001  0.8759735250000001  0.45429955639856107  1.0000
  Ni  Ni9       1.0  0.8779399150000001  0.20288058500000003  0.5081359620616874  1.0000
  Ni  Ni10      1.0  0.6299414950000001  0.8756443650000002  0.49321935622985996  1.0000
  Ni  Ni11      1.0  0.627970885  0.209306865  0.46735805319909335  1.0000
  Ni  Ni12      1.0  0.621401175  0.540084805  0.5184713519380179  1.0000
