data_image0
_chemical_formula_structural       COFe33Si15
_chemical_formula_sum              "C1 O1 Fe33 Si15"
_cell_length_a       7.86299868
_cell_length_b       7.862998682768243
_cell_length_c       108.52066925
_cell_angle_alpha    90.0
_cell_angle_beta     90.0
_cell_angle_gamma    60.000000011646044

_space_group_name_H-M_alt    "P 1"
_space_group_IT_number       1

loop_
  _space_group_symop_operation_xyz
  'x, y, z'

loop_
  _atom_site_type_symbol
  _atom_site_label
  _atom_site_symmetry_multiplicity
  _atom_site_fract_x
  _atom_site_fract_y
  _atom_site_fract_z
  _atom_site_occupancy
  C   C1        1.0  0.41960056999999995  0.419597345  0.5405708211686653  1.0000
  O   O1        1.0  0.41963485  0.41963950499999997  0.5514529638085833  1.0000
  Fe  Fe1       1.0  0.9172131599999997  0.917224325  0.52167650682837  1.0000
  Fe  Fe2       1.0  0.25093956999999995  0.250935765  0.4930899272411493  1.0000
  Fe  Fe3       1.0  0.58427291  0.584269105  0.4635097959664695  1.0000
  Fe  Fe4       1.0  0.42421873  0.917214905  0.5216783242317082  1.0000
  Fe  Fe5       1.0  0.75677773  0.250935765  0.4930899272411493  1.0000
  Fe  Fe6       1.0  0.09011107  0.584269105  0.4635097959664695  1.0000
  Fe  Fe7       1.0  0.7528856299999999  0.752881825  0.4485470361914166  1.0000
  Fe  Fe8       1.0  0.08622954999999996  0.08621165499999998  0.5065886372914838  1.0000
  Fe  Fe9       1.0  0.41955229  0.41954848499999997  0.4781271674660964  1.0000
  Fe  Fe10      1.0  0.58621896  0.586215155  0.4857812397165278  1.0000
  Fe  Fe11      1.0  0.9195522899999999  0.9195484850000001  0.4562011084418481  1.0000
  Fe  Fe12      1.0  0.24919276  0.24919965499999996  0.5175729094799313  1.0000
  Fe  Fe13      1.0  0.58621896  0.08621515499999997  0.4857812397165278  1.0000
  Fe  Fe14      1.0  0.9195522899999999  0.41954848499999997  0.4562011084418481  1.0000
  Fe  Fe15      1.0  0.24917743000000003  0.760252085  0.5175730763118783  1.0000
  Fe  Fe16      1.0  0.08621895999999996  0.586215155  0.4857812397165278  1.0000
  Fe  Fe17      1.0  0.4195522899999999  0.9195484850000001  0.4562011084418481  1.0000
  Fe  Fe18      1.0  0.76027922  0.24916722499999996  0.5175724160833218  1.0000
  Fe  Fe19      1.0  0.9172153300000001  0.424203275  0.5216791974372184  1.0000
  Fe  Fe20      1.0  0.25093957  0.756773925  0.4930899272411493  1.0000
  Fe  Fe21      1.0  0.58427291  0.09010726499999998  0.4635097959664695  1.0000
  Fe  Fe22      1.0  0.5860909  0.586093165  0.5074826329019374  1.0000
  Fe  Fe23      1.0  0.9214983499999999  0.921494545  0.47847255574152237  1.0000
  Fe  Fe24      1.0  0.2548316799999999  0.25482787500000004  0.4488924209172267  1.0000
  Fe  Fe25      1.0  0.5860982499999999  0.08644194499999998  0.5074783201186249  1.0000
  Fe  Fe26      1.0  0.9214983499999999  0.41565638499999996  0.47847255574152237  1.0000
  Fe  Fe27      1.0  0.2548316799999999  0.7489897150000001  0.4488924209172267  1.0000
  Fe  Fe28      1.0  0.08646756999999991  0.5860845650000001  0.5074828813750499  1.0000
  Fe  Fe29      1.0  0.41566018999999993  0.921494545  0.47847255574152237  1.0000
  Fe  Fe30      1.0  0.7489935200000001  0.25482787500000004  0.4488924209172267  1.0000
  Fe  Fe31      1.0  0.7528856299999999  0.752881825  0.4934353155165752  1.0000
  Fe  Fe32      1.0  0.08621895999999997  0.08621515499999997  0.46385518069227955  1.0000
  Fe  Fe33      1.0  0.41956101000000007  0.41953721499999996  0.5242446326306682  1.0000
  Si  Si1       1.0  0.7528937599999997  0.7528616950000001  0.5160074685267898  1.0000
  Si  Si2       1.0  0.08621895999999997  0.08621515499999997  0.4857812397165278  1.0000
  Si  Si3       1.0  0.41955229  0.41954848499999997  0.4562011084418481  1.0000
  Si  Si4       1.0  0.9195522899999999  0.9195484850000001  0.5005713071286757  1.0000
  Si  Si5       1.0  0.25288563  0.25288182499999995  0.47099117585399597  1.0000
  Si  Si6       1.0  0.59006117  0.590098605  0.5287593003470529  1.0000
  Si  Si7       1.0  0.4195522899999999  0.9195484850000001  0.5005713071286757  1.0000
  Si  Si8       1.0  0.75288563  0.25288182499999995  0.47099117585399597  1.0000
  Si  Si9       1.0  0.07850164999999992  0.5900693550000001  0.5287590234770131  1.0000
  Si  Si10      1.0  0.9195522899999999  0.41954848499999997  0.5005713071286757  1.0000
  Si  Si11      1.0  0.25288563  0.752881825  0.47099117585399597  1.0000
  Si  Si12      1.0  0.5900509800000001  0.07850545499999999  0.528755814624244  1.0000
  Si  Si13      1.0  0.7528856299999999  0.752881825  0.47099117585399597  1.0000
  Si  Si14      1.0  0.08626895999999998  0.08617818499999998  0.5278709699235677  1.0000
  Si  Si15      1.0  0.41955229  0.41954848499999997  0.5005713071286757  1.0000
