data_image0
_chemical_formula_structural       COAu10Sn2
_chemical_formula_sum              "C1 O1 Au10 Sn2"
_cell_length_a       5.235862418932139
_cell_length_b       5.768803792293254
_cell_length_c       100.46522265
_cell_angle_alpha    86.17314715764687
_cell_angle_beta     85.07039121515568
_cell_angle_gamma    63.011713777097256

_space_group_name_H-M_alt    "P 1"
_space_group_IT_number       1

loop_
  _space_group_symop_operation_xyz
  'x, y, z'

loop_
  _atom_site_type_symbol
  _atom_site_label
  _atom_site_symmetry_multiplicity
  _atom_site_fract_x
  _atom_site_fract_y
  _atom_site_fract_z
  _atom_site_occupancy
  C   C1        1.0  0.921970365  0.20300895  0.5434953595874266  1.0000
  O   O1        1.0  0.837107385  0.18264461  0.5543464889718579  1.0000
  Au  Au1       1.0  0.5469663050000001  0.7711267599999999  0.5163566179169167  1.0000
  Au  Au2       1.0  0.9907260950000001  0.23212710000000003  0.524001860196601  1.0000
  Au  Au3       1.0  0.9798876850000001  0.3802047  0.49717961165715757  1.0000
  Au  Au4       1.0  0.4787037050000001  0.30790906  0.5120907562890493  1.0000
  Au  Au5       1.0  0.040714645000000056  0.8342399900000002  0.5043227375995668  1.0000
  Au  Au6       1.0  0.009273904999999916  0.05220330000000002  0.47467998245310455  1.0000
  Au  Au7       1.0  0.43935557500000005  0.49707339  0.4815023547216748  1.0000
  Au  Au8       1.0  0.39256535500000006  0.68423429  0.4531248776764933  1.0000
  Au  Au9       1.0  0.9246630850000002  0.5906538400000001  0.467313616199084  1.0000
  Au  Au10      1.0  0.4951154450000001  0.12910437000000005  0.45994724994506364  1.0000
  Sn  Sn1       1.0  0.5379089549999999  0.9477967  0.48897372137002615  1.0000
  Sn  Sn2       1.0  0.9664803850000002  0.23351098000000003  0.44565351102814205  1.0000
