data_image0
_chemical_formula_structural       COFe14W12
_chemical_formula_sum              "C1 O1 Fe14 W12"
_cell_length_a       4.75382614
_cell_length_b       9.037093266867288
_cell_length_c       98.76510962
_cell_angle_alpha    98.06518982929111
_cell_angle_beta     90.0
_cell_angle_gamma    105.24918154417877

_space_group_name_H-M_alt    "P 1"
_space_group_IT_number       1

loop_
  _space_group_symop_operation_xyz
  'x, y, z'

loop_
  _atom_site_type_symbol
  _atom_site_label
  _atom_site_symmetry_multiplicity
  _atom_site_fract_x
  _atom_site_fract_y
  _atom_site_fract_z
  _atom_site_occupancy
  C   C1        1.0  0.3173810100000001  0.671028815  0.5393205447673769  1.0000
  O   O1        1.0  0.23793377000000013  0.6667989350000001  0.5505098585487658  1.0000
  Fe  Fe1       1.0  0.40680605000000014  0.5480001650000002  0.4948741208220728  1.0000
  Fe  Fe2       1.0  0.2757435900000001  0.7911450950000001  0.49919147166801436  1.0000
  Fe  Fe3       1.0  0.0634410200000001  0.864059995  0.5204916177875031  1.0000
  Fe  Fe4       1.0  0.7886152600000002  0.7951481149999999  0.49908534974871943  1.0000
  Fe  Fe5       1.0  0.03493338000000004  0.30581663500000006  0.49109695288403943  1.0000
  Fe  Fe6       1.0  0.53649519  0.30581663500000006  0.49109695288403943  1.0000
  Fe  Fe7       1.0  0.3250295000000001  0.38809661500000003  0.5138283134316326  1.0000
  Fe  Fe8       1.0  0.8353774799999999  0.40514301500000005  0.45326730647679064  1.0000
  Fe  Fe9       1.0  0.70568833  0.647326545  0.4570444744148239  1.0000
  Fe  Fe10      1.0  0.49207197  0.718531995  0.47778289694755866  1.0000
  Fe  Fe11      1.0  0.20725014000000008  0.647326545  0.4570444744148239  1.0000
  Fe  Fe12      1.0  0.46350481000000004  0.16295949500000004  0.4494901414512341  1.0000
  Fe  Fe13      1.0  0.96506662  0.16295949500000004  0.4494901414512341  1.0000
  Fe  Fe14      1.0  0.75011156  0.23461118500000006  0.47035853035130465  1.0000
  W   W1        1.0  0.17120495000000008  0.07549348500000003  0.5014928846693456  1.0000
  W   W2        1.0  0.2103051700000001  0.15493627500000004  0.5261477381335818  1.0000
  W   W3        1.0  0.90484716  0.5500339150000001  0.5078880372808497  1.0000
  W   W4        1.0  0.4664248800000001  0.6813027150000001  0.5196265801232696  1.0000
  W   W5        1.0  0.76057092  0.25626067500000005  0.5127951879904618  1.0000
  W   W6        1.0  0.6217710900000001  0.977429805  0.5171830382512412  1.0000
  W   W7        1.0  0.5980924599999999  0.9305729949999999  0.4601781801030681  1.0000
  W   W8        1.0  0.64409106  0.022570195000000036  0.48796325010827213  1.0000
  W   W9        1.0  0.33903946000000007  0.41246699500000006  0.46772303877943705  1.0000
  W   W10       1.0  0.9031440599999999  0.540676195  0.4804183914319032  1.0000
  W   W11       1.0  0.19199170000000007  0.11837147500000005  0.47200576901296104  1.0000
  W   W12       1.0  0.050191820000000074  0.834771705  0.47613565828590226  1.0000
