data_image0
_chemical_formula_structural       COIn2Si2Pt10In2Si2Pt10
_chemical_formula_sum              "C1 O1 In4 Si4 Pt20"
_cell_length_a       5.68389669
_cell_length_b       8.223909202164956
_cell_length_c       104.10338011
_cell_angle_alpha    110.21668392881051
_cell_angle_beta     90.0
_cell_angle_gamma    69.78331607118949

_space_group_name_H-M_alt    "P 1"
_space_group_IT_number       1

loop_
  _space_group_symop_operation_xyz
  'x, y, z'

loop_
  _atom_site_type_symbol
  _atom_site_label
  _atom_site_symmetry_multiplicity
  _atom_site_fract_x
  _atom_site_fract_y
  _atom_site_fract_z
  _atom_site_occupancy
  C   C1        1.0  0.8976610899999998  0.46578559499999994  0.5507192473230638  1.0000
  O   O1        1.0  0.8494841899999999  0.561980825  0.5627848869662823  1.0000
  In  In1       1.0  0.05334981999999997  0.15475149500000002  0.4589737062145995  1.0000
  In  In2       1.0  0.55334982  0.15475149500000002  0.48627299819582953  1.0000
  Si  Si1       1.0  0.8033498199999999  0.654751495  0.44532406349989934  1.0000
  Si  Si2       1.0  0.30334982  0.654751495  0.47262335220521456  1.0000
  Pt  Pt1       1.0  0.15483040999999997  0.451790315  0.453433010690166  1.0000
  Pt  Pt2       1.0  0.6548304099999999  0.451790315  0.48073230267139605  1.0000
  Pt  Pt3       1.0  0.95186923  0.8577126749999999  0.4645144050149478  1.0000
  Pt  Pt4       1.0  0.45186923000000007  0.8577126749999999  0.43721511303371774  1.0000
  Pt  Pt5       1.0  0.6548304099999999  0.451790315  0.453433010690166  1.0000
  Pt  Pt6       1.0  0.15483040999999997  0.451790315  0.48073230267139605  1.0000
  Pt  Pt7       1.0  0.45186923000000007  0.8577126749999999  0.4645144050149478  1.0000
  Pt  Pt8       1.0  0.95186923  0.8577126749999999  0.43721511303371774  1.0000
  Pt  Pt9       1.0  0.05334981999999997  0.15475149500000002  0.48627299819582953  1.0000
  Pt  Pt10      1.0  0.55334982  0.15475149500000002  0.4589737062145995  1.0000
  In  In3       1.0  0.059544689999999977  0.14228732500000002  0.5128534791292368  1.0000
  In  In4       1.0  0.5561959199999998  0.14859640500000004  0.5406884486945851  1.0000
  Si  Si3       1.0  0.8033498199999999  0.654751495  0.4999226409105298  1.0000
  Si  Si4       1.0  0.3075835599999999  0.6462762249999999  0.5267835106655018  1.0000
  Pt  Pt11      1.0  0.15483040999999997  0.451790315  0.5080315913767114  1.0000
  Pt  Pt12      1.0  0.65891898  0.446740085  0.5349416129569775  1.0000
  Pt  Pt13      1.0  0.95308413  0.856166305  0.5203912312673874  1.0000
  Pt  Pt14      1.0  0.45186923000000007  0.8577126749999999  0.49181369372026307  1.0000
  Pt  Pt15      1.0  0.6548304099999999  0.451790315  0.5080315913767114  1.0000
  Pt  Pt16      1.0  0.15570040000000002  0.44669370499999994  0.5349475783977841  1.0000
  Pt  Pt17      1.0  0.4518883999999999  0.856238065  0.5203922271454792  1.0000
  Pt  Pt18      1.0  0.95186923  0.8577126749999999  0.49181369372026307  1.0000
  Pt  Pt19      1.0  0.04691586999999995  0.16692268500000004  0.5400575599234267  1.0000
  Pt  Pt20      1.0  0.5547395300000001  0.151948475  0.5132495306737863  1.0000
