data_image0
_chemical_formula_structural       COFe20Si20
_chemical_formula_sum              "C1 O1 Fe20 Si20"
_cell_length_a       6.32500714
_cell_length_b       10.000714391575826
_cell_length_c       100.98608023
_cell_angle_alpha    75.0367825820127
_cell_angle_beta     90.0
_cell_angle_gamma    71.56505118082502

_space_group_name_H-M_alt    "P 1"
_space_group_IT_number       1

loop_
  _space_group_symop_operation_xyz
  'x, y, z'

loop_
  _atom_site_type_symbol
  _atom_site_label
  _atom_site_symmetry_multiplicity
  _atom_site_fract_x
  _atom_site_fract_y
  _atom_site_fract_z
  _atom_site_occupancy
  C   C1        1.0  0.77651055  0.7205116549999999  0.534852707937342  1.0000
  O   O1        1.0  0.7503079  0.670685475  0.5465147729507246  1.0000
  Fe  Fe1       1.0  0.7610816800000001  0.25146333499999995  0.5080077886456424  1.0000
  Fe  Fe2       1.0  0.5741275600000001  0.651527655  0.5211852634277239  1.0000
  Fe  Fe3       1.0  0.96903606  0.8482197349999999  0.49183962222857597  1.0000
  Fe  Fe4       1.0  0.36903606000000005  0.04821973499999998  0.46115610608513535  1.0000
  Fe  Fe5       1.0  0.16903606000000007  0.448219735  0.47649786415685574  1.0000
  Fe  Fe6       1.0  0.59658811  0.548253215  0.49898268341973673  1.0000
  Fe  Fe7       1.0  0.40182667  0.941438025  0.5149262495669847  1.0000
  Fe  Fe8       1.0  0.79642698  0.14821973500000002  0.4841687431927158  1.0000
  Fe  Fe9       1.0  0.19642698000000006  0.348219735  0.4534852270492752  1.0000
  Fe  Fe10      1.0  0.9964269800000001  0.748219735  0.46882698512099547  1.0000
  Fe  Fe11      1.0  0.051076530000000175  0.40586100499999994  0.5036654267575066  1.0000
  Fe  Fe12      1.0  0.8419695799999999  0.804866575  0.5183603732405716  1.0000
  Fe  Fe13      1.0  0.2509487900000001  0.011785184999999974  0.4876573209024024  1.0000
  Fe  Fe14      1.0  0.65094879  0.211785185  0.4569738047589617  1.0000
  Fe  Fe15      1.0  0.45094879000000004  0.6117851849999999  0.4723155628306821  1.0000
  Fe  Fe16      1.0  0.80547061  0.40274155500000003  0.4660321371644992  1.0000
  Fe  Fe17      1.0  0.6054706099999999  0.8027415550000001  0.4813738921678679  1.0000
  Fe  Fe18      1.0  0.011096870000000045  0.9981370650000001  0.5263060661204189  1.0000
  Fe  Fe19      1.0  0.40610981  0.202206205  0.49671777967560865  1.0000
  Fe  Fe20      1.0  0.21521121000000004  0.6045488550000001  0.5118207708981072  1.0000
  Si  Si1       1.0  0.8144324  0.5664209550000001  0.4810314027606749  1.0000
  Si  Si2       1.0  0.6144323999999999  0.9664209549999999  0.49637316083239513  1.0000
  Si  Si3       1.0  0.014432400000000128  0.16642095499999998  0.4656896446889545  1.0000
  Si  Si4       1.0  0.4103429900000001  0.37276457499999993  0.5112902498356355  1.0000
  Si  Si5       1.0  0.21087227000000008  0.7665807649999999  0.5254931155652534  1.0000
  Si  Si6       1.0  0.032829420000000144  0.26642095499999996  0.4887022817965351  1.0000
  Si  Si7       1.0  0.8458507599999998  0.654270655  0.5046872031868412  1.0000
  Si  Si8       1.0  0.23282942000000006  0.8664209549999999  0.47336052372481474  1.0000
  Si  Si9       1.0  0.64598802  0.05606825499999997  0.518867378456271  1.0000
  Si  Si10      1.0  0.43282941999999996  0.466420955  0.45801876565309435  1.0000
  Si  Si11      1.0  0.56915001  0.375382745  0.4859161725054364  1.0000
  Si  Si12      1.0  0.37179828000000004  0.7754452450000001  0.5006585342259978  1.0000
  Si  Si13      1.0  0.7691500100000003  0.975382745  0.47057441443371606  1.0000
  Si  Si14      1.0  0.16593458000000014  0.16845457499999997  0.5167679478463528  1.0000
  Si  Si15      1.0  0.96915001  0.575382745  0.45523265636199567  1.0000
  Si  Si16      1.0  0.7826653699999999  0.414941445  0.5202399227054542  1.0000
  Si  Si17      1.0  0.6054706099999999  0.8027415550000001  0.45870621142217843  1.0000
  Si  Si18      1.0  0.0035730200000001237  0.0018629349999999736  0.5045751439175338  1.0000
  Si  Si19      1.0  0.40547061  0.20274155500000002  0.4740479694938988  1.0000
  Si  Si20      1.0  0.2054706100000001  0.6027415549999999  0.48938972756561916  1.0000
