data_image0
_chemical_formula_structural       CONi24Sb8
_chemical_formula_sum              "C1 O1 Ni24 Sb8"
_cell_length_a       6.320399588914645
_cell_length_b       10.138971864075435
_cell_length_c       103.13578595999999
_cell_angle_alpha    95.72945384197723
_cell_angle_beta     86.83995914767252
_cell_angle_gamma    54.66631736044148

_space_group_name_H-M_alt    "P 1"
_space_group_IT_number       1

loop_
  _space_group_symop_operation_xyz
  'x, y, z'

loop_
  _atom_site_type_symbol
  _atom_site_label
  _atom_site_symmetry_multiplicity
  _atom_site_fract_x
  _atom_site_fract_y
  _atom_site_fract_z
  _atom_site_occupancy
  C   C1        1.0  0.5911394200000001  0.932934685  0.5325953954943469  1.0000
  O   O1        1.0  0.5414854499999998  0.9305620450000001  0.5438046900759066  1.0000
  Ni  Ni1       1.0  0.06052167000000012  0.8585991550000001  0.4966458075551127  1.0000
  Ni  Ni2       1.0  0.8138522699999999  0.6000594850000001  0.5155586646693339  1.0000
  Ni  Ni3       1.0  0.32052835  0.10541227500000001  0.47652773396551107  1.0000
  Ni  Ni4       1.0  0.57052835  0.35541227499999994  0.4564475396544578  1.0000
  Ni  Ni5       1.0  0.9244922899999996  0.570757635  0.4793112215854295  1.0000
  Ni  Ni6       1.0  0.6673586400000001  0.324789935  0.4993088525631378  1.0000
  Ni  Ni7       1.0  0.17449229000000005  0.820757635  0.4592310272743762  1.0000
  Ni  Ni8       1.0  0.41913568  0.067065315  0.5196202711148907  1.0000
  Ni  Ni9       1.0  0.56223568  0.108927535  0.496497647849408  1.0000
  Ni  Ni10      1.0  0.29562678000000003  0.8572231650000001  0.5154220165374238  1.0000
  Ni  Ni11      1.0  0.8113703799999998  0.358421125  0.47627550423514653  1.0000
  Ni  Ni12      1.0  0.061370380000000044  0.608421125  0.45619530992409335  1.0000
  Ni  Ni13      1.0  0.8951385199999999  0.825396185  0.5195659132256829  1.0000
  Ni  Ni14      1.0  0.6836502600000001  0.567748785  0.45948325700474063  1.0000
  Ni  Ni15      1.0  0.17479068000000006  0.071366835  0.4995324495428303  1.0000
  Ni  Ni16      1.0  0.4336502600000002  0.31774878500000003  0.4795634513157939  1.0000
  Ni  Ni17      1.0  0.8112389499999998  0.858552555  0.47628606159810766  1.0000
  Ni  Ni18      1.0  0.5518380700000003  0.6083924949999999  0.4962487883788568  1.0000
  Ni  Ni19      1.0  0.06123895000000007  0.10855255500000002  0.45620586728705437  1.0000
  Ni  Ni20      1.0  0.31492922  0.355309715  0.5159043074636332  1.0000
  Ni  Ni21      1.0  0.18209032000000014  0.571474455  0.5001707780365765  1.0000
  Ni  Ni22      1.0  0.9394783299999999  0.31773039500000005  0.5186239721939534  1.0000
  Ni  Ni23      1.0  0.43378169  0.817617355  0.479552893952833  1.0000
  Ni  Ni24      1.0  0.6837816900000001  0.06761735500000002  0.45947269964177967  1.0000
  Sb  Sb1       1.0  0.6681552599999999  0.821196955  0.4992859964827653  1.0000
  Sb  Sb2       1.0  0.4101683200000001  0.5804245450000001  0.5207812469061651  1.0000
  Sb  Sb3       1.0  0.9284501000000001  0.06943836500000002  0.47941718718043225  1.0000
  Sb  Sb4       1.0  0.1784501  0.319438365  0.459336992869379  1.0000
  Sb  Sb5       1.0  0.3165705400000002  0.606731545  0.47642176837050837  1.0000
  Sb  Sb6       1.0  0.06432431000000001  0.359711675  0.49616267486715765  1.0000
  Sb  Sb7       1.0  0.56657054  0.856731545  0.4563415740594551  1.0000
  Sb  Sb8       1.0  0.8087898600000001  0.11524820500000002  0.5174008120569366  1.0000
