data_image0
_chemical_formula_structural       CONi6Sb2Ni6Sb2
_chemical_formula_sum              "C1 O1 Ni12 Sb4"
_cell_length_a       4.62783351
_cell_length_b       5.3550274
_cell_length_c       100.13303489
_cell_angle_alpha    90.0
_cell_angle_beta     90.0
_cell_angle_gamma    90.0

_space_group_name_H-M_alt    "P 1"
_space_group_IT_number       1

loop_
  _space_group_symop_operation_xyz
  'x, y, z'

loop_
  _atom_site_type_symbol
  _atom_site_label
  _atom_site_symmetry_multiplicity
  _atom_site_fract_x
  _atom_site_fract_y
  _atom_site_fract_z
  _atom_site_occupancy
  C   C1        1.0  0.66983067  0.624928595  0.5364408513695005  1.0000
  O   O1        1.0  0.65863823  0.6249415749999999  0.5480834090288742  1.0000
  Ni  Ni1       1.0  0.68069071  0.6249398349999999  0.47341159104095537  1.0000
  Ni  Ni2       1.0  0.31930929  0.124939835  0.4519165909711257  1.0000
  Ni  Ni3       1.0  0.16839246000000002  0.8748084049999999  0.47341159104095537  1.0000
  Ni  Ni4       1.0  0.83160754  0.875071265  0.4519165909711257  1.0000
  Ni  Ni5       1.0  0.16839246000000002  0.37507126499999993  0.47341159104095537  1.0000
  Ni  Ni6       1.0  0.83160754  0.37480840499999996  0.4519165909711257  1.0000
  Sb  Sb1       1.0  0.32458638  0.6249398349999999  0.4519165909711257  1.0000
  Sb  Sb2       1.0  0.67541362  0.124939835  0.47341159104095537  1.0000
  Ni  Ni7       1.0  0.70221475  0.624901135  0.5188922744951198  1.0000
  Ni  Ni8       1.0  0.31824559  0.124928735  0.4945127971129299  1.0000
  Ni  Ni9       1.0  0.18879890000000002  0.8742862149999999  0.5155553128056399  1.0000
  Ni  Ni10      1.0  0.8241389  0.872517845  0.4954314190615866  1.0000
  Ni  Ni11      1.0  0.1887908  0.37556580500000003  0.5155557371169498  1.0000
  Ni  Ni12      1.0  0.82413247  0.37734271499999994  0.4954329447767221  1.0000
  Sb  Sb3       1.0  0.32466842  0.6249476049999999  0.4946426333644484  1.0000
  Sb  Sb4       1.0  0.68712845  0.12499142499999999  0.5169071144714674  1.0000
