data_image0
_chemical_formula_structural       COIr10W10
_chemical_formula_sum              "C1 O1 Ir10 W10"
_cell_length_a       7.154405188864202
_cell_length_b       7.393100185766913
_cell_length_c       98.74538405999999
_cell_angle_alpha    81.12048976584833
_cell_angle_beta     84.7231290278086
_cell_angle_gamma    54.158514679422524

_space_group_name_H-M_alt    "P 1"
_space_group_IT_number       1

loop_
  _space_group_symop_operation_xyz
  'x, y, z'

loop_
  _atom_site_type_symbol
  _atom_site_label
  _atom_site_symmetry_multiplicity
  _atom_site_fract_x
  _atom_site_fract_y
  _atom_site_fract_z
  _atom_site_occupancy
  C   C1        1.0  0.3678893249999998  0.753955425  0.5350926501850546  1.0000
  O   O1        1.0  0.3983251249999999  0.7460444250000001  0.5469133978055611  1.0000
  Ir  Ir1       1.0  0.7265913449999998  0.7956267150000002  0.4821972126129811  1.0000
  Ir  Ir2       1.0  0.5194453849999998  0.6067490750000001  0.49601726240172805  1.0000
  Ir  Ir3       1.0  0.3200133949999999  0.400534075  0.5100643138194577  1.0000
  Ir  Ir4       1.0  0.9265913449999996  0.9956267150000001  0.46764190740371003  1.0000
  Ir  Ir5       1.0  0.12659134499999994  0.19562671499999998  0.45308660219443886  1.0000
  Ir  Ir6       1.0  0.8824709449999998  0.8068584350000001  0.5069060600292344  1.0000
  Ir  Ir7       1.0  0.652603785  0.6240637349999999  0.5200396030256641  1.0000
  Ir  Ir8       1.0  0.48612826499999995  0.406321355  0.46330902010567127  1.0000
  Ir  Ir9       1.0  0.08752893499999993  0.01361325499999999  0.4920855134931348  1.0000
  Ir  Ir10      1.0  0.2861282649999999  0.20632135499999998  0.47786432531494244  1.0000
  W   W1        1.0  0.6288078949999999  0.19868052499999997  0.4891167464882478  1.0000
  W   W2        1.0  0.42291912499999995  0.01960104499999999  0.5041106729089393  1.0000
  W   W3        1.0  0.20604115499999986  0.804452155  0.5167165336924341  1.0000
  W   W4        1.0  0.8252926349999998  0.397574785  0.4750140763382526  1.0000
  W   W5        1.0  0.02529263499999987  0.597574785  0.46045877112898137  1.0000
  W   W6        1.0  0.18742697499999997  0.604373285  0.485047461589671  1.0000
  W   W7        1.0  0.9747073649999999  0.407747345  0.49985415438627256  1.0000
  W   W8        1.0  0.7648207749999999  0.223576595  0.5129372865386403  1.0000
  W   W9        1.0  0.3874269749999999  0.8043732850000002  0.47049215638039993  1.0000
  W   W10       1.0  0.5874269749999999  0.00437328499999999  0.45593685117112875  1.0000
