data_image0
_chemical_formula_structural       COVPtVPtVPtVPtVPtVPtVPtVPtVPtVPtVPtVPt
_chemical_formula_sum              "C1 O1 V12 Pt12"
_cell_length_a       5.42031076
_cell_length_b       7.8526971
_cell_length_c       99.81170914
_cell_angle_alpha    90.0
_cell_angle_beta     90.0
_cell_angle_gamma    90.0

_space_group_name_H-M_alt    "P 1"
_space_group_IT_number       1

loop_
  _space_group_symop_operation_xyz
  'x, y, z'

loop_
  _atom_site_type_symbol
  _atom_site_label
  _atom_site_symmetry_multiplicity
  _atom_site_fract_x
  _atom_site_fract_y
  _atom_site_fract_z
  _atom_site_occupancy
  C   C1        1.0  0.25048123  0.13568504  0.536275139264786  1.0000
  O   O1        1.0  0.25048259999999994  0.14604741  0.5481358685790794  1.0000
  V   V1        1.0  0.25048182999999996  0.3730596  0.4518641314209207  1.0000
  Pt  Pt1       1.0  0.0004818299999999632  0.12305959999999999  0.46544046968071145  1.0000
  V   V2        1.0  0.25048182999999996  0.3730596  0.4790168109272971  1.0000
  Pt  Pt2       1.0  0.99973742  0.12335099999999999  0.49290383856643744  1.0000
  V   V3        1.0  0.25048239999999994  0.37194579000000005  0.5066160043054421  1.0000
  Pt  Pt3       1.0  0.002817029999999963  0.12628678999999998  0.5206016499344821  1.0000
  V   V4        1.0  0.25048182999999996  0.8730596  0.4518641314209207  1.0000
  Pt  Pt4       1.0  0.0004818299999999632  0.6230596  0.46544046968071145  1.0000
  V   V5        1.0  0.25048182999999996  0.8730596  0.4790168109272971  1.0000
  Pt  Pt5       1.0  0.00026258000000001225  0.62375384  0.49291586638899865  1.0000
  V   V6        1.0  0.25047933  0.8769404000000001  0.5067454400438361  1.0000
  Pt  Pt6       1.0  0.0007510899999999632  0.62448072  0.5196833210524012  1.0000
  V   V7        1.0  0.75048183  0.3730596  0.4518641314209207  1.0000
  Pt  Pt7       1.0  0.50048183  0.12305959999999999  0.46544046968071145  1.0000
  V   V8        1.0  0.75048183  0.3730596  0.4790168109272971  1.0000
  Pt  Pt8       1.0  0.50122407  0.12334819999999999  0.49290372506823593  1.0000
  V   V9        1.0  0.7504809100000001  0.37237449  0.5058922352350418  1.0000
  Pt  Pt9       1.0  0.49814458  0.12628491  0.5206015095551276  1.0000
  V   V10       1.0  0.75048183  0.8730596  0.4518641314209207  1.0000
  Pt  Pt10      1.0  0.50048183  0.6230596  0.46544046968071145  1.0000
  V   V11       1.0  0.75048183  0.8730596  0.4790168109272971  1.0000
  Pt  Pt11      1.0  0.50070695  0.62375475  0.49291598287399485  1.0000
  V   V12       1.0  0.7504808399999999  0.87539347  0.5059218672260102  1.0000
  Pt  Pt12      1.0  0.5002034399999999  0.6244787300000001  0.5196832523561213  1.0000
