data_image0
_chemical_formula_structural       COVPtVPtVPtVPtVPtVPtVPtVPtVPtVPtVPtVPt
_chemical_formula_sum              "C1 O1 V12 Pt12"
_cell_length_a       5.42031076
_cell_length_b       7.8526971
_cell_length_c       99.81170914
_cell_angle_alpha    90.0
_cell_angle_beta     90.0
_cell_angle_gamma    90.0

_space_group_name_H-M_alt    "P 1"
_space_group_IT_number       1

loop_
  _space_group_symop_operation_xyz
  'x, y, z'

loop_
  _atom_site_type_symbol
  _atom_site_label
  _atom_site_symmetry_multiplicity
  _atom_site_fract_x
  _atom_site_fract_y
  _atom_site_fract_z
  _atom_site_occupancy
  C   C1        1.0  0.25013436499999997  0.6250139100000001  0.5362393156482479  1.0000
  O   O1        1.0  0.250134185  0.6250075  0.5481291333568604  1.0000
  V   V1        1.0  0.250133795  0.37500717  0.4518708666431396  1.0000
  Pt  Pt1       1.0  0.00013379499999998518  0.12500717  0.4654472049029304  1.0000
  V   V2        1.0  0.250133795  0.37500717  0.47902354614951603  1.0000
  Pt  Pt2       1.0  0.9998662050000001  0.12500591  0.49290286785813536  1.0000
  V   V3        1.0  0.25013425499999997  0.37712578  0.5065684366118464  1.0000
  Pt  Pt3       1.0  0.00040253499999998524  0.12499354  0.519675471755731  1.0000
  V   V4        1.0  0.250133795  0.8750071700000001  0.4518708666431396  1.0000
  Pt  Pt4       1.0  0.00013379499999998518  0.6250071700000001  0.4654472049029304  1.0000
  V   V5        1.0  0.250133795  0.8750071700000001  0.47902354614951603  1.0000
  Pt  Pt5       1.0  0.999495765  0.62501538  0.4928751981913345  1.0000
  V   V6        1.0  0.25013363499999997  0.8728848300000001  0.5065680871568576  1.0000
  Pt  Pt6       1.0  0.002513474999999985  0.62501295  0.5205292350951485  1.0000
  V   V7        1.0  0.7501337949999999  0.37500717  0.4518708666431396  1.0000
  Pt  Pt7       1.0  0.500133795  0.12500717  0.4654472049029304  1.0000
  V   V8        1.0  0.7501337949999999  0.37500717  0.47902354614951603  1.0000
  Pt  Pt8       1.0  0.500402095  0.12500631  0.4929028499373667  1.0000
  V   V9        1.0  0.7501338849999999  0.37652169  0.505921362457693  1.0000
  Pt  Pt9       1.0  0.49986142499999997  0.12499283000000001  0.5196754209802198  1.0000
  V   V10       1.0  0.7501337949999999  0.8750071700000001  0.4518708666431396  1.0000
  Pt  Pt10      1.0  0.500133795  0.6250071700000001  0.4654472049029304  1.0000
  V   V11       1.0  0.7501337949999999  0.8750071700000001  0.47902354614951603  1.0000
  Pt  Pt11      1.0  0.500771605  0.62501572  0.4928751981913345  1.0000
  V   V12       1.0  0.7501342550000001  0.87349396  0.5059232082968644  1.0000
  Pt  Pt12      1.0  0.49775575499999997  0.62501306  0.5205292261347642  1.0000
