data_image0
_chemical_formula_structural       COIn2Pd6In2Pd6
_chemical_formula_sum              "C1 O1 In4 Pd12"
_cell_length_a       4.847235988894816
_cell_length_b       8.39973038
_cell_length_c       99.49270147
_cell_angle_alpha    90.0
_cell_angle_beta     92.32057093177798
_cell_angle_gamma    115.6722545101874

_space_group_name_H-M_alt    "P 1"
_space_group_IT_number       1

loop_
  _space_group_symop_operation_xyz
  'x, y, z'

loop_
  _atom_site_type_symbol
  _atom_site_label
  _atom_site_symmetry_multiplicity
  _atom_site_fract_x
  _atom_site_fract_y
  _atom_site_fract_z
  _atom_site_occupancy
  C   C1        1.0  0.22787053  0.003944510000000007  0.5310962508782281  1.0000
  O   O1        1.0  0.25187093  0.037944479999999996  0.5427959597014912  1.0000
  In  In1       1.0  0.13741541  0.3149621899999999  0.4942837069334871  1.0000
  In  In2       1.0  0.64043921  0.18355549  0.45720404029850875  1.0000
  Pd  Pd1       1.0  0.014886779999999999  0.28712987  0.5202054957899469  1.0000
  Pd  Pd2       1.0  0.74198977  0.46374674999999993  0.5042051540434651  1.0000
  Pd  Pd3       1.0  0.3938382899999999  0.12286422  0.5140788283651012  1.0000
  Pd  Pd4       1.0  0.51543921  0.15230549000000002  0.48499442815571475  1.0000
  Pd  Pd5       1.0  0.26543921  0.33980549  0.4664675029175774  1.0000
  Pd  Pd6       1.0  0.89043921  0.49605549  0.47573096553664607  1.0000
  In  In3       1.0  0.14200100999999998  0.80872672  0.4942867987067709  1.0000
  In  In4       1.0  0.64043921  0.6835554899999999  0.45720404029850875  1.0000
  Pd  Pd7       1.0  0.9851132199999999  0.77723198  0.5208075022878649  1.0000
  Pd  Pd8       1.0  0.76309396  0.9666694100000001  0.5034677320257507  1.0000
  Pd  Pd9       1.0  0.3706819499999999  0.6271554599999999  0.5123672754399058  1.0000
  Pd  Pd10      1.0  0.51543921  0.65230549  0.48499442815571475  1.0000
  Pd  Pd11      1.0  0.26543921  0.8398054899999999  0.4664675029175774  1.0000
  Pd  Pd12      1.0  0.89043921  0.99605549  0.47573096553664607  1.0000
