data_image0
_chemical_formula_structural       COV4Pt4V4Pt4V4Pt4V4Pt4V4Pt4V4Pt4
_chemical_formula_sum              "C1 O1 V24 Pt24"
_cell_length_a       8.83004032
_cell_length_b       10.013375036342472
_cell_length_c       99.85537434
_cell_angle_alpha    105.72675535467381
_cell_angle_beta     90.0
_cell_angle_gamma    90.0

_space_group_name_H-M_alt    "P 1"
_space_group_IT_number       1

loop_
  _space_group_symop_operation_xyz
  'x, y, z'

loop_
  _atom_site_type_symbol
  _atom_site_label
  _atom_site_symmetry_multiplicity
  _atom_site_fract_x
  _atom_site_fract_y
  _atom_site_fract_z
  _atom_site_occupancy
  C   C1        1.0  0.26413084499999995  0.920491245  0.540048110021778  1.0000
  O   O1        1.0  0.336019735  0.9271107849999999  0.5500964396785877  1.0000
  V   V1        1.0  0.37901726499999994  0.07288921500000001  0.44990356032141215  1.0000
  V   V2        1.0  0.37901726499999994  0.5728892149999999  0.46349383842233655  1.0000
  V   V3        1.0  0.12901726499999996  0.402255835  0.45885592932161945  1.0000
  V   V4        1.0  0.12901726499999996  0.9022558349999998  0.47244620742254373  1.0000
  Pt  Pt1       1.0  0.37901726499999994  0.328335365  0.4704370085075545  1.0000
  Pt  Pt2       1.0  0.37901726499999994  0.8283353649999998  0.4568467274167686  1.0000
  Pt  Pt3       1.0  0.12901726499999996  0.14680968499999997  0.46550303733732584  1.0000
  Pt  Pt4       1.0  0.12901726499999996  0.6468096849999999  0.45191275923640145  1.0000
  V   V5        1.0  0.37901726499999994  0.07288921500000001  0.4770841195131224  1.0000
  V   V6        1.0  0.37901726499999994  0.5728892149999999  0.49067439761404674  1.0000
  V   V7        1.0  0.12901726499999996  0.402255835  0.4860364885133296  1.0000
  V   V8        1.0  0.12979328499999998  0.9033522350000001  0.4991234712616135  1.0000
  Pt  Pt5       1.0  0.378935715  0.323899865  0.4972766935849767  1.0000
  Pt  Pt6       1.0  0.37901726499999994  0.8283353649999998  0.4840272866084788  1.0000
  Pt  Pt7       1.0  0.12901726499999996  0.14680968499999997  0.49268359951889756  1.0000
  Pt  Pt8       1.0  0.12901726499999996  0.6468096849999999  0.47909331842811165  1.0000
  V   V9        1.0  0.38026973499999994  0.075515475  0.5048189332575777  1.0000
  V   V10       1.0  0.378094135  0.562740255  0.5155391147012626  1.0000
  V   V11       1.0  0.12741836499999998  0.393771315  0.5121165185400026  1.0000
  V   V12       1.0  0.11880871499999998  0.914850985  0.5242899461045765  1.0000
  Pt  Pt9       1.0  0.377742115  0.32852861499999997  0.5245146072906278  1.0000
  Pt  Pt10      1.0  0.378100745  0.8233466549999999  0.5121216611018531  1.0000
  Pt  Pt11      1.0  0.13287870499999999  0.139480005  0.5206612438379887  1.0000
  Pt  Pt12      1.0  0.128751965  0.6416812849999999  0.5073845573647907  1.0000
  V   V13       1.0  0.8790172649999999  0.07288921500000001  0.44990356032141215  1.0000
  V   V14       1.0  0.8790172649999999  0.5728892149999999  0.46349383842233655  1.0000
  V   V15       1.0  0.629017265  0.402255835  0.45885592932161945  1.0000
  V   V16       1.0  0.629017265  0.9022558349999998  0.47244620742254373  1.0000
  Pt  Pt13      1.0  0.8790172649999999  0.328335365  0.4704370085075545  1.0000
  Pt  Pt14      1.0  0.8790172649999999  0.8283353649999998  0.4568467274167686  1.0000
  Pt  Pt15      1.0  0.629017265  0.14680968499999997  0.46550303733732584  1.0000
  Pt  Pt16      1.0  0.629017265  0.6468096849999999  0.45191275923640145  1.0000
  V   V17       1.0  0.8790172649999999  0.07288921500000001  0.4770841195131224  1.0000
  V   V18       1.0  0.8790172649999999  0.5728892149999999  0.49067439761404674  1.0000
  V   V19       1.0  0.629017265  0.402255835  0.4860364885133296  1.0000
  V   V20       1.0  0.6278153149999999  0.903232445  0.4998096355156853  1.0000
  Pt  Pt17      1.0  0.878975355  0.323981975  0.49726810670263105  1.0000
  Pt  Pt18      1.0  0.8790172649999999  0.8283353649999998  0.4840272866084788  1.0000
  Pt  Pt19      1.0  0.629017265  0.14680968499999997  0.49268359951889756  1.0000
  Pt  Pt20      1.0  0.629017265  0.6468096849999999  0.47909331842811165  1.0000
  V   V21       1.0  0.881191285  0.075037295  0.5049084796107302  1.0000
  V   V22       1.0  0.878470335  0.564981875  0.5155705710345352  1.0000
  V   V23       1.0  0.6294180049999999  0.39248213499999995  0.5121815330792113  1.0000
  V   V24       1.0  0.632138245  0.9105491450000001  0.5232903726043322  1.0000
  Pt  Pt21      1.0  0.879505825  0.329852925  0.5245234961489891  1.0000
  Pt  Pt22      1.0  0.877068355  0.821326665  0.5116884002659488  1.0000
  Pt  Pt23      1.0  0.628273055  0.14267652499999997  0.5207547487678214  1.0000
  Pt  Pt24      1.0  0.6272924749999998  0.6407486549999999  0.5074876956285086  1.0000
