data_image0
_chemical_formula_structural       COGa18Ir4Ga18Ir4
_chemical_formula_sum              "C1 O1 Ga36 Ir8"
_cell_length_a       6.4929482
_cell_length_b       8.97938407281422
_cell_length_c       109.3252785
_cell_angle_alpha    93.22366856864093
_cell_angle_beta     90.0
_cell_angle_gamma    90.0

_space_group_name_H-M_alt    "P 1"
_space_group_IT_number       1

loop_
  _space_group_symop_operation_xyz
  'x, y, z'

loop_
  _atom_site_type_symbol
  _atom_site_label
  _atom_site_symmetry_multiplicity
  _atom_site_fract_x
  _atom_site_fract_y
  _atom_site_fract_z
  _atom_site_occupancy
  C   C1        1.0  0.6545175849999998  0.32404019500000003  0.5533057477350782  1.0000
  O   O1        1.0  0.6646888449999998  0.314485375  0.563989340241397  1.0000
  Ga  Ga1       1.0  0.7381249349999999  0.519360925  0.4618360987810455  1.0000
  Ga  Ga2       1.0  0.25686045499999993  0.01936092500000003  0.46183609878104553  1.0000
  Ga  Ga3       1.0  0.6568359649999999  0.029284535000000028  0.47289181017117987  1.0000
  Ga  Ga4       1.0  0.33814942499999995  0.5292845350000001  0.47289181017117987  1.0000
  Ga  Ga5       1.0  0.7580288249999999  0.218318215  0.43601065975860276  1.0000
  Ga  Ga6       1.0  0.23695656499999992  0.718318215  0.43601065975860276  1.0000
  Ga  Ga7       1.0  0.7358020849999999  0.7570254450000001  0.4838427671279215  1.0000
  Ga  Ga8       1.0  0.2591833049999999  0.257025445  0.48384276712792157  1.0000
  Ga  Ga9       1.0  0.5511306749999999  0.4912547750000001  0.4367595953248058  1.0000
  Ga  Ga10      1.0  0.44385471499999996  0.991254775  0.4367595953248058  1.0000
  Ga  Ga11      1.0  0.9461583149999998  0.483534825  0.48401375476583525  1.0000
  Ga  Ga12      1.0  0.04882707499999997  0.9835348250000001  0.48401375476583525  1.0000
  Ga  Ga13      1.0  0.47247668499999995  0.272059745  0.4535383152935612  1.0000
  Ga  Ga14      1.0  0.5225087049999999  0.7720597450000001  0.4535383152935612  1.0000
  Ga  Ga15      1.0  0.04029126499999997  0.723524185  0.4655752478858704  1.0000
  Ga  Ga16      1.0  0.954694125  0.22352418500000001  0.4655752478858704  1.0000
  Ga  Ga17      1.0  0.13677761499999996  0.44725660500000003  0.4480586174294899  1.0000
  Ga  Ga18      1.0  0.8582077749999999  0.9472566050000002  0.4480586174294899  1.0000
  Ir  Ir1       1.0  0.6194919649999999  0.32248015500000005  0.47555236846468535  1.0000
  Ir  Ir2       1.0  0.375493425  0.8224801549999999  0.47555236846468535  1.0000
  Ir  Ir3       1.0  0.8737230849999998  0.658451415  0.4442787312888099  1.0000
  Ir  Ir4       1.0  0.12126230499999996  0.15845141500000004  0.4442787312888099  1.0000
  Ga  Ga19      1.0  0.7468869949999999  0.527522795  0.5228219270448314  1.0000
  Ga  Ga20      1.0  0.24806421499999995  0.008745225000000027  0.5208805635835378  1.0000
  Ga  Ga21      1.0  0.6553496849999998  0.03341246500000003  0.5342865591389874  1.0000
  Ga  Ga22      1.0  0.363890585  0.5528116650000001  0.5367787053104883  1.0000
  Ga  Ga23      1.0  0.7580288249999999  0.218318215  0.4959621486031301  1.0000
  Ga  Ga24      1.0  0.23695656499999992  0.718318215  0.49596214860313  1.0000
  Ga  Ga25      1.0  0.717362675  0.767882325  0.545122664632787  1.0000
  Ga  Ga26      1.0  0.23874243499999995  0.24901516500000004  0.5402142600818765  1.0000
  Ga  Ga27      1.0  0.5511306749999999  0.4912547750000001  0.4967110841693332  1.0000
  Ga  Ga28      1.0  0.44385471499999996  0.991254775  0.4967110841693332  1.0000
  Ga  Ga29      1.0  0.9597087349999999  0.5248791050000001  0.5458528161988812  1.0000
  Ga  Ga30      1.0  0.07188326499999997  0.9420266850000001  0.5461402488102785  1.0000
  Ga  Ga31      1.0  0.47247668499999995  0.272059745  0.5134898041380885  1.0000
  Ga  Ga32      1.0  0.5225087049999999  0.7720597450000001  0.5134898041380885  1.0000
  Ga  Ga33      1.0  0.052359554999999974  0.7190059150000001  0.5251238123741704  1.0000
  Ga  Ga34      1.0  0.9232296849999998  0.22269661500000001  0.5245450874746012  1.0000
  Ga  Ga35      1.0  0.13677761499999996  0.44725660500000003  0.508010102676928  1.0000
  Ga  Ga36      1.0  0.8582077749999999  0.9472566050000002  0.5080101026769279  1.0000
  Ir  Ir5       1.0  0.605835775  0.32761673500000005  0.5361949157092428  1.0000
  Ir  Ir6       1.0  0.3802768549999999  0.828074645  0.5348505359725959  1.0000
  Ir  Ir7       1.0  0.8737230849999998  0.658451415  0.504230216536248  1.0000
  Ir  Ir8       1.0  0.12126230499999996  0.15845141500000004  0.504230216536248  1.0000
