data_image0
_chemical_formula_structural       COIr8W8Ir8W8
_chemical_formula_sum              "C1 O1 Ir16 W16"
_cell_length_a       5.287437539161471
_cell_length_b       10.123691641193352
_cell_length_c       107.01206277
_cell_angle_alpha    98.31696660353286
_cell_angle_beta     63.506945848695814
_cell_angle_gamma    81.68303338417425

_space_group_name_H-M_alt    "P 1"
_space_group_IT_number       1

loop_
  _space_group_symop_operation_xyz
  'x, y, z'

loop_
  _atom_site_type_symbol
  _atom_site_label
  _atom_site_symmetry_multiplicity
  _atom_site_fract_x
  _atom_site_fract_y
  _atom_site_fract_z
  _atom_site_occupancy
  C   C1        1.0  0.39326259499999994  0.74111386  0.5452250120026085  1.0000
  O   O1        1.0  0.3003919050000001  0.7858536899999999  0.5575978739157457  1.0000
  Ir  Ir1       1.0  0.542480845  0.6657920100000001  0.47512177409050094  1.0000
  Ir  Ir2       1.0  0.7924808450000002  0.16579201  0.46276934260820707  1.0000
  Ir  Ir3       1.0  0.2924808450000001  0.16579201  0.4874742090314762  1.0000
  Ir  Ir4       1.0  0.04248084500000004  0.6657920100000001  0.4504169076672319  1.0000
  Ir  Ir5       1.0  0.7046914049999999  0.84137087  0.4424021260842542  1.0000
  Ir  Ir6       1.0  0.9546914049999999  0.34137087  0.4794594274484985  1.0000
  Ir  Ir7       1.0  0.454691405  0.34137087  0.4547545610252295  1.0000
  Ir  Ir8       1.0  0.20469140499999997  0.84137087  0.46710699250752324  1.0000
  W   W1        1.0  0.666669145  0.9174154000000001  0.468985661759821  1.0000
  W   W2        1.0  0.916669145  0.4174154  0.4566332302775271  1.0000
  W   W3        1.0  0.416669145  0.4174154  0.4813380967007962  1.0000
  W   W4        1.0  0.16666914499999996  0.9174154000000001  0.44428079533655185  1.0000
  W   W5        1.0  0.0805031050000001  0.58974748  0.4732431048382033  1.0000
  W   W6        1.0  0.3305031050000001  0.08974747999999998  0.460890669897228  1.0000
  W   W7        1.0  0.8305031050000001  0.08974747999999998  0.4855955363204971  1.0000
  W   W8        1.0  0.5805031050000001  0.58974748  0.4485382384149342  1.0000
  Ir  Ir9       1.0  0.5275680550000001  0.6634059899999999  0.5255395430805498  1.0000
  Ir  Ir10      1.0  0.7977431550000001  0.16407102999999998  0.5120723025022205  1.0000
  Ir  Ir11      1.0  0.3067449550000001  0.16915234999999998  0.5357340202487265  1.0000
  Ir  Ir12      1.0  0.04248084500000004  0.6657920100000001  0.49982664051377007  1.0000
  Ir  Ir13      1.0  0.7046914049999999  0.84137087  0.4918118589307924  1.0000
  Ir  Ir14      1.0  0.957519155  0.33524037  0.528180592173484  1.0000
  Ir  Ir15      1.0  0.454691405  0.34137087  0.5041642938717676  1.0000
  Ir  Ir16      1.0  0.18744163499999997  0.8460526800000001  0.5171659302229602  1.0000
  W   W9        1.0  0.6536075450000002  0.91352676  0.5177502571467498  1.0000
  W   W10       1.0  0.916669145  0.4174154  0.5060429631240654  1.0000
  W   W11       1.0  0.42899812499999995  0.40861747  0.528826393699916  1.0000
  W   W12       1.0  0.16666914499999996  0.9174154000000001  0.49369053164177146  1.0000
  W   W13       1.0  0.0810979150000001  0.59278678  0.5215211467649467  1.0000
  W   W14       1.0  0.3290398250000001  0.09135091  0.5104968938909882  1.0000
  W   W15       1.0  0.8534099250000001  0.08258459999999998  0.532706217946493  1.0000
  W   W16       1.0  0.5805031050000001  0.58974748  0.4979479712614724  1.0000
