data_image0
_chemical_formula_structural       COSi8Ir8Si8Ir8Si8Ir8
_chemical_formula_sum              "C1 O1 Si24 Ir24"
_cell_length_a       6.479571568162547
_cell_length_b       13.186899702220588
_cell_length_c       105.63384968
_cell_angle_alpha    104.22060390632852
_cell_angle_beta     119.99647842990048
_cell_angle_gamma    82.94541249919571

_space_group_name_H-M_alt    "P 1"
_space_group_IT_number       1

loop_
  _space_group_symop_operation_xyz
  'x, y, z'

loop_
  _atom_site_type_symbol
  _atom_site_label
  _atom_site_symmetry_multiplicity
  _atom_site_fract_x
  _atom_site_fract_y
  _atom_site_fract_z
  _atom_site_occupancy
  C   C1        1.0  0.27690149  0.8203452300000001  0.5512457816202865  1.0000
  O   O1        1.0  0.29308517  0.7796063500000001  0.5601455703763808  1.0000
  Si  Si1       1.0  0.68350985  0.03624378000000003  0.4661895059344265  1.0000
  Si  Si2       1.0  0.68350985  0.53624378  0.45085615770487014  1.0000
  Si  Si3       1.0  0.31770871  0.47575586000000003  0.4531166303415206  1.0000
  Si  Si4       1.0  0.31770871  0.97575586  0.4684499751977406  1.0000
  Si  Si5       1.0  0.18350984999999997  0.22575586000000006  0.45666786624972744  1.0000
  Si  Si6       1.0  0.18350984999999997  0.72575586  0.4413345213935074  1.0000
  Si  Si7       1.0  0.81770871  0.28624378000000006  0.4626382666528834  1.0000
  Si  Si8       1.0  0.81770871  0.7862437800000001  0.44730492179666337  1.0000
  Ir  Ir1       1.0  0.5022630899999999  0.3587388  0.4398544296236193  1.0000
  Ir  Ir2       1.0  0.5022630899999999  0.8587388000000001  0.4551877744798394  1.0000
  Ir  Ir3       1.0  0.4989554699999999  0.15326084  0.4487850135665514  1.0000
  Ir  Ir4       1.0  0.4989554699999999  0.65326084  0.46411835842277144  1.0000
  Ir  Ir5       1.0  0.002263089999999964  0.4032608400000001  0.4565531188430593  1.0000
  Ir  Ir6       1.0  0.002263089999999964  0.90326084  0.44121977398683926  1.0000
  Ir  Ir7       1.0  0.9989554700000001  0.10873880000000001  0.46275301405955144  1.0000
  Ir  Ir8       1.0  0.9989554700000001  0.6087388  0.44741966920333137  1.0000
  Si  Si9       1.0  0.68350985  0.03624378000000003  0.49685619902020284  1.0000
  Si  Si10      1.0  0.68350985  0.53624378  0.48152285416398277  1.0000
  Si  Si11      1.0  0.31770871  0.47575586000000003  0.4837833234272969  1.0000
  Si  Si12      1.0  0.31770871  0.97575586  0.499116668283517  1.0000
  Si  Si13      1.0  0.18350984999999997  0.22575586000000006  0.4873345593355038  1.0000
  Si  Si14      1.0  0.18350984999999997  0.72575586  0.4720012144792837  1.0000
  Si  Si15      1.0  0.81770871  0.28624378000000006  0.49330495973865973  1.0000
  Si  Si16      1.0  0.81770871  0.7862437800000001  0.4779716148824397  1.0000
  Ir  Ir9       1.0  0.5022630899999999  0.3587388  0.47052112270939567  1.0000
  Ir  Ir10      1.0  0.5022630899999999  0.8587388000000001  0.485854470938952  1.0000
  Ir  Ir11      1.0  0.4989554699999999  0.15326084  0.4794517066523278  1.0000
  Ir  Ir12      1.0  0.4989554699999999  0.65326084  0.4947850515085477  1.0000
  Ir  Ir13      1.0  0.002263089999999964  0.4032608400000001  0.48721981192883557  1.0000
  Ir  Ir14      1.0  0.002263089999999964  0.90326084  0.4718864670726156  1.0000
  Ir  Ir15      1.0  0.9989554700000001  0.10873880000000001  0.49341971051866407  1.0000
  Ir  Ir16      1.0  0.9989554700000001  0.6087388  0.4780863622891077  1.0000
  Si  Si17      1.0  0.7254957400000001  0.01914841000000003  0.5247791924215335  1.0000
  Si  Si18      1.0  0.6884573199999999  0.5354696200000001  0.5123940760013376  1.0000
  Si  Si19      1.0  0.31607182  0.47372164000000005  0.5153998333141643  1.0000
  Si  Si20      1.0  0.31060509999999997  0.98085159  0.5277774980345328  1.0000
  Si  Si21      1.0  0.21224084999999998  0.23095817000000005  0.5188000584507665  1.0000
  Si  Si22      1.0  0.17970007  0.7220362499999999  0.5027799225693468  1.0000
  Si  Si23      1.0  0.8367359900000001  0.27844860000000005  0.5223151220741161  1.0000
  Si  Si24      1.0  0.8247760900000001  0.7820893000000001  0.5102735124866168  1.0000
  Ir  Ir17      1.0  0.50053774  0.36122088  0.5019709155709704  1.0000
  Ir  Ir18      1.0  0.5130907299999999  0.8643935800000001  0.5164971964705075  1.0000
  Ir  Ir19      1.0  0.49887302999999994  0.15848413000000003  0.5106325434128428  1.0000
  Ir  Ir20      1.0  0.47503241  0.64523934  0.5225231456020736  1.0000
  Ir  Ir21      1.0  0.007401479999999964  0.3994226400000001  0.517105203227047  1.0000
  Ir  Ir22      1.0  0.0010445299999999643  0.8959784600000001  0.5033509845470229  1.0000
  Ir  Ir23      1.0  0.99600613  0.10233138000000001  0.5219719525750468  1.0000
  Ir  Ir24      1.0  0.9821798399999999  0.6021892000000001  0.5082164014271945  1.0000
