data_image0
_chemical_formula_structural       COGa8Pt4Ga8Pt4
_chemical_formula_sum              "C1 O1 Ga16 Pt8"
_cell_length_a       8.54401798
_cell_length_b       6.04153306
_cell_length_c       104.17607194
_cell_angle_alpha    90.0
_cell_angle_beta     90.0
_cell_angle_gamma    90.0

_space_group_name_H-M_alt    "P 1"
_space_group_IT_number       1

loop_
  _space_group_symop_operation_xyz
  'x, y, z'

loop_
  _atom_site_type_symbol
  _atom_site_label
  _atom_site_symmetry_multiplicity
  _atom_site_fract_x
  _atom_site_fract_y
  _atom_site_fract_z
  _atom_site_occupancy
  C   C1        1.0  0.12357644  0.12348470499999996  0.5330695817151752  1.0000
  O   O1        1.0  0.12357648000000002  0.12348473499999998  0.5443693132683239  1.0000
  Ga  Ga1       1.0  0.12357641999999999  0.863763995  0.5172180182100744  1.0000
  Ga  Ga2       1.0  0.12357645  0.873484715  0.47613447859551405  1.0000
  Ga  Ga3       1.0  0.12357639000000002  0.38320539499999995  0.5172180182100744  1.0000
  Ga  Ga4       1.0  0.12357645  0.373484715  0.47613447859551405  1.0000
  Ga  Ga5       1.0  0.37357645  0.373484715  0.4556306867316759  1.0000
  Ga  Ga6       1.0  0.37072924  0.370454405  0.49652720551958435  1.0000
  Ga  Ga7       1.0  0.37357645  0.873484715  0.4556306867316759  1.0000
  Ga  Ga8       1.0  0.37072925  0.8765150150000001  0.49652720551958435  1.0000
  Pt  Pt1       1.0  0.12357650000000002  0.12348469499999996  0.49678986401427017  1.0000
  Pt  Pt2       1.0  0.12357645  0.12348471499999997  0.4556306867316759  1.0000
  Pt  Pt3       1.0  0.37642502  0.623484705  0.5163397735521089  1.0000
  Pt  Pt4       1.0  0.37357645  0.623484715  0.47613447859551405  1.0000
  Ga  Ga9       1.0  0.62357646  0.862186655  0.5163345573874587  1.0000
  Ga  Ga10      1.0  0.6235764500000001  0.873484715  0.47613447859551405  1.0000
  Ga  Ga11      1.0  0.6235764800000001  0.384782785  0.5163345475456387  1.0000
  Ga  Ga12      1.0  0.6235764500000001  0.373484715  0.47613447859551405  1.0000
  Ga  Ga13      1.0  0.8735764500000001  0.373484715  0.4556306867316759  1.0000
  Ga  Ga14      1.0  0.87642361  0.37045412499999997  0.49652717599412405  1.0000
  Ga  Ga15      1.0  0.8735764500000001  0.873484715  0.4556306867316759  1.0000
  Ga  Ga16      1.0  0.8764235899999999  0.8765153050000001  0.4965271727135174  1.0000
  Pt  Pt5       1.0  0.6235763499999999  0.12348469499999996  0.49647460427178514  1.0000
  Pt  Pt6       1.0  0.6235764500000001  0.12348471499999997  0.4556306867316759  1.0000
  Pt  Pt7       1.0  0.87072789  0.6234847250000001  0.5163397243430083  1.0000
  Pt  Pt8       1.0  0.8735764500000001  0.623484715  0.47613447859551405  1.0000
