data_image0
_chemical_formula_structural       COV2Ir2V2Ir2V2Ir2V2Ir2V2Ir2V2Ir2
_chemical_formula_sum              "C1 O1 V12 Ir12"
_cell_length_a       7.882270780995085
_cell_length_b       5.50903502
_cell_length_c       100.29969261
_cell_angle_alpha    90.0
_cell_angle_beta     69.54587178955929
_cell_angle_gamma    90.0

_space_group_name_H-M_alt    "P 1"
_space_group_IT_number       1

loop_
  _space_group_symop_operation_xyz
  'x, y, z'

loop_
  _atom_site_type_symbol
  _atom_site_label
  _atom_site_symmetry_multiplicity
  _atom_site_fract_x
  _atom_site_fract_y
  _atom_site_fract_z
  _atom_site_occupancy
  C   C1        1.0  0.38806234  0.37702760999999996  0.5295409344419886  1.0000
  O   O1        1.0  0.26650375  0.37702765  0.543002298374434  1.0000
  V   V1        1.0  0.65577029  0.37702754999999993  0.5187099966910504  1.0000
  V   V2        1.0  0.10881566999999999  0.37702747  0.5323526910943663  1.0000
  Ir  Ir1       1.0  0.38882872999999996  0.13005023999999998  0.5127867028069222  1.0000
  Ir  Ir2       1.0  0.8911843300000001  0.12297240999999998  0.5250825792983892  1.0000
  V   V3        1.0  0.64089621  0.37702758999999997  0.4913262921797206  1.0000
  V   V4        1.0  0.13660277  0.37702754999999993  0.5057705956532064  1.0000
  Ir  Ir3       1.0  0.39089620999999997  0.12702759  0.4844605722563403  1.0000
  Ir  Ir4       1.0  0.89089621  0.12702759  0.4981920090821852  1.0000
  V   V5        1.0  0.64089621  0.37702758999999997  0.4638634215489467  1.0000
  V   V6        1.0  0.14089620999999997  0.37702758999999997  0.47759485535387575  1.0000
  Ir  Ir5       1.0  0.39089620999999997  0.12702759  0.45699770162556635  1.0000
  Ir  Ir6       1.0  0.89089621  0.12702759  0.4707291384514112  1.0000
  V   V7        1.0  0.64998712  0.87702756  0.5166463063972104  1.0000
  V   V8        1.0  0.13213522  0.8770274800000001  0.5302027083407109  1.0000
  Ir  Ir7       1.0  0.38882875999999994  0.62400483  0.5127866997860063  1.0000
  Ir  Ir8       1.0  0.8911843300000001  0.63108253  0.5250825792983892  1.0000
  V   V9        1.0  0.64089621  0.8770275900000001  0.4913262921797206  1.0000
  V   V10       1.0  0.14200236999999996  0.87702755  0.5058300774853003  1.0000
  Ir  Ir9       1.0  0.39089620999999997  0.62702759  0.4844605722563403  1.0000
  Ir  Ir10      1.0  0.89089621  0.62702759  0.4981920090821852  1.0000
  V   V11       1.0  0.64089621  0.8770275900000001  0.4638634215489467  1.0000
  V   V12       1.0  0.14089620999999997  0.8770275900000001  0.47759485535387575  1.0000
  Ir  Ir11      1.0  0.39089620999999997  0.62702759  0.45699770162556635  1.0000
  Ir  Ir12      1.0  0.89089621  0.62702759  0.4707291384514112  1.0000
