data_image0
_chemical_formula_structural       COGa20Pd4
_chemical_formula_sum              "C1 O1 Ga20 Pd4"
_cell_length_a       6.57266288
_cell_length_b       6.897856625207543
_cell_length_c       103.26989623
_cell_angle_alpha    85.6210860194559
_cell_angle_beta     90.0
_cell_angle_gamma    118.4523621174353

_space_group_name_H-M_alt    "P 1"
_space_group_IT_number       1

loop_
  _space_group_symop_operation_xyz
  'x, y, z'

loop_
  _atom_site_type_symbol
  _atom_site_label
  _atom_site_symmetry_multiplicity
  _atom_site_fract_x
  _atom_site_fract_y
  _atom_site_fract_z
  _atom_site_occupancy
  C   C1        1.0  0.09858918000000001  0.8427487149999998  0.549889446702932  1.0000
  O   O1        1.0  0.035022700000000045  0.809663665  0.5608794158733826  1.0000
  Ga  Ga1       1.0  0.70364884  0.367345785  0.5342589940577881  1.0000
  Ga  Ga2       1.0  0.9882435800000001  0.9684891649999999  0.48128489942495306  1.0000
  Ga  Ga3       1.0  0.65491024  0.301822505  0.4544378542015852  1.0000
  Ga  Ga4       1.0  0.30935511999999993  0.6387388749999999  0.5078377440114811  1.0000
  Ga  Ga5       1.0  0.011756420000000042  0.7238589849999999  0.4429080854964759  1.0000
  Ga  Ga6       1.0  0.67842309  0.057192314999999994  0.4966021694999211  1.0000
  Ga  Ga7       1.0  0.44230838  0.5849629049999999  0.4540949326248537  1.0000
  Ga  Ga8       1.0  0.10379850999999994  0.9231811649999998  0.5091433318244737  1.0000
  Ga  Ga9       1.0  0.053433880000000024  0.390525645  0.4697551274981985  1.0000
  Ga  Ga10      1.0  0.69945382  0.730398895  0.5235768595265328  1.0000
  Ga  Ga11      1.0  0.8675121  0.01868210499999999  0.454780778999962  1.0000
  Ga  Ga12      1.0  0.5326381300000002  0.36056367500000003  0.5079049990760307  1.0000
  Ga  Ga13      1.0  0.9230532800000001  0.5464526850000001  0.4928146681300624  1.0000
  Ga  Ga14      1.0  0.25638661000000007  0.213119355  0.4391205841266172  1.0000
  Ga  Ga15      1.0  0.49250132  0.6853487649999999  0.48162782100168455  1.0000
  Ga  Ga16      1.0  0.24801192  0.12754199499999996  0.5344591870885943  1.0000
  Ga  Ga17      1.0  0.2980640600000001  0.8797860249999999  0.46596762612833975  1.0000
  Ga  Ga18      1.0  0.9560908400000001  0.218794275  0.5205080524259261  1.0000
  Ga  Ga19      1.0  0.48398584  0.25162956499999994  0.48094197462657634  1.0000
  Ga  Ga20      1.0  0.19060575999999999  0.625855285  0.5357603805775761  1.0000
  Pd  Pd1       1.0  0.4882435800000001  0.9684891649999999  0.4410143348115465  1.0000
  Pd  Pd2       1.0  0.15491024000000006  0.301822505  0.4947084188149917  1.0000
  Pd  Pd3       1.0  0.82157691  0.635155835  0.4678613768132691  1.0000
  Pd  Pd4       1.0  0.49418666  0.9813178949999999  0.5208255906603706  1.0000
