data_image0
_chemical_formula_structural       COPt18Rh6Pt18Rh6
_chemical_formula_sum              "C1 O1 Pt36 Rh12"
_cell_length_a       7.90178692
_cell_length_b       11.191947604441053
_cell_length_c       105.42451443
_cell_angle_alpha    71.4073540845762
_cell_angle_beta     90.0
_cell_angle_gamma    90.0

_space_group_name_H-M_alt    "P 1"
_space_group_IT_number       1

loop_
  _space_group_symop_operation_xyz
  'x, y, z'

loop_
  _atom_site_type_symbol
  _atom_site_label
  _atom_site_symmetry_multiplicity
  _atom_site_fract_x
  _atom_site_fract_y
  _atom_site_fract_z
  _atom_site_occupancy
  C   C1        1.0  0.25412202500000003  0.255352825  0.5352976846992499  1.0000
  O   O1        1.0  0.254125255  0.22224707500000002  0.5472969982907325  1.0000
  Pt  Pt1       1.0  0.0014879250000000212  0.6249421749999999  0.49448176600078486  1.0000
  Pt  Pt2       1.0  0.004126785000000021  0.958333335  0.46670374490116645  1.0000
  Pt  Pt3       1.0  0.04091935500000002  0.28855044500000004  0.5234708994521702  1.0000
  Pt  Pt4       1.0  0.25412678499999997  0.7916666649999999  0.4807044880930651  1.0000
  Pt  Pt5       1.0  0.25412678499999997  0.124999995  0.4527030017092677  1.0000
  Pt  Pt6       1.0  0.254126205  0.46614513500000004  0.5081083130394186  1.0000
  Pt  Pt7       1.0  0.0014396649999999234  0.875897775  0.494566879311988  1.0000
  Pt  Pt8       1.0  0.004126785000000021  0.208333335  0.4667037449011664  1.0000
  Pt  Pt9       1.0  0.004115365000000021  0.5475070449999999  0.5218294322905991  1.0000
  Pt  Pt10      1.0  0.25412603500000003  0.9514483850000001  0.5094239302901876  1.0000
  Pt  Pt11      1.0  0.25412678499999997  0.291666665  0.4807044880930651  1.0000
  Pt  Pt12      1.0  0.25412678499999997  0.624999995  0.4527030017092677  1.0000
  Pt  Pt13      1.0  0.001737305000000021  0.7922019249999999  0.5216784326072653  1.0000
  Pt  Pt14      1.0  0.0012607350000000206  0.124978805  0.49466033594540654  1.0000
  Pt  Pt15      1.0  0.004126785000000021  0.458333335  0.4667037449011664  1.0000
  Pt  Pt16      1.0  0.25412678499999997  0.541666665  0.4807044880930651  1.0000
  Pt  Pt17      1.0  0.25412678499999997  0.8749999950000001  0.4527030017092677  1.0000
  Pt  Pt18      1.0  0.254127515  0.203425835  0.5082390306877574  1.0000
  Rh  Rh1       1.0  0.004126785000000021  0.708333335  0.46670374490116645  1.0000
  Rh  Rh2       1.0  0.00606612500000002  0.042018555  0.5212894886323315  1.0000
  Rh  Rh3       1.0  0.9985603350000001  0.373740105  0.49501306392080824  1.0000
  Rh  Rh4       1.0  0.254125175  0.709409105  0.5089060125993474  1.0000
  Rh  Rh5       1.0  0.25412678499999997  0.041666665  0.4807044880930651  1.0000
  Rh  Rh6       1.0  0.25412678499999997  0.37499999500000003  0.4527030017092677  1.0000
  Pt  Pt19      1.0  0.5067646250000001  0.6249428050000001  0.4944817424795382  1.0000
  Pt  Pt20      1.0  0.504126785  0.958333335  0.46670374490116645  1.0000
  Pt  Pt21      1.0  0.46732654500000004  0.28855089500000003  0.523471033859294  1.0000
  Pt  Pt22      1.0  0.754126785  0.7916666649999999  0.4807044880930651  1.0000
  Pt  Pt23      1.0  0.754126785  0.124999995  0.4527030017092677  1.0000
  Pt  Pt24      1.0  0.754126815  0.44804808500000004  0.5104379345947703  1.0000
  Pt  Pt25      1.0  0.506813455  0.8758999249999998  0.4945667549853983  1.0000
  Pt  Pt26      1.0  0.504126785  0.208333335  0.4667037449011664  1.0000
  Pt  Pt27      1.0  0.504137815  0.547511415  0.5218290962727894  1.0000
  Pt  Pt28      1.0  0.7541286549999999  0.9570159750000001  0.5099011360632018  1.0000
  Pt  Pt29      1.0  0.754126785  0.291666665  0.4807044880930651  1.0000
  Pt  Pt30      1.0  0.754126785  0.624999995  0.4527030017092677  1.0000
  Pt  Pt31      1.0  0.5065172450000001  0.7922049550000001  0.5216778882584134  1.0000
  Pt  Pt32      1.0  0.506993295  0.12497887499999999  0.49466031242415986  1.0000
  Pt  Pt33      1.0  0.504126785  0.458333335  0.4667037449011664  1.0000
  Pt  Pt34      1.0  0.754126785  0.541666665  0.4807044880930651  1.0000
  Pt  Pt35      1.0  0.754126785  0.8749999950000001  0.4527030017092677  1.0000
  Pt  Pt36      1.0  0.7541270949999999  0.20688039500000002  0.5107724470447069  1.0000
  Rh  Rh7       1.0  0.504126785  0.708333335  0.46670374490116645  1.0000
  Rh  Rh8       1.0  0.502186035  0.042016065000000005  0.5212890719702474  1.0000
  Rh  Rh9       1.0  0.5096928049999999  0.373740235  0.4950133360952342  1.0000
  Rh  Rh10      1.0  0.7541287749999999  0.702854125  0.5093176310560814  1.0000
  Rh  Rh11      1.0  0.754126785  0.041666665  0.4807044880930651  1.0000
  Rh  Rh12      1.0  0.754126785  0.37499999500000003  0.4527030017092677  1.0000
