data_image0
_chemical_formula_structural       COV2Pd4V2Pd4V2Pd4V2Pd4V2Pd4V2Pd4V2Pd4V2Pd4
_chemical_formula_sum              "C1 O1 V16 Pd32"
_cell_length_a       7.65330268
_cell_length_b       10.02193442737364
_cell_length_c       105.837204
_cell_angle_alpha    123.37626888996026
_cell_angle_beta     90.0
_cell_angle_gamma    90.0

_space_group_name_H-M_alt    "P 1"
_space_group_IT_number       1

loop_
  _space_group_symop_operation_xyz
  'x, y, z'

loop_
  _atom_site_type_symbol
  _atom_site_label
  _atom_site_symmetry_multiplicity
  _atom_site_fract_x
  _atom_site_fract_y
  _atom_site_fract_z
  _atom_site_occupancy
  C   C1        1.0  0.18628673500000004  0.20671247000000006  0.5506776085180985  1.0000
  O   O1        1.0  0.20042080500000004  0.31980107  0.5632647431466097  1.0000
  V   V1        1.0  0.12456334500000002  0.008495100000000042  0.4581951814749857  1.0000
  V   V2        1.0  0.37456334500000005  0.5084951  0.44517183993684234  1.0000
  Pd  Pd1       1.0  0.37456334500000005  0.17044631000000007  0.4536084230202945  1.0000
  Pd  Pd2       1.0  0.12456334500000002  0.34654389  0.44975859839153354  1.0000
  Pd  Pd3       1.0  0.12456334500000002  0.67044631  0.4405850814821511  1.0000
  Pd  Pd4       1.0  0.37456334500000005  0.84654389  0.4367352568533901  1.0000
  V   V3        1.0  0.12456334500000002  0.008495100000000042  0.48424186116520396  1.0000
  V   V4        1.0  0.37456334500000005  0.5084951  0.4712185230131292  1.0000
  Pd  Pd5       1.0  0.37456334500000005  0.17044631000000007  0.47965510609658135  1.0000
  Pd  Pd6       1.0  0.12456334500000002  0.34654389  0.4758052780817518  1.0000
  Pd  Pd7       1.0  0.12456334500000002  0.67044631  0.46663176455843797  1.0000
  Pd  Pd8       1.0  0.37456334500000005  0.84654389  0.462781939929677  1.0000
  V   V5        1.0  0.12435780500000003  0.007998620000000043  0.5105888749877551  1.0000
  V   V6        1.0  0.37456334500000005  0.5084951  0.4972652027033474  1.0000
  Pd  Pd9       1.0  0.37448410500000007  0.17236357000000002  0.5058987161542569  1.0000
  Pd  Pd10      1.0  0.12456334500000002  0.34654389  0.5018519611580387  1.0000
  Pd  Pd11      1.0  0.12456334500000002  0.67044631  0.49267844424865614  1.0000
  Pd  Pd12      1.0  0.37456334500000005  0.84654389  0.48882861961989515  1.0000
  V   V7        1.0  0.12549353500000002  0.98949244  0.5319053996014101  1.0000
  V   V8        1.0  0.37518379500000004  0.49115251000000004  0.5197183831627054  1.0000
  Pd  Pd13      1.0  0.370151685  0.16924497000000005  0.5324789962471035  1.0000
  Pd  Pd14      1.0  0.12291808500000002  0.35664405000000005  0.5280381434911645  1.0000
  Pd  Pd15      1.0  0.12498748500000002  0.6699759599999999  0.5200970912403462  1.0000
  Pd  Pd16      1.0  0.375899375  0.8364064999999999  0.5152137605756083  1.0000
  V   V9        1.0  0.6245633450000001  0.008495100000000042  0.4581951814749857  1.0000
  V   V10       1.0  0.8745633450000001  0.5084951  0.44517183993684234  1.0000
  Pd  Pd17      1.0  0.8745633450000001  0.17044631000000007  0.4536084230202945  1.0000
  Pd  Pd18      1.0  0.6245633450000001  0.34654389  0.44975859839153354  1.0000
  Pd  Pd19      1.0  0.6245633450000001  0.67044631  0.4405850814821511  1.0000
  Pd  Pd20      1.0  0.8745633450000001  0.84654389  0.4367352568533901  1.0000
  V   V11       1.0  0.6245633450000001  0.008495100000000042  0.48424186116520396  1.0000
  V   V12       1.0  0.8745633450000001  0.5084951  0.4712185230131292  1.0000
  Pd  Pd21      1.0  0.8745633450000001  0.17044631000000007  0.47965510609658135  1.0000
  Pd  Pd22      1.0  0.6245633450000001  0.34654389  0.4758052780817518  1.0000
  Pd  Pd23      1.0  0.6245633450000001  0.67044631  0.46663176455843797  1.0000
  Pd  Pd24      1.0  0.8745633450000001  0.84654389  0.462781939929677  1.0000
  V   V13       1.0  0.6265092750000001  0.010226600000000042  0.5108373447063542  1.0000
  V   V14       1.0  0.8745633450000001  0.5084951  0.4972652027033474  1.0000
  Pd  Pd25      1.0  0.8749733550000001  0.17240035000000006  0.5057775253706865  1.0000
  Pd  Pd26      1.0  0.6245633450000001  0.34654389  0.5018519611580387  1.0000
  Pd  Pd27      1.0  0.6245633450000001  0.67044631  0.49267844424865614  1.0000
  Pd  Pd28      1.0  0.8745633450000001  0.84654389  0.48882861961989515  1.0000
  V   V15       1.0  0.625662435  0.9920013799999999  0.5314152119851289  1.0000
  V   V16       1.0  0.874213735  0.49169597000000004  0.5196869841479796  1.0000
  Pd  Pd29      1.0  0.877081915  0.16411114000000007  0.5320724953178647  1.0000
  Pd  Pd30      1.0  0.624936335  0.35198335  0.5280248125388324  1.0000
  Pd  Pd31      1.0  0.6237643150000001  0.6703445200000001  0.520167765265511  1.0000
  Pd  Pd32      1.0  0.872825665  0.8334500200000001  0.5151833367486579  1.0000
