data_image0
_chemical_formula_structural       COAl6Sb6
_chemical_formula_sum              "C1 O1 Al6 Sb6"
_cell_length_a       6.28250532
_cell_length_b       7.694466160703235
_cell_length_c       103.83232652000001
_cell_angle_alpha    94.34775311936313
_cell_angle_beta     90.0
_cell_angle_gamma    114.09484258360406

_space_group_name_H-M_alt    "P 1"
_space_group_IT_number       1

loop_
  _space_group_symop_operation_xyz
  'x, y, z'

loop_
  _atom_site_type_symbol
  _atom_site_label
  _atom_site_symmetry_multiplicity
  _atom_site_fract_x
  _atom_site_fract_y
  _atom_site_fract_z
  _atom_site_occupancy
  C   C1        1.0  0.462438085  0.10887741000000001  0.5377755268031263  1.0000
  O   O1        1.0  0.46205108500000003  0.10889634000000001  0.5489661970128757  1.0000
  Al  Al1       1.0  0.18121562500000002  0.36444603  0.5000649310007127  1.0000
  Al  Al2       1.0  0.760416665  0.52064283  0.47139856296476657  1.0000
  Al  Al3       1.0  0.39090982500000004  0.10475242000000001  0.518394094738222  1.0000
  Al  Al4       1.0  0.46874999500000003  0.9373095  0.48497506744428714  1.0000
  Al  Al5       1.0  0.052083335  0.10397616000000003  0.4578220552268844  1.0000
  Al  Al6       1.0  0.9290161450000001  0.8000915200000001  0.5125811092246102  1.0000
  Sb  Sb1       1.0  0.364583335  0.22897615999999998  0.4781868152045269  1.0000
  Sb  Sb2       1.0  0.947916665  0.39564283  0.45103380298712414  1.0000
  Sb  Sb3       1.0  0.763774795  0.0626905  0.5061446427362459  1.0000
  Sb  Sb4       1.0  0.6562499949999999  0.8123095  0.46461030746664467  1.0000
  Sb  Sb5       1.0  0.49116002499999994  0.49502102000000003  0.5206216475767236  1.0000
  Sb  Sb6       1.0  0.072916665  0.64564283  0.491763322942409  1.0000
