data_image0
_chemical_formula_structural       COSi5Ni15Si5Ni15
_chemical_formula_sum              "C1 O1 Si10 Ni30"
_cell_length_a       4.99736688
_cell_length_b       7.901530829202683
_cell_length_c       106.72299675
_cell_angle_alpha    75.03678254720123
_cell_angle_beta     90.0
_cell_angle_gamma    71.56505119413772

_space_group_name_H-M_alt    "P 1"
_space_group_IT_number       1

loop_
  _space_group_symop_operation_xyz
  'x, y, z'

loop_
  _atom_site_type_symbol
  _atom_site_label
  _atom_site_symmetry_multiplicity
  _atom_site_fract_x
  _atom_site_fract_y
  _atom_site_fract_z
  _atom_site_occupancy
  C   C1        1.0  0.40571056  0.24757183000000002  0.5535918669267345  1.0000
  O   O1        1.0  0.40822088000000006  0.24194322000000004  0.5648984988794072  1.0000
  Si  Si1       1.0  0.80456634  0.45  0.4408364384785373  1.0000
  Si  Si2       1.0  0.60456634  0.8500000000000001  0.4523063200763537  1.0000
  Si  Si3       1.0  0.0045663400000000775  0.05  0.48671595798787537  1.0000
  Si  Si4       1.0  0.40456633999999997  0.25  0.46377619823320637  1.0000
  Si  Si5       1.0  0.20456634  0.65  0.47524607639005895  1.0000
  Ni  Ni1       1.0  0.004566340000000066  0.55  0.4580412574342981  1.0000
  Ni  Ni2       1.0  0.80456634  0.9500000000000001  0.46951113903211456  1.0000
  Ni  Ni3       1.0  0.20456634000000004  0.15000000000000002  0.4465713792774455  1.0000
  Ni  Ni4       1.0  0.6045663399999999  0.35000000000000003  0.48098101718896713  1.0000
  Ni  Ni5       1.0  0.4045663399999999  0.7500000000000001  0.4351015011205929  1.0000
  Ni  Ni6       1.0  0.9045663400000001  0.25  0.46377619823320637  1.0000
  Ni  Ni7       1.0  0.70456634  0.65  0.47524607639005895  1.0000
  Ni  Ni8       1.0  0.10456634000000002  0.8500000000000001  0.4523063200763537  1.0000
  Ni  Ni9       1.0  0.50456634  0.05  0.48671595798787537  1.0000
  Ni  Ni10      1.0  0.30456634  0.45  0.4408364384785373  1.0000
  Ni  Ni11      1.0  0.50456634  0.55  0.4580412574342981  1.0000
  Ni  Ni12      1.0  0.30456634  0.9500000000000001  0.46951113903211456  1.0000
  Ni  Ni13      1.0  0.70456634  0.15000000000000002  0.4465713792774455  1.0000
  Ni  Ni14      1.0  0.10456634000000006  0.35000000000000003  0.48098101718896713  1.0000
  Ni  Ni15      1.0  0.9045663399999999  0.7500000000000001  0.4351015011205929  1.0000
  Si  Si6       1.0  0.80456634  0.45  0.49818583614472806  1.0000
  Si  Si7       1.0  0.60456634  0.8500000000000001  0.5096557143015805  1.0000
  Si  Si8       1.0  0.99543366  0.06830787  0.5417710724005326  1.0000
  Si  Si9       1.0  0.40533661  0.24852077000000003  0.5210064353233094  1.0000
  Si  Si10      1.0  0.20218887  0.6547544700000001  0.5314972663755568  1.0000
  Ni  Ni16      1.0  0.004566340000000066  0.55  0.5153906551004888  1.0000
  Ni  Ni17      1.0  0.8079494399999999  0.94521537  0.5274807050433483  1.0000
  Ni  Ni18      1.0  0.20456634000000004  0.15000000000000002  0.5039207769436361  1.0000
  Ni  Ni19      1.0  0.5978310800000001  0.35433513  0.5389608303903709  1.0000
  Ni  Ni20      1.0  0.4045663399999999  0.7500000000000001  0.49245089534581976  1.0000
  Ni  Ni21      1.0  0.90164123  0.25606008  0.5207454313378229  1.0000
  Ni  Ni22      1.0  0.7025449799999999  0.6540756000000002  0.5325327900188662  1.0000
  Ni  Ni23      1.0  0.10456634000000002  0.8500000000000001  0.5096557143015805  1.0000
  Ni  Ni24      1.0  0.49924667  0.06063689  0.5438524116098505  1.0000
  Ni  Ni25      1.0  0.30456634  0.45  0.49818583614472806  1.0000
  Ni  Ni26      1.0  0.50456634  0.55  0.5153906551004888  1.0000
  Ni  Ni27      1.0  0.30601565000000003  0.9451972000000001  0.5274826560698179  1.0000
  Ni  Ni28      1.0  0.70456634  0.15000000000000002  0.5039207769436361  1.0000
  Ni  Ni29      1.0  0.10686438000000009  0.35433943  0.5389632493879162  1.0000
  Ni  Ni30      1.0  0.9045663399999999  0.7500000000000001  0.49245089534581976  1.0000
