data_image0
_chemical_formula_structural       COSi12W6Si12W6
_chemical_formula_sum              "C1 O1 Si24 W12"
_cell_length_a       4.624765984123983
_cell_length_b       14.108769873789894
_cell_length_c       106.9981279
_cell_angle_alpha    109.13491712689489
_cell_angle_beta     119.99999997050223
_cell_angle_gamma    80.56684353627094

_space_group_name_H-M_alt    "P 1"
_space_group_IT_number       1

loop_
  _space_group_symop_operation_xyz
  'x, y, z'

loop_
  _atom_site_type_symbol
  _atom_site_label
  _atom_site_symmetry_multiplicity
  _atom_site_fract_x
  _atom_site_fract_y
  _atom_site_fract_z
  _atom_site_occupancy
  C   C1        1.0  0.441597425  0.87767454  0.5388747756629191  1.0000
  O   O1        1.0  0.590696955  0.9209938000000001  0.5521740407482996  1.0000
  Si  Si1       1.0  0.8465780450000001  0.41353603000000005  0.46943739338736246  1.0000
  Si  Si2       1.0  0.8465780450000001  0.91353603  0.4478259592517004  1.0000
  Si  Si3       1.0  0.17383060500000003  0.08020268999999998  0.4621021683527262  1.0000
  Si  Si4       1.0  0.17383060500000003  0.58020269  0.4837136024883883  1.0000
  Si  Si5       1.0  0.6829517650000001  0.24686936  0.4480887854112552  1.0000
  Si  Si6       1.0  0.6829517650000001  0.7468693600000001  0.4697002195469173  1.0000
  Si  Si7       1.0  0.17383060500000003  0.41353603000000005  0.455292599095029  1.0000
  Si  Si8       1.0  0.17383060500000003  0.91353603  0.4769040332306911  1.0000
  Si  Si9       1.0  0.8465780450000001  0.08020268999999998  0.47703544803938314  1.0000
  Si  Si10      1.0  0.8465780450000001  0.58020269  0.45542401390372106  1.0000
  Si  Si11      1.0  0.33745688500000004  0.24686936  0.4622335831614182  1.0000
  Si  Si12      1.0  0.33745688500000004  0.7468693600000001  0.4838450172970803  1.0000
  W   W1        1.0  0.010204325000000016  0.24686936  0.47677261842199886  1.0000
  W   W2        1.0  0.010204325000000016  0.7468693600000001  0.4551611842863368  1.0000
  W   W3        1.0  0.510204325  0.08020268999999998  0.44795737406039254  1.0000
  W   W4        1.0  0.510204325  0.58020269  0.4695688081960547  1.0000
  W   W5        1.0  0.510204325  0.41353603000000005  0.48397642864794305  1.0000
  W   W6        1.0  0.510204325  0.91353603  0.46236499451228097  1.0000
  Si  Si13      1.0  0.849482265  0.41546979  0.5140939711149054  1.0000
  Si  Si14      1.0  0.8465780450000001  0.91353603  0.49104882752302464  1.0000
  Si  Si15      1.0  0.182663555  0.07900619999999998  0.5063809159706475  1.0000
  Si  Si16      1.0  0.18153780500000005  0.57185737  0.5271798639176926  1.0000
  Si  Si17      1.0  0.6829517650000001  0.24686936  0.4913116536825794  1.0000
  Si  Si18      1.0  0.713440885  0.7533049700000001  0.515233509187499  1.0000
  Si  Si19      1.0  0.17383060500000003  0.41353603000000005  0.49851546736635316  1.0000
  Si  Si20      1.0  0.200680075  0.9192091600000001  0.5201083052951702  1.0000
  Si  Si21      1.0  0.8416055849999999  0.08560969999999998  0.5207668247113458  1.0000
  Si  Si22      1.0  0.8465780450000001  0.58020269  0.49864688217504527  1.0000
  Si  Si23      1.0  0.34523273500000007  0.24010625000000002  0.5063475686633188  1.0000
  Si  Si24      1.0  0.326096055  0.73649929  0.5266918639035915  1.0000
  W   W7        1.0  0.9897956750000001  0.24568120999999998  0.5184417732656358  1.0000
  W   W8        1.0  0.010204325000000016  0.7468693600000001  0.498384052557661  1.0000
  W   W9        1.0  0.510204325  0.08020268999999998  0.49118024233171675  1.0000
  W   W10       1.0  0.510067435  0.57842317  0.5123985385467301  1.0000
  W   W11       1.0  0.47369793500000007  0.40423819000000005  0.5250890838758425  1.0000
  W   W12       1.0  0.5144703150000001  0.9113762200000002  0.5056384508286299  1.0000
