data_image0
_chemical_formula_structural       COAu20Sn4
_chemical_formula_sum              "C1 O1 Au20 Sn4"
_cell_length_a       5.76880379
_cell_length_b       7.790593843575412
_cell_length_c       101.41517451
_cell_angle_alpha    90.0
_cell_angle_beta     90.0
_cell_angle_gamma    97.49830344897022

_space_group_name_H-M_alt    "P 1"
_space_group_IT_number       1

loop_
  _space_group_symop_operation_xyz
  'x, y, z'

loop_
  _atom_site_type_symbol
  _atom_site_label
  _atom_site_symmetry_multiplicity
  _atom_site_fract_x
  _atom_site_fract_y
  _atom_site_fract_z
  _atom_site_occupancy
  C   C1        1.0  0.5082623  0.17536577  0.5453398001846426  1.0000
  O   O1        1.0  0.51870112  0.17388909000000002  0.5569461406751225  1.0000
  Au  Au1       1.0  0.9319816299999999  0.8573784899999999  0.4430538593248774  1.0000
  Au  Au2       1.0  0.43198163  0.35737849  0.4688678572507132  1.0000
  Au  Au3       1.0  0.92812676  0.36365724  0.4773227576319549  1.0000
  Au  Au4       1.0  0.42812676000000005  0.86365724  0.4515087597061191  1.0000
  Au  Au5       1.0  0.09189255  0.52742303  0.4519580595859097  1.0000
  Au  Au6       1.0  0.59189255  0.027423030000000004  0.47777205751174556  1.0000
  Au  Au7       1.0  0.25565834  0.69118882  0.4773227576319549  1.0000
  Au  Au8       1.0  0.75565834  0.19118882  0.4515087597061191  1.0000
  Au  Au9       1.0  0.7518034699999999  0.69746757  0.4688678572507132  1.0000
  Au  Au10      1.0  0.25180347000000003  0.19746757  0.4430538593248774  1.0000
  Au  Au11      1.0  0.9319816299999999  0.8573784899999999  0.4946818582742289  1.0000
  Au  Au12      1.0  0.45189524999999997  0.37786797999999994  0.532340900804033  1.0000
  Au  Au13      1.0  0.9610616200000002  0.35700279999999995  0.5255006288854803  1.0000
  Au  Au14      1.0  0.4318287500000001  0.8681893  0.5030068140823939  1.0000
  Au  Au15      1.0  0.10014057999999999  0.5299513899999999  0.5016623002071257  1.0000
  Au  Au16      1.0  0.5406073399999999  0.99961536  0.5297818424080118  1.0000
  Au  Au17      1.0  0.24709208  0.67874078  0.5272874790561803  1.0000
  Au  Au18      1.0  0.74066819  0.19336771000000003  0.5027517139493273  1.0000
  Au  Au19      1.0  0.7487306499999999  0.68481203  0.5261706136749262  1.0000
  Au  Au20      1.0  0.25180347000000003  0.19746757  0.4946818582742289  1.0000
  Sn  Sn1       1.0  0.09189255  0.027423030000000004  0.4688678572507132  1.0000
  Sn  Sn2       1.0  0.59189255  0.52742303  0.4430538593248774  1.0000
  Sn  Sn3       1.0  0.03893838  0.0003846400000000033  0.5204309133414853  1.0000
  Sn  Sn4       1.0  0.59189255  0.52742303  0.4946818582742289  1.0000
