data_image0
_chemical_formula_structural       COFe9Pt9
_chemical_formula_sum              "C1 O1 Fe9 Pt9"
_cell_length_a       4.568642084446585
_cell_length_b       5.293740818524082
_cell_length_c       100.80235917
_cell_angle_alpha    87.07756747589579
_cell_angle_beta     86.6132383183691
_cell_angle_gamma    74.23709121093908

_space_group_name_H-M_alt    "P 1"
_space_group_IT_number       1

loop_
  _space_group_symop_operation_xyz
  'x, y, z'

loop_
  _atom_site_type_symbol
  _atom_site_label
  _atom_site_symmetry_multiplicity
  _atom_site_fract_x
  _atom_site_fract_y
  _atom_site_fract_z
  _atom_site_occupancy
  C   C1        1.0  0.63942319  0.6780575  0.5473935656248796  1.0000
  O   O1        1.0  0.67905112  0.65585322  0.5588230879815052  1.0000
  Fe  Fe1       1.0  0.7227359499999999  0.44307417  0.5090961164421322  1.0000
  Fe  Fe2       1.0  0.59152408  0.7114317499999999  0.5299302804006922  1.0000
  Fe  Fe3       1.0  0.17555191999999992  0.06543707  0.5202308506195964  1.0000
  Fe  Fe4       1.0  0.38888888999999993  0.5560940099999999  0.475129334820678  1.0000
  Fe  Fe5       1.0  0.2777777799999999  0.8153532699999999  0.4977642853926122  1.0000
  Fe  Fe6       1.0  0.83333333  0.18572363999999997  0.48644681010664514  1.0000
  Fe  Fe7       1.0  0.05555555999999995  0.66720512  0.44117691201849474  1.0000
  Fe  Fe8       1.0  0.9444444399999998  0.9264643800000001  0.463811862590429  1.0000
  Fe  Fe9       1.0  0.5  0.29683475  0.4524943873044619  1.0000
  Pt  Pt1       1.0  0.1510319199999999  0.57925  0.5212798114116078  1.0000
  Pt  Pt2       1.0  0.7319252400000001  0.94390599  0.5087246633519926  1.0000
  Pt  Pt3       1.0  0.6151257099999999  0.20706077999999997  0.5307425055456786  1.0000
  Pt  Pt4       1.0  0.83333333  0.68572364  0.48644681010664503  1.0000
  Pt  Pt5       1.0  0.38888888999999993  0.05609400999999999  0.4751293348206779  1.0000
  Pt  Pt6       1.0  0.27777777999999986  0.31535327  0.4977642853926122  1.0000
  Pt  Pt7       1.0  0.49999999999999994  0.7968347499999999  0.45249438730446184  1.0000
  Pt  Pt8       1.0  0.055555559999999914  0.16720512  0.44117691201849474  1.0000
  Pt  Pt9       1.0  0.94444444  0.42646438  0.463811862590429  1.0000
