data_image0
_chemical_formula_structural       Si9Pd18CO
_chemical_formula_sum              "Si9 Pd18 C1 O1"
_cell_length_a       11.39043548
_cell_length_b       7.466434794626108
_cell_length_c       99.86573917999999
_cell_angle_alpha    99.41908901149034
_cell_angle_beta     90.0
_cell_angle_gamma    40.290455491157566

_space_group_name_H-M_alt    "P 1"
_space_group_IT_number       1

loop_
  _space_group_symop_operation_xyz
  'x, y, z'

loop_
  _atom_site_type_symbol
  _atom_site_label
  _atom_site_symmetry_multiplicity
  _atom_site_fract_x
  _atom_site_fract_y
  _atom_site_fract_z
  _atom_site_occupancy
  Si  Si1       1.0  0.68435337  0.33950849499999997  0.4803986876094279  1.0000
  Si  Si2       1.0  0.017686699999999972  0.672841835  0.4554771127108033  1.0000
  Si  Si3       1.0  0.31328363  0.072271355  0.5076109610561033  1.0000
  Si  Si4       1.0  0.017686699999999972  0.33950849499999997  0.4803986876094279  1.0000
  Si  Si5       1.0  0.3510200299999999  0.672841835  0.4554771127108033  1.0000
  Si  Si6       1.0  0.6570469599999998  0.045380125  0.5062376406697108  1.0000
  Si  Si7       1.0  0.5176866999999999  0.006175164999999998  0.46793789866482105  1.0000
  Si  Si8       1.0  0.8226335400000001  0.39752942500000005  0.516252139686773  1.0000
  Si  Si9       1.0  0.17748041999999992  0.685712765  0.4938638509528291  1.0000
  Pd  Pd1       1.0  0.9325255499999999  0.171620085  0.49163062853683437  1.0000
  Pd  Pd2       1.0  0.26256865999999995  0.516411245  0.4671726009310442  1.0000
  Pd  Pd3       1.0  0.5697990100000001  0.8940769350000001  0.5179107951704971  1.0000
  Pd  Pd4       1.0  0.59590199  0.5843904550000001  0.46209015455470065  1.0000
  Pd  Pd5       1.0  0.8854739899999999  0.9938248350000001  0.5144821086835089  1.0000
  Pd  Pd6       1.0  0.26256866  0.25105712500000005  0.4870117294533251  1.0000
  Pd  Pd7       1.0  0.8612561099999997  0.5843904550000001  0.46209015455470065  1.0000
  Pd  Pd8       1.0  0.15896224999999997  0.9755712750000001  0.5126049428160591  1.0000
  Pd  Pd9       1.0  0.5279227799999999  0.25105712500000005  0.4870117294533251  1.0000
  Pd  Pd10      1.0  0.64897997  0.743588625  0.48757011131734607  1.0000
  Pd  Pd11      1.0  0.9823133000000001  0.07692195500000001  0.46264853641872156  1.0000
  Pd  Pd12      1.0  0.303075  0.431847245  0.511938379381665  1.0000
  Pd  Pd13      1.0  0.3156466399999998  0.8041351050000001  0.48304337022777216  1.0000
  Pd  Pd14      1.0  0.64897997  0.13746843499999997  0.45812179532914765  1.0000
  Pd  Pd15      1.0  0.9521177199999997  0.5148421750000001  0.5059314372415873  1.0000
  Pd  Pd16      1.0  0.9217668299999998  0.8041351050000001  0.48304337022777216  1.0000
  Pd  Pd17      1.0  0.25510016  0.13746843499999997  0.45812179532914765  1.0000
  Pd  Pd18      1.0  0.5627753999999998  0.534039005  0.5055371490018926  1.0000
  C   C1        1.0  0.76417814  0.13048368500000002  0.5338001898561864  1.0000
  O   O1        1.0  0.66857846  0.242567845  0.5445228872891966  1.0000
