data_image0
_chemical_formula_structural       COSi12Pd12
_chemical_formula_sum              "C1 O1 Si12 Pd12"
_cell_length_a       6.645793911138475
_cell_length_b       7.122078661395825
_cell_length_c       106.37453595
_cell_angle_alpha    66.01097415591707
_cell_angle_beta     70.90145530898528
_cell_angle_gamma    75.06764605677924

_space_group_name_H-M_alt    "P 1"
_space_group_IT_number       1

loop_
  _space_group_symop_operation_xyz
  'x, y, z'

loop_
  _atom_site_type_symbol
  _atom_site_label
  _atom_site_symmetry_multiplicity
  _atom_site_fract_x
  _atom_site_fract_y
  _atom_site_fract_z
  _atom_site_occupancy
  C   C1        1.0  0.21381394500000003  0.8227637800000001  0.5376581443144635  1.0000
  O   O1        1.0  0.18830306500000005  0.70452477  0.5496835243237892  1.0000
  Si  Si1       1.0  0.015624125000000004  0.46350381  0.49463122501263895  1.0000
  Si  Si2       1.0  0.34895745499999997  0.79683714  0.4661355781846894  1.0000
  Si  Si3       1.0  0.6819457050000002  0.14525153000000005  0.5229703589242125  1.0000
  Si  Si4       1.0  0.34247490499999994  0.06041810000000002  0.5234343615388531  1.0000
  Si  Si5       1.0  0.6613006550000001  0.31752906  0.494605732805967  1.0000
  Si  Si6       1.0  0.9946339850000001  0.6508623900000001  0.46611008597801745  1.0000
  Si  Si7       1.0  0.5643817750000002  0.8659885  0.49046308337710043  1.0000
  Si  Si8       1.0  0.8977151050000002  0.19932183000000003  0.46196743654915096  1.0000
  Si  Si9       1.0  0.24206130500000003  0.5548131000000001  0.5191827162565098  1.0000
  Si  Si10      1.0  0.8212881350000001  0.61448534  0.5254038542057089  1.0000
  Si  Si11      1.0  0.11673225500000002  0.91262995  0.49860474365220947  1.0000
  Si  Si12      1.0  0.445876335  0.2483777  0.4702782276135561  1.0000
  Pd  Pd1       1.0  0.694190685  0.9395819000000001  0.5070079563614074  1.0000
  Pd  Pd2       1.0  0.027591315  0.26648959000000005  0.47881212250416016  1.0000
  Pd  Pd3       1.0  0.3609246549999999  0.5998229300000001  0.45031647567621075  1.0000
  Pd  Pd4       1.0  0.6465403750000002  0.52563414  0.5105050562626046  1.0000
  Pd  Pd5       1.0  0.9826667950000002  0.8478766100000001  0.48192918848649624  1.0000
  Pd  Pd6       1.0  0.3160001250000001  0.18120994  0.45343354165854693  1.0000
  Pd  Pd7       1.0  0.32164148499999995  0.17838926  0.4964181449231391  1.0000
  Pd  Pd8       1.0  0.6549748150000001  0.51172259  0.4679224946757119  1.0000
  Pd  Pd9       1.0  0.005366015000000008  0.88337991  0.523709964607042  1.0000
  Pd  Pd10      1.0  0.021531875000000002  0.30770850000000005  0.5201896977440469  1.0000
  Pd  Pd11      1.0  0.355283295  0.60264361  0.49281881631494456  1.0000
  Pd  Pd12      1.0  0.6886166250000002  0.9359769400000001  0.4643231660675174  1.0000
