data_image0
_chemical_formula_structural       COSb24Pd12
_chemical_formula_sum              "C1 O1 Sb24 Pd12"
_cell_length_a       6.61050036
_cell_length_b       14.781528165212126
_cell_length_c       32.60536295
_cell_angle_alpha    108.43494882292202
_cell_angle_beta     90.0
_cell_angle_gamma    90.0

_space_group_name_H-M_alt    "P 1"
_space_group_IT_number       1

loop_
  _space_group_symop_operation_xyz
  'x, y, z'

loop_
  _atom_site_type_symbol
  _atom_site_label
  _atom_site_symmetry_multiplicity
  _atom_site_fract_x
  _atom_site_fract_y
  _atom_site_fract_z
  _atom_site_occupancy
  C   C1        1.0  0.09652652499999997  0.41571347500000005  0.6148674596083514  1.0000
  O   O1        1.0  0.11702020499999996  0.445765125  0.6521108763447858  1.0000
  Sb  Sb1       1.0  0.590265995  0.705789915  0.5651813151762686  1.0000
  Sb  Sb2       1.0  0.6648332549999999  0.370649635  0.37137049228860486  1.0000
  Sb  Sb3       1.0  0.6648332549999999  0.037316304999999994  0.4669443288472276  1.0000
  Sb  Sb4       1.0  0.17487990499999995  0.5378194350000001  0.5392262508847715  1.0000
  Sb  Sb5       1.0  0.16483325499999996  0.20398297499999996  0.3487132989333145  1.0000
  Sb  Sb6       1.0  0.16483325499999996  0.8706496349999999  0.444287146960798  1.0000
  Sb  Sb7       1.0  0.41052151499999995  0.9525457249999999  0.3478891236552143  1.0000
  Sb  Sb8       1.0  0.41052151499999995  0.6192123949999999  0.44346296021383713  1.0000
  Sb  Sb9       1.0  0.451577025  0.293052825  0.5388420325775768  1.0000
  Sb  Sb10      1.0  0.910521515  0.622086885  0.3721946675667049  1.0000
  Sb  Sb11      1.0  0.910521515  0.288753555  0.4677685155941886  1.0000
  Sb  Sb12      1.0  0.8512044549999999  0.9651488349999999  0.562018868548929  1.0000
  Sb  Sb13      1.0  0.41052151499999995  0.703982975  0.34871329893331443  1.0000
  Sb  Sb14      1.0  0.41052151499999995  0.370649635  0.4442871469607981  1.0000
  Sb  Sb15      1.0  0.39342929499999996  0.03740751499999999  0.5400010985923739  1.0000
  Sb  Sb16      1.0  0.910521515  0.8706496349999999  0.3713704922886048  1.0000
  Sb  Sb17      1.0  0.910521515  0.537316305  0.46694432884722764  1.0000
  Sb  Sb18      1.0  0.958323845  0.19395962499999997  0.5684395382605314  1.0000
  Sb  Sb19      1.0  0.696677675  0.469144495  0.5631770743991628  1.0000
  Sb  Sb20      1.0  0.6648332549999999  0.12208688499999999  0.37219466756670483  1.0000
  Sb  Sb21      1.0  0.6648332549999999  0.7887535549999999  0.4677685155941885  1.0000
  Sb  Sb22      1.0  0.11593438499999997  0.7946092849999998  0.5404843849195546  1.0000
  Sb  Sb23      1.0  0.16483325499999996  0.452545725  0.3478891236552144  1.0000
  Sb  Sb24      1.0  0.16483325499999996  0.119212395  0.4434629602138372  1.0000
  Pd  Pd1       1.0  0.03767738499999998  0.703982975  0.4556157436384432  1.0000
  Pd  Pd2       1.0  0.05515594499999998  0.364883445  0.551583615849145  1.0000
  Pd  Pd3       1.0  0.03767738499999998  0.037316304999999994  0.3600418956109596  1.0000
  Pd  Pd4       1.0  0.5010855949999999  0.8642739849999999  0.5458168203009435  1.0000
  Pd  Pd5       1.0  0.537677385  0.537316305  0.36004189561095956  1.0000
  Pd  Pd6       1.0  0.537677385  0.20398297499999996  0.45561574363844326  1.0000
  Pd  Pd7       1.0  0.9699515049999999  0.6897967150000001  0.5849888292083448  1.0000
  Pd  Pd8       1.0  0.03767738499999998  0.370649635  0.40782881962470147  1.0000
  Pd  Pd9       1.0  0.030048494999999977  0.03485116499999999  0.5018059499075127  1.0000
  Pd  Pd10      1.0  0.539527515  0.536721755  0.5015408013136188  1.0000
  Pd  Pd11      1.0  0.573732185  0.19387573500000002  0.5876981296748065  1.0000
  Pd  Pd12      1.0  0.537677385  0.8706496349999999  0.4078288196247015  1.0000
