data_image0
_chemical_formula_structural       COGa20Rh12
_chemical_formula_sum              "C1 O1 Ga20 Rh12"
_cell_length_a       10.507849487722922
_cell_length_b       6.758128018377415
_cell_length_c       103.279954
_cell_angle_alpha    72.37134577027005
_cell_angle_beta     116.38360059142323
_cell_angle_gamma    92.85759986756213

_space_group_name_H-M_alt    "P 1"
_space_group_IT_number       1

loop_
  _space_group_symop_operation_xyz
  'x, y, z'

loop_
  _atom_site_type_symbol
  _atom_site_label
  _atom_site_symmetry_multiplicity
  _atom_site_fract_x
  _atom_site_fract_y
  _atom_site_fract_z
  _atom_site_occupancy
  C   C1        1.0  0.457727535  0.32134774499999996  0.5536011228294588  1.0000
  O   O1        1.0  0.379041445  0.21619016499999996  0.5565783008924265  1.0000
  Ga  Ga1       1.0  0.9076731949999999  0.6581866749999999  0.5122317048540096  1.0000
  Ga  Ga2       1.0  0.395790025  0.7049316149999999  0.46803964735400905  1.0000
  Ga  Ga3       1.0  0.13315352499999997  0.610940795  0.45326237450519197  1.0000
  Ga  Ga4       1.0  0.633153525  0.6109407949999998  0.49354119037298366  1.0000
  Ga  Ga5       1.0  0.597900985  0.324155855  0.5202095462415428  1.0000
  Ga  Ga6       1.0  0.08047101499999997  0.335941935  0.4824362177244648  1.0000
  Ga  Ga7       1.0  0.47664753499999996  0.9562950149999999  0.5183260185870173  1.0000
  Ga  Ga8       1.0  0.948472535  0.9799304750000001  0.4791446200025277  1.0000
  Ga  Ga9       1.0  0.8758665549999999  0.30079256499999996  0.4475409394933514  1.0000
  Ga  Ga10      1.0  0.375866555  0.300792565  0.4878197553611431  1.0000
  Ga  Ga11      1.0  0.15167381499999996  0.02325223499999997  0.5141351463551  1.0000
  Ga  Ga12      1.0  0.6530769949999999  0.015079844999999958  0.4737610823658495  1.0000
  Ga  Ga13      1.0  0.14189905499999997  0.6348144250000001  0.5022263471009869  1.0000
  Ga  Ga14      1.0  0.6102235549999999  0.6315348449999998  0.45852671584764887  1.0000
  Ga  Ga15      1.0  0.9187200049999998  0.6843375649999999  0.462775306011552  1.0000
  Ga  Ga16      1.0  0.41208627499999995  0.6674147049999999  0.5038742501272963  1.0000
  Ga  Ga17      1.0  0.16712160499999995  0.06417041499999997  0.4651786366183092  1.0000
  Ga  Ga18      1.0  0.671188115  0.06449464499999995  0.505549784421291  1.0000
  Ga  Ga19      1.0  0.8533227849999999  0.250385075  0.49514447091592206  1.0000
  Ga  Ga20      1.0  0.361821945  0.25170199499999996  0.4561233820185864  1.0000
  Rh  Rh1       1.0  0.6772970450000001  0.6839159749999999  0.5168271665132502  1.0000
  Rh  Rh2       1.0  0.20273091499999996  0.6717116649999999  0.4778803227516274  1.0000
  Rh  Rh3       1.0  0.326212635  0.6441607449999999  0.44342169910757356  1.0000
  Rh  Rh4       1.0  0.826212635  0.6441607449999998  0.48370051497536526  1.0000
  Rh  Rh5       1.0  0.721765825  0.9849201550000001  0.45320029679417645  1.0000
  Rh  Rh6       1.0  0.22176582499999997  0.9849201549999999  0.4934791126619682  1.0000
  Rh  Rh7       1.0  0.31145507499999997  0.306776905  0.507919432271067  1.0000
  Rh  Rh8       1.0  0.807177725  0.330952255  0.4681017250650245  1.0000
  Rh  Rh9       1.0  0.9368984449999999  0.9714108249999999  0.5194737586117121  1.0000
  Rh  Rh10      1.0  0.453192835  0.9627425849999999  0.4821544464624854  1.0000
  Rh  Rh11      1.0  0.05152746499999998  0.35403855500000003  0.5147104857386504  1.0000
  Rh  Rh12      1.0  0.575750715  0.353129825  0.479426388042202  1.0000
