data_image0
_chemical_formula_structural       COGa12Pt8Ga12Pt8
_chemical_formula_sum              "C1 O1 Ga24 Pt16"
_cell_length_a       11.555007856924949
_cell_length_b       7.47149323
_cell_length_c       100.19568041
_cell_angle_alpha    90.0
_cell_angle_beta     79.24218891678383
_cell_angle_gamma    71.13732130967888

_space_group_name_H-M_alt    "P 1"
_space_group_IT_number       1

loop_
  _space_group_symop_operation_xyz
  'x, y, z'

loop_
  _atom_site_type_symbol
  _atom_site_label
  _atom_site_symmetry_multiplicity
  _atom_site_fract_x
  _atom_site_fract_y
  _atom_site_fract_z
  _atom_site_occupancy
  C   C1        1.0  0.31601441500000005  0.08805234500000002  0.5470748771759654  1.0000
  O   O1        1.0  0.30464643500000005  0.02177455499999998  0.5574472361782475  1.0000
  Ga  Ga1       1.0  0.5547623750000001  0.210397105  0.521239297559608  1.0000
  Ga  Ga2       1.0  0.04382627500000003  0.47030151500000006  0.48738812490892247  1.0000
  Ga  Ga3       1.0  0.03899920500000002  0.978225445  0.5105225422767902  1.0000
  Ga  Ga4       1.0  0.5523824549999999  0.7165930149999999  0.4976621990628778  1.0000
  Ga  Ga5       1.0  0.865609975  0.22607633500000002  0.49122444958050016  1.0000
  Ga  Ga6       1.0  0.36396162500000007  0.4712281549999999  0.5013515650877864  1.0000
  Ga  Ga7       1.0  0.38471942500000006  0.9418266650000001  0.5223766900991451  1.0000
  Ga  Ga8       1.0  0.8679652950000001  0.710489435  0.5127925326054984  1.0000
  Ga  Ga9       1.0  0.722042575  0.964526705  0.4943149118056  1.0000
  Ga  Ga10      1.0  0.20541906500000004  0.234002565  0.5069579151031709  1.0000
  Ga  Ga11      1.0  0.23644843500000004  0.6764249250000001  0.5252070966368861  1.0000
  Ga  Ga12      1.0  0.720989115  0.47396277500000006  0.5171444481454773  1.0000
  Pt  Pt1       1.0  0.6266517650000001  0.34555544499999996  0.4963683156356862  1.0000
  Pt  Pt2       1.0  0.113321155  0.613904665  0.508560187471254  1.0000
  Pt  Pt3       1.0  0.12665176500000003  0.09555544500000002  0.4856052040674311  1.0000
  Pt  Pt4       1.0  0.630909185  0.8491337250000001  0.5166983525275106  1.0000
  Pt  Pt5       1.0  0.961000795  0.845047595  0.489171045750414  1.0000
  Pt  Pt6       1.0  0.44327463500000003  0.10426273500000006  0.49989136319220895  1.0000
  Pt  Pt7       1.0  0.47324670500000005  0.574909845  0.520269296355289  1.0000
  Pt  Pt8       1.0  0.9584303750000001  0.337957515  0.5101422290667368  1.0000
  Ga  Ga13      1.0  0.5438262750000001  0.22030151500000003  0.47662501635433835  1.0000
  Ga  Ga14      1.0  0.04382627500000003  0.47030151500000006  0.44433568466324397  1.0000
  Ga  Ga15      1.0  0.04382627500000003  0.9703015150000001  0.46586190478608325  1.0000
  Ga  Ga16      1.0  0.5438262750000001  0.7203015150000001  0.45509879321782826  1.0000
  Ga  Ga17      1.0  0.865609975  0.22607633500000002  0.4481720063211508  1.0000
  Ga  Ga18      1.0  0.36560997500000003  0.476076335  0.45893511788940583  1.0000
  Ga  Ga19      1.0  0.36560997500000003  0.976076335  0.4804613380122451  1.0000
  Ga  Ga20      1.0  0.865609975  0.726076335  0.46969822945766093  1.0000
  Ga  Ga21      1.0  0.722042575  0.964526705  0.45126247155992144  1.0000
  Ga  Ga22      1.0  0.22204257500000005  0.214526705  0.4620255801145057  1.0000
  Ga  Ga23      1.0  0.22204257500000005  0.714526705  0.48355180325101577  1.0000
  Ga  Ga24      1.0  0.722042575  0.46452670500000004  0.47278869168276066  1.0000
  Pt  Pt9       1.0  0.6266517650000001  0.34555544499999996  0.45331587539000767  1.0000
  Pt  Pt10      1.0  0.12665176500000003  0.5955554449999999  0.46407898394459185  1.0000
  Pt  Pt11      1.0  0.12665176500000003  0.09555544500000002  0.44255276382175257  1.0000
  Pt  Pt12      1.0  0.6266517650000001  0.845555445  0.47484209551284695  1.0000
  Pt  Pt13      1.0  0.961000795  0.845047595  0.44611860249106455  1.0000
  Pt  Pt14      1.0  0.4610007950000001  0.09504759500000001  0.45688171405931965  1.0000
  Pt  Pt15      1.0  0.4610007950000001  0.595047595  0.47840793418215893  1.0000
  Pt  Pt16      1.0  0.961000795  0.34504759499999993  0.46764482562757476  1.0000
