data_image0
_chemical_formula_structural       COCo4Sb8Co4Sb8
_chemical_formula_sum              "C1 O1 Co8 Sb16"
_cell_length_a       6.58116386
_cell_length_b       6.624025669572727
_cell_length_c       31.260047319999998
_cell_angle_alpha    90.0
_cell_angle_beta     90.0
_cell_angle_gamma    117.19775067409826

_space_group_name_H-M_alt    "P 1"
_space_group_IT_number       1

loop_
  _space_group_symop_operation_xyz
  'x, y, z'

loop_
  _atom_site_type_symbol
  _atom_site_label
  _atom_site_symmetry_multiplicity
  _atom_site_fract_x
  _atom_site_fract_y
  _atom_site_fract_z
  _atom_site_occupancy
  C   C1        1.0  0.461781985  0.7135363549999998  0.7235148811069824  1.0000
  O   O1        1.0  0.594403785  0.838636455  0.7467944840088827  1.0000
  Co  Co1       1.0  0.7409660349999999  0.662736905  0.46005973311999404  1.0000
  Co  Co2       1.0  0.29293377499999995  0.735583225  0.5634999594636515  1.0000
  Co  Co3       1.0  0.2820631350000001  0.22805366499999996  0.45975219338537193  1.0000
  Co  Co4       1.0  0.732462265  0.15502215499999997  0.5613217760804851  1.0000
  Sb  Sb1       1.0  0.6701940249999999  0.7765362649999998  0.5957423206462028  1.0000
  Sb  Sb2       1.0  0.3600905850000001  0.611777005  0.48972737848511455  1.0000
  Sb  Sb3       1.0  0.36009058499999996  0.111777005  0.5333578805209787  1.0000
  Sb  Sb4       1.0  0.686305095  0.305702015  0.635396072177458  1.0000
  Sb  Sb5       1.0  0.864506985  0.575201775  0.5342009007679028  1.0000
  Sb  Sb6       1.0  0.23056134500000003  0.924798225  0.6311079649557051  1.0000
  Sb  Sb7       1.0  0.13549301500000005  0.317235915  0.593667518003938  1.0000
  Sb  Sb8       1.0  0.864506985  0.07520177499999998  0.4888843582381904  1.0000
  Co  Co5       1.0  0.7409660349999999  0.662736905  0.2535130681185398  1.0000
  Co  Co6       1.0  0.28206313499999996  0.7280536649999999  0.356786400619267  1.0000
  Co  Co7       1.0  0.2820631350000001  0.22805366499999996  0.2532055159911173  1.0000
  Co  Co8       1.0  0.740966035  0.162736905  0.35647884849184447  1.0000
  Sb  Sb9       1.0  0.662938585  0.7790135649999999  0.3864540459843874  1.0000
  Sb  Sb10      1.0  0.3600905850000001  0.611777005  0.28318070109086  1.0000
  Sb  Sb11      1.0  0.36009058499999996  0.111777005  0.32681120312672385  1.0000
  Sb  Sb12      1.0  0.6629385849999999  0.27901356499999996  0.4300845480202515  1.0000
  Sb  Sb13      1.0  0.864506985  0.575201775  0.3276542357664485  1.0000
  Sb  Sb14      1.0  0.158522185  0.8155887949999999  0.43092756826717565  1.0000
  Sb  Sb15      1.0  0.158522185  0.315588795  0.38561101334466275  1.0000
  Sb  Sb16      1.0  0.864506985  0.07520177499999998  0.28233768084393557  1.0000
