data_image0
_chemical_formula_structural       COAl6Cu2Al6Cu2Al6Cu2Al6Cu2Al6Cu2Al6Cu2
_chemical_formula_sum              "C1 O1 Al36 Cu12"
_cell_length_a       5.63409662
_cell_length_b       15.797347405985402
_cell_length_c       100.98753135999999
_cell_angle_alpha    100.27216059909323
_cell_angle_beta     90.0
_cell_angle_gamma    90.0

_space_group_name_H-M_alt    "P 1"
_space_group_IT_number       1

loop_
  _space_group_symop_operation_xyz
  'x, y, z'

loop_
  _atom_site_type_symbol
  _atom_site_label
  _atom_site_symmetry_multiplicity
  _atom_site_fract_x
  _atom_site_fract_y
  _atom_site_fract_z
  _atom_site_occupancy
  C   C1        1.0  0.37579351  0.418070775  0.5415820123527945  1.0000
  O   O1        1.0  0.3757886999999999  0.38444429500000005  0.5509611416044902  1.0000
  Al  Al1       1.0  0.12579153999999998  0.302646155  0.44903885839550983  1.0000
  Al  Al2       1.0  0.12579153999999998  0.802646155  0.46298636532642573  1.0000
  Al  Al3       1.0  0.37579154  0.44053446500000004  0.46683276098167065  1.0000
  Al  Al4       1.0  0.37579154  0.940534465  0.4528852540507547  1.0000
  Al  Al5       1.0  0.37579154  0.16475784499999996  0.4591399696711809  1.0000
  Al  Al6       1.0  0.37579154  0.664757845  0.4730874735336456  1.0000
  Cu  Cu1       1.0  0.12579153999999998  0.05264615499999997  0.4699601172576581  1.0000
  Cu  Cu2       1.0  0.12579153999999998  0.5526461549999999  0.4560126103267421  1.0000
  Al  Al7       1.0  0.12579153999999998  0.302646155  0.47693386918889047  1.0000
  Al  Al8       1.0  0.12579153999999998  0.802646155  0.49088137611980637  1.0000
  Al  Al9       1.0  0.37579154  0.44053446500000004  0.4947277717750512  1.0000
  Al  Al10      1.0  0.37579154  0.940534465  0.48078026484413533  1.0000
  Al  Al11      1.0  0.37579154  0.16475784499999996  0.4870349804645615  1.0000
  Al  Al12      1.0  0.37577627999999996  0.6647491850000001  0.500705605699825  1.0000
  Cu  Cu3       1.0  0.12582503999999997  0.05168153499999997  0.49685782617308094  1.0000
  Cu  Cu4       1.0  0.12579153999999998  0.5526461549999999  0.48390762418857397  1.0000
  Al  Al13      1.0  0.12884329999999997  0.30333824499999995  0.5061058834625505  1.0000
  Al  Al14      1.0  0.12517175999999997  0.807438155  0.5178493280205106  1.0000
  Al  Al15      1.0  0.3757968399999999  0.44031568499999996  0.5222695700802816  1.0000
  Al  Al16      1.0  0.37580186000000004  0.9483202750000002  0.5101506207360728  1.0000
  Al  Al17      1.0  0.3758036999999999  0.168411695  0.5150933556007862  1.0000
  Al  Al18      1.0  0.37577777999999995  0.6804243650000001  0.5283986755816495  1.0000
  Cu  Cu5       1.0  0.12418633999999996  0.062408174999999975  0.5246360056863378  1.0000
  Cu  Cu6       1.0  0.13045641999999996  0.555865535  0.512626655282732  1.0000
  Al  Al19      1.0  0.6257915399999999  0.302646155  0.44903885839550983  1.0000
  Al  Al20      1.0  0.6257915399999999  0.802646155  0.46298636532642573  1.0000
  Al  Al21      1.0  0.8757915399999999  0.44053446500000004  0.46683276098167065  1.0000
  Al  Al22      1.0  0.8757915399999999  0.940534465  0.4528852540507547  1.0000
  Al  Al23      1.0  0.8757915399999999  0.16475784499999996  0.4591399696711809  1.0000
  Al  Al24      1.0  0.8757915399999999  0.664757845  0.4730874735336456  1.0000
  Cu  Cu7       1.0  0.6257915399999999  0.05264615499999997  0.4699601172576581  1.0000
  Cu  Cu8       1.0  0.6257915399999999  0.5526461549999999  0.4560126103267421  1.0000
  Al  Al25      1.0  0.6257915399999999  0.302646155  0.47693386918889047  1.0000
  Al  Al26      1.0  0.6257915399999999  0.802646155  0.49088137611980637  1.0000
  Al  Al27      1.0  0.8757915399999999  0.44053446500000004  0.4947277717750512  1.0000
  Al  Al28      1.0  0.8757915399999999  0.940534465  0.48078026484413533  1.0000
  Al  Al29      1.0  0.8757915399999999  0.16475784499999996  0.4870349804645615  1.0000
  Al  Al30      1.0  0.87573133  0.664804615  0.5006540864038755  1.0000
  Cu  Cu9       1.0  0.62575054  0.051679724999999975  0.4968578476522395  1.0000
  Cu  Cu10      1.0  0.6257915399999999  0.5526461549999999  0.48390762418857397  1.0000
  Al  Al31      1.0  0.6228186899999999  0.30333897499999996  0.5061062670189527  1.0000
  Al  Al32      1.0  0.62641019  0.807429195  0.5178479165329505  1.0000
  Al  Al33      1.0  0.87581366  0.43776804500000005  0.5214997416964646  1.0000
  Al  Al34      1.0  0.8757840100000001  0.9477247750000002  0.5102106549841521  1.0000
  Al  Al35      1.0  0.87579575  0.169529185  0.5151049113880729  1.0000
  Al  Al36      1.0  0.8757900499999999  0.6776864349999999  0.5281317694209069  1.0000
  Cu  Cu11      1.0  0.62739587  0.06240672499999997  0.5246361529719963  1.0000
  Cu  Cu12      1.0  0.6211435099999999  0.555876765  0.5126259403335981  1.0000
