data_image0
_chemical_formula_structural       COAl6Ni12Al6Ni12
_chemical_formula_sum              "C1 O1 Al12 Ni24"
_cell_length_a       5.00563781
_cell_length_b       10.745033485863443
_cell_length_c       102.48992736
_cell_angle_alpha    79.10660534802065
_cell_angle_beta     90.0
_cell_angle_gamma    90.0

_space_group_name_H-M_alt    "P 1"
_space_group_IT_number       1

loop_
  _space_group_symop_operation_xyz
  'x, y, z'

loop_
  _atom_site_type_symbol
  _atom_site_label
  _atom_site_symmetry_multiplicity
  _atom_site_fract_x
  _atom_site_fract_y
  _atom_site_fract_z
  _atom_site_occupancy
  C   C1        1.0  0.5349406150000001  0.9763630649999999  0.5386938523642464  1.0000
  O   O1        1.0  0.5387298349999999  0.9653238749999998  0.5502703745149856  1.0000
  Al  Al1       1.0  0.192208365  0.7795429849999999  0.48495252309726466  1.0000
  Al  Al2       1.0  0.192208365  0.44620964500000004  0.4717439364926709  1.0000
  Al  Al3       1.0  0.192208365  0.11287631500000002  0.4585353498880771  1.0000
  Al  Al4       1.0  0.8110580449999999  0.557320765  0.4497296254850145  1.0000
  Al  Al5       1.0  0.8110580449999999  0.22398742500000002  0.4761467986942021  1.0000
  Al  Al6       1.0  0.8110580449999999  0.890654095  0.4629382120896084  1.0000
  Ni  Ni1       1.0  0.688292175  0.7795429849999999  0.48495252309726466  1.0000
  Ni  Ni2       1.0  0.688292175  0.44620964500000004  0.4717439364926709  1.0000
  Ni  Ni3       1.0  0.688292175  0.11287631500000002  0.4585353498880771  1.0000
  Ni  Ni4       1.0  0.314974235  0.557320765  0.4497296254850145  1.0000
  Ni  Ni5       1.0  0.314974235  0.22398742500000002  0.4761467986942021  1.0000
  Ni  Ni6       1.0  0.314974235  0.890654095  0.4629382120896084  1.0000
  Ni  Ni7       1.0  0.501633205  0.668431875  0.46734107429113964  1.0000
  Ni  Ni8       1.0  0.501633205  0.335098535  0.45413248768654585  1.0000
  Ni  Ni9       1.0  0.501633205  0.0017652050000000151  0.4805496608957334  1.0000
  Ni  Ni10      1.0  0.0016332050000000024  0.668431875  0.46734107429113964  1.0000
  Ni  Ni11      1.0  0.0016332050000000024  0.335098535  0.45413248768654585  1.0000
  Ni  Ni12      1.0  0.0016332050000000024  0.0017652050000000151  0.4805496608957334  1.0000
  Al  Al7       1.0  0.229154735  0.772318585  0.5230492042136783  1.0000
  Al  Al8       1.0  0.20655034500000002  0.447895775  0.5118989886331544  1.0000
  Al  Al9       1.0  0.191352815  0.11307452500000001  0.49790458523358927  1.0000
  Al  Al10      1.0  0.8110580449999999  0.557320765  0.4893553821287355  1.0000
  Al  Al11      1.0  0.826163775  0.21486570500000002  0.516172997384262  1.0000
  Al  Al12      1.0  0.835431295  0.8913757449999998  0.5021452290976027  1.0000
  Ni  Ni13      1.0  0.7362634650000001  0.7785133550000001  0.5230975825074495  1.0000
  Ni  Ni14      1.0  0.702487285  0.440991945  0.5111779234945995  1.0000
  Ni  Ni15      1.0  0.680630765  0.109684815  0.49833427425839166  1.0000
  Ni  Ni16      1.0  0.314974235  0.557320765  0.4893553821287355  1.0000
  Ni  Ni17      1.0  0.32650157500000004  0.22084300500000004  0.5153240520038662  1.0000
  Ni  Ni18      1.0  0.34634767499999997  0.8934950550000001  0.5019638065333851  1.0000
  Ni  Ni19      1.0  0.5003972050000001  0.659526065  0.5078767524295795  1.0000
  Ni  Ni20      1.0  0.501633205  0.335098535  0.4937582443302668  1.0000
  Ni  Ni21      1.0  0.527483305  0.9946229150000002  0.5213461652745839  1.0000
  Ni  Ni22      1.0  0.9983667950000001  0.660568315  0.5070998593550045  1.0000
  Ni  Ni23      1.0  0.0016332050000000024  0.335098535  0.4937582443302668  1.0000
  Ni  Ni24      1.0  0.031800985000000004  0.9982347949999999  0.5190554066231315  1.0000
