data_image0
_chemical_formula_structural       COAl12Co6Ir6
_chemical_formula_sum              "C1 O1 Al12 Co6 Ir6"
_cell_length_a       7.260959960992311
_cell_length_b       5.92854898
_cell_length_c       101.92621334
_cell_angle_alpha    90.0
_cell_angle_beta     85.65224688105782
_cell_angle_gamma    114.09484254172338

_space_group_name_H-M_alt    "P 1"
_space_group_IT_number       1

loop_
  _space_group_symop_operation_xyz
  'x, y, z'

loop_
  _atom_site_type_symbol
  _atom_site_label
  _atom_site_symmetry_multiplicity
  _atom_site_fract_x
  _atom_site_fract_y
  _atom_site_fract_z
  _atom_site_occupancy
  C   C1        1.0  0.5310295700000001  0.46689387499999996  0.5390734283102451  1.0000
  O   O1        1.0  0.59971501  0.4860662349999999  0.5491647605705106  1.0000
  Al  Al1       1.0  0.37331626  0.9116408049999998  0.5213614990944518  1.0000
  Al  Al2       1.0  0.0625  0.7547491249999999  0.4704120319773878  1.0000
  Al  Al3       1.0  0.23215041  0.339812925  0.4962395878880785  1.0000
  Al  Al4       1.0  0.3845658099999999  0.4138214949999999  0.5223243640591277  1.0000
  Al  Al5       1.0  0.0625  0.25474912499999997  0.4704120319773878  1.0000
  Al  Al6       1.0  0.23027129  0.8371949849999998  0.49636894820094823  1.0000
  Al  Al7       1.0  0.47916665999999997  0.46308245499999995  0.45736083903364677  1.0000
  Al  Al8       1.0  0.6458333299999999  0.046415784999999966  0.4834632280534156  1.0000
  Al  Al9       1.0  0.8224448999999999  0.6382683549999999  0.5105426650325252  1.0000
  Al  Al10      1.0  0.47916665999999997  0.9630824549999999  0.45736083903364677  1.0000
  Al  Al11      1.0  0.6458333299999999  0.5464157849999999  0.4834632280534156  1.0000
  Al  Al12      1.0  0.81638397  0.1256485649999999  0.510487640150175  1.0000
  Co  Co1       1.0  0.35416666  0.150582455  0.47693763158154506  1.0000
  Co  Co2       1.0  0.5341759100000001  0.7384764649999999  0.5033723155118784  1.0000
  Co  Co3       1.0  0.1875  0.567249125  0.4508352394294895  1.0000
  Co  Co4       1.0  0.9375  0.44224912499999997  0.489988824525286  1.0000
  Co  Co5       1.0  0.11449218999999998  0.03691754499999999  0.5148291713382317  1.0000
  Co  Co6       1.0  0.77083333  0.8589157849999999  0.4638864355055173  1.0000
  Ir  Ir1       1.0  0.35416666  0.650582455  0.47693763158154506  1.0000
  Ir  Ir2       1.0  0.5333159799999999  0.24191601499999998  0.5033638144854824  1.0000
  Ir  Ir3       1.0  0.1875  0.06724912499999999  0.4508352394294895  1.0000
  Ir  Ir4       1.0  0.9375  0.9422491249999999  0.489988824525286  1.0000
  Ir  Ir5       1.0  0.10965882  0.520343945  0.5153557024860264  1.0000
  Ir  Ir6       1.0  0.77083333  0.35891578499999993  0.4638864355055173  1.0000
