data_image0
_chemical_formula_structural       COAl36Ni12
_chemical_formula_sum              "C1 O1 Al36 Ni12"
_cell_length_a       8.86709648583065
_cell_length_b       8.252316167559918
_cell_length_c       103.26077064
_cell_angle_alpha    102.94012224644277
_cell_angle_beta     108.38883292766202
_cell_angle_gamma    71.0139970589254

_space_group_name_H-M_alt    "P 1"
_space_group_IT_number       1

loop_
  _space_group_symop_operation_xyz
  'x, y, z'

loop_
  _atom_site_type_symbol
  _atom_site_label
  _atom_site_symmetry_multiplicity
  _atom_site_fract_x
  _atom_site_fract_y
  _atom_site_fract_z
  _atom_site_occupancy
  C   C1        1.0  0.43264131  0.021617215000000096  0.554337553770093  1.0000
  O   O1        1.0  0.46396393  0.0519225250000001  0.5662798883233507  1.0000
  Al  Al1       1.0  0.6924474999999999  0.7411512350000001  0.4928626932324544  1.0000
  Al  Al2       1.0  0.025058050000000002  0.06846840500000008  0.5287497500764109  1.0000
  Al  Al3       1.0  0.35911417  0.40781790500000004  0.457073292065287  1.0000
  Al  Al4       1.0  0.6198097399999999  0.6359611950000001  0.46408208231300224  1.0000
  Al  Al5       1.0  0.95314307  0.9692945350000001  0.4998714834801696  1.0000
  Al  Al6       1.0  0.28881989999999996  0.3397369350000001  0.5342770813531721  1.0000
  Al  Al7       1.0  0.35925308999999994  0.766239525  0.4780698327001557  1.0000
  Al  Al8       1.0  0.6925101100000001  0.0981517050000001  0.5145526574587052  1.0000
  Al  Al9       1.0  0.025919750000000002  0.4329061950000001  0.4422804315329883  1.0000
  Al  Al10      1.0  0.8068747799999999  0.870996135  0.47244606652309123  1.0000
  Al  Al11      1.0  0.14020811  0.20432947500000012  0.5082354676902584  1.0000
  Al  Al12      1.0  0.47354145000000003  0.5376628050000002  0.43665666535592385  1.0000
  Al  Al13      1.0  0.52718133  0.0433327950000001  0.4541367351649663  1.0000
  Al  Al14      1.0  0.8605146699999999  0.3766661250000002  0.4899261363321335  1.0000
  Al  Al15      1.0  0.1974453  0.6999996650000001  0.52680473747166  1.0000
  Al  Al16      1.0  0.9748030299999999  0.14808940500000017  0.44851297220894787  1.0000
  Al  Al17      1.0  0.30813636  0.48142273500000005  0.48430237337611526  1.0000
  Al  Al18      1.0  0.6450627899999999  0.8170363250000002  0.5221460096015018  1.0000
  Al  Al19      1.0  0.26662468  0.17361111500000012  0.46812448555211955  1.0000
  Al  Al20      1.0  0.5999580099999999  0.506944455  0.5039138867192868  1.0000
  Al  Al21      1.0  0.9429228499999999  0.8521321250000001  0.5406936983737836  1.0000
  Al  Al22      1.0  0.7142463699999999  0.2783677350000002  0.4625007225961013  1.0000
  Al  Al23      1.0  0.047579710000000004  0.6117010650000001  0.4982901237632685  1.0000
  Al  Al24      1.0  0.36262207999999996  0.964503035  0.5335011796543994  1.0000
  Al  Al25      1.0  0.06743142999999999  0.740717815  0.45845831613593785  1.0000
  Al  Al26      1.0  0.40076477  0.07405114500000007  0.4942477173031052  1.0000
  Al  Al27      1.0  0.7187773  0.4273320250000001  0.5298085304890499  1.0000
  Al  Al28      1.0  0.6358970599999999  0.18460079500000015  0.4867909729480357  1.0000
  Al  Al29      1.0  0.9563800199999999  0.5226566550000001  0.5221914778887752  1.0000
  Al  Al30      1.0  0.30256373000000003  0.851267465  0.4510015717808684  1.0000
  Al  Al31      1.0  0.64160861  0.1731776950000001  0.43372011167664914  1.0000
  Al  Al32      1.0  0.97494195  0.5065110250000001  0.4695095128438164  1.0000
  Al  Al33      1.0  0.30827528000000004  0.839844355  0.5052989140109837  1.0000
  Al  Al34      1.0  0.69815905  0.7297281350000002  0.4397918287400217  1.0000
  Al  Al35      1.0  0.03149239  0.0630614650000001  0.4755812299071891  1.0000
  Al  Al36      1.0  0.36880433999999995  0.3961445550000001  0.5115386537250601  1.0000
  Ni  Ni1       1.0  0.22866459  0.14005565500000008  0.4430671559467823  1.0000
  Ni  Ni2       1.0  0.5619979299999999  0.47338898500000004  0.47885655711394964  1.0000
  Ni  Ni3       1.0  0.8950593699999999  0.8039691950000001  0.5144251942209617  1.0000
  Ni  Ni4       1.0  0.5245550899999999  0.9359461450000001  0.47483638553527163  1.0000
  Ni  Ni5       1.0  0.8578884199999999  0.26927947500000005  0.510625786702439  1.0000
  Ni  Ni6       1.0  0.19122175  0.6026128150000002  0.4390469843681044  1.0000
  Ni  Ni7       1.0  0.10539152  0.7742732750000002  0.4835156489623212  1.0000
  Ni  Ni8       1.0  0.43229808000000003  0.10716281500000008  0.5188107451682191  1.0000
  Ni  Ni9       1.0  0.7720581899999999  0.4409399450000001  0.4477262477951539  1.0000
  Ni  Ni10      1.0  0.8095010300000001  0.978382785  0.45174641615278577  1.0000
  Ni  Ni11      1.0  0.14283436000000002  0.3117161150000001  0.4875358173199531  1.0000
  Ni  Ni12      1.0  0.46413757999999994  0.6530562850000001  0.5230108411630779  1.0000
