data_image0
_chemical_formula_structural       COAl8Au4Al8Au4
_chemical_formula_sum              "C1 O1 Al16 Au8"
_cell_length_a       8.61574444
_cell_length_b       6.09225131
_cell_length_c       104.46297774
_cell_angle_alpha    90.0
_cell_angle_beta     90.0
_cell_angle_gamma    90.0

_space_group_name_H-M_alt    "P 1"
_space_group_IT_number       1

loop_
  _space_group_symop_operation_xyz
  'x, y, z'

loop_
  _atom_site_type_symbol
  _atom_site_label
  _atom_site_symmetry_multiplicity
  _atom_site_fract_x
  _atom_site_fract_y
  _atom_site_fract_z
  _atom_site_occupancy
  C   C1        1.0  0.2506328  0.1239787  0.5337214616513666  1.0000
  O   O1        1.0  0.25063283000000003  0.1239787  0.5448627416934972  1.0000
  Al  Al1       1.0  3.5335770710711754e-17  0.37228236  0.5170960594733376  1.0000
  Al  Al2       1.0  0.0006328300000000354  0.37397866999999996  0.4757563920450696  1.0000
  Al  Al3       1.0  0.0  0.87567496  0.5170960495761534  1.0000
  Al  Al4       1.0  0.0006328300000000354  0.87397867  0.4757563920450696  1.0000
  Al  Al5       1.0  0.25063283000000003  0.87397867  0.4551372583065026  1.0000
  Al  Al6       1.0  0.25063284  0.8760213299999999  0.4962548791083054  1.0000
  Al  Al7       1.0  0.25063283000000003  0.37397866999999996  0.4551372583065026  1.0000
  Al  Al8       1.0  0.25063284999999996  0.37193603999999997  0.4962548824073668  1.0000
  Au  Au1       1.0  0.0015310200000000355  0.1239787  0.49636893425896295  1.0000
  Au  Au2       1.0  0.0006328300000000354  0.12397867  0.4551372583065026  1.0000
  Au  Au3       1.0  0.25063284  0.62397869  0.5162511830455117  1.0000
  Au  Au4       1.0  0.25063283000000003  0.62397867  0.4757563920450696  1.0000
  Al  Al9       1.0  0.5012656600000002  0.37228231  0.5170960561742762  1.0000
  Al  Al10      1.0  0.50063283  0.37397866999999996  0.4757563920450696  1.0000
  Al  Al11      1.0  0.5012656700000001  0.8756750099999998  0.517096046277092  1.0000
  Al  Al12      1.0  0.50063283  0.87397867  0.4757563920450696  1.0000
  Al  Al13      1.0  0.75063283  0.87397867  0.4551372583065026  1.0000
  Al  Al14      1.0  0.75063283  0.8744032899999998  0.4965335112358721  1.0000
  Al  Al15      1.0  0.75063283  0.37397866999999996  0.4551372583065026  1.0000
  Al  Al16      1.0  0.75063285  0.37355405999999997  0.4965335112358721  1.0000
  Au  Au5       1.0  0.49973465  0.1239787  0.4963689210627174  1.0000
  Au  Au6       1.0  0.50063283  0.12397867  0.4551372583065026  1.0000
  Au  Au7       1.0  0.75063283  0.6239786599999999  0.5171421341648244  1.0000
  Au  Au8       1.0  0.75063283  0.62397867  0.4757563920450696  1.0000
