data_image0
_chemical_formula_structural       COAl10Sb10
_chemical_formula_sum              "C1 O1 Al10 Sb10"
_cell_length_a       7.680716626411177
_cell_length_b       8.52125162006081
_cell_length_c       27.679193239999996
_cell_angle_alpha    105.0765450427012
_cell_angle_beta     111.28306958519293
_cell_angle_gamma    90.00000000654346

_space_group_name_H-M_alt    "P 1"
_space_group_IT_number       1

loop_
  _space_group_symop_operation_xyz
  'x, y, z'

loop_
  _atom_site_type_symbol
  _atom_site_label
  _atom_site_symmetry_multiplicity
  _atom_site_fract_x
  _atom_site_fract_y
  _atom_site_fract_z
  _atom_site_occupancy
  C   C1        1.0  0.41266457999999984  0.8235767300000002  0.7158430246438215  1.0000
  O   O1        1.0  0.36362159999999993  0.9161988100000001  0.7453405234618236  1.0000
  Al  Al1       1.0  0.37914083999999987  0.91257747  0.4075570208887139  1.0000
  Al  Al2       1.0  0.5802853099999999  0.29547467  0.564061112515392  1.0000
  Al  Al3       1.0  0.97914084  0.11257747000000004  0.48400579306398284  1.0000
  Al  Al4       1.0  0.77914084  0.7125774700000002  0.3311082487134452  1.0000
  Al  Al5       1.0  0.17914083999999997  0.5125774700000001  0.2546594765381762  1.0000
  Al  Al6       1.0  0.5458075099999999  0.41257747000000006  0.40755702088871404  1.0000
  Al  Al7       1.0  0.75155787  0.7961555100000001  0.5641618567073646  1.0000
  Al  Al8       1.0  0.14580750999999992  0.6125774700000001  0.4840057930639827  1.0000
  Al  Al9       1.0  0.9458075099999997  0.21257747000000002  0.33110824871344513  1.0000
  Al  Al10      1.0  0.3458075099999998  0.012577470000000032  0.25465947653817617  1.0000
  Sb  Sb1       1.0  0.45419248999999995  0.6874225300000001  0.4649330781661169  1.0000
  Sb  Sb2       1.0  0.54327284  0.03819151000000003  0.6080802543748941  1.0000
  Sb  Sb3       1.0  0.09965409999999993  0.9037476800000002  0.545467379754713  1.0000
  Sb  Sb4       1.0  0.85419249  0.48742253  0.388484305990848  1.0000
  Sb  Sb5       1.0  0.25419248999999994  0.28742253000000006  0.3120355338155792  1.0000
  Sb  Sb6       1.0  0.4208591599999999  0.7874225300000002  0.3120355338155792  1.0000
  Sb  Sb7       1.0  0.62085916  0.18742253  0.46493307816611684  1.0000
  Sb  Sb8       1.0  0.02085915999999993  0.9874225299999999  0.3884843059908481  1.0000
  Sb  Sb9       1.0  0.90296903  0.53681341  0.6083452716885168  1.0000
  Sb  Sb10      1.0  0.18466276999999992  0.40404588  0.5459637616324471  1.0000
