data_image0
_chemical_formula_structural       COAl16Au8Al16Au8
_chemical_formula_sum              "C1 O1 Al32 Au16"
_cell_length_a       8.61574444
_cell_length_b       10.552088810860248
_cell_length_c       109.94956347
_cell_angle_alpha    95.05115255137515
_cell_angle_beta     90.0
_cell_angle_gamma    90.0

_space_group_name_H-M_alt    "P 1"
_space_group_IT_number       1

loop_
  _space_group_symop_operation_xyz
  'x, y, z'

loop_
  _atom_site_type_symbol
  _atom_site_label
  _atom_site_symmetry_multiplicity
  _atom_site_fract_x
  _atom_site_fract_y
  _atom_site_fract_z
  _atom_site_occupancy
  C   C1        1.0  0.6248052799999999  0.16936712  0.5423904175594391  1.0000
  O   O1        1.0  0.6248052999999999  0.18441963  0.5530157392263501  1.0000
  Al  Al1       1.0  0.12480528  0.578125  0.45833877478023016  1.0000
  Al  Al2       1.0  0.12480528  0.265625  0.4810478027933907  1.0000
  Al  Al3       1.0  0.12480527000000001  0.94938214  0.5038432777176695  1.0000
  Al  Al4       1.0  0.12480530000000001  0.64166649  0.5264032727385075  1.0000
  Al  Al5       1.0  0.37480527999999996  0.421875  0.4696932887868105  1.0000
  Al  Al6       1.0  0.37480527999999996  0.109375  0.49240231679997104  1.0000
  Al  Al7       1.0  0.37441584000000006  0.7947699899999999  0.5164298128123532  1.0000
  Al  Al8       1.0  0.37480527999999996  0.734375  0.44698426077364994  1.0000
  Al  Al9       1.0  0.37480527999999996  0.609375  0.49240231679997104  1.0000
  Al  Al10      1.0  0.37683645  0.2991352299999999  0.51569661278342  1.0000
  Al  Al11      1.0  0.37480527999999996  0.234375  0.44698426077365  1.0000
  Al  Al12      1.0  0.37480527999999996  0.921875  0.4696932887868105  1.0000
  Al  Al13      1.0  0.12480528  0.7656250000000001  0.48104780279339077  1.0000
  Al  Al14      1.0  0.12480528  0.45650722  0.5032547287470136  1.0000
  Al  Al15      1.0  0.12480528999999999  0.14985287  0.5238181750924903  1.0000
  Al  Al16      1.0  0.12480528  0.07812499999999999  0.4583387747802302  1.0000
  Au  Au1       1.0  0.12480528  0.39940709  0.5254908748611614  1.0000
  Au  Au2       1.0  0.12480528  0.328125  0.4583387747802302  1.0000
  Au  Au3       1.0  0.12480528  0.015624999999999997  0.4810478027933907  1.0000
  Au  Au4       1.0  0.12480528  0.70289766  0.5035840241869822  1.0000
  Au  Au5       1.0  0.37480527999999996  0.671875  0.4696932887868105  1.0000
  Au  Au6       1.0  0.37480527999999996  0.359375  0.49240231679997093  1.0000
  Au  Au7       1.0  0.37447465  0.04236333999999999  0.5150156435189174  1.0000
  Au  Au8       1.0  0.37480527999999996  0.984375  0.44698426077364994  1.0000
  Al  Al17      1.0  0.6248052799999999  0.578125  0.45833877478023016  1.0000
  Al  Al18      1.0  0.6248052799999999  0.265625  0.4810478027933907  1.0000
  Al  Al19      1.0  0.62480529  0.94996204  0.503884077665759  1.0000
  Al  Al20      1.0  0.62480526  0.64173656  0.5259819857511407  1.0000
  Al  Al21      1.0  0.8748052799999999  0.421875  0.4696932887868105  1.0000
  Al  Al22      1.0  0.8748052799999999  0.109375  0.49240231679997104  1.0000
  Al  Al23      1.0  0.8751947299999999  0.79476998  0.5164298128123532  1.0000
  Al  Al24      1.0  0.8748052799999999  0.734375  0.44698426077364994  1.0000
  Al  Al25      1.0  0.8748052799999999  0.609375  0.49240231679997104  1.0000
  Al  Al26      1.0  0.8727741199999999  0.29913519  0.5156966164168646  1.0000
  Al  Al27      1.0  0.8748052799999999  0.234375  0.44698426077365  1.0000
  Al  Al28      1.0  0.8748052799999999  0.921875  0.4696932887868105  1.0000
  Al  Al29      1.0  0.6248052799999999  0.7656250000000001  0.48104780279339077  1.0000
  Al  Al30      1.0  0.6248052799999999  0.45739501  0.5032246038588124  1.0000
  Al  Al31      1.0  0.62480526  0.14832618  0.5241661101026522  1.0000
  Al  Al32      1.0  0.6248052799999999  0.07812499999999999  0.4583387747802302  1.0000
  Au  Au9       1.0  0.6248052799999999  0.40132069  0.5256213118846247  1.0000
  Au  Au10      1.0  0.6248052799999999  0.328125  0.4583387747802302  1.0000
  Au  Au11      1.0  0.6248052799999999  0.015624999999999997  0.4810478027933907  1.0000
  Au  Au12      1.0  0.6248052799999999  0.70442317  0.5034630922542844  1.0000
  Au  Au13      1.0  0.8748052799999999  0.671875  0.4696932887868105  1.0000
  Au  Au14      1.0  0.8748052799999999  0.359375  0.49240231679997093  1.0000
  Au  Au15      1.0  0.8751359400000001  0.04236332  0.5150156471523618  1.0000
  Au  Au16      1.0  0.8748052799999999  0.984375  0.44698426077364994  1.0000
