data_image0
_chemical_formula_structural       Fe12Ga6V6CO
_chemical_formula_sum              "Fe12 Ga6 V6 C1 O1"
_cell_length_a       5.74915725
_cell_length_b       7.041250860056752
_cell_length_c       39.03984068
_cell_angle_alpha    85.65224684977224
_cell_angle_beta     90.0
_cell_angle_gamma    114.09484258468734

_space_group_name_H-M_alt    "P 1"
_space_group_IT_number       1

loop_
  _space_group_symop_operation_xyz
  'x, y, z'

loop_
  _atom_site_type_symbol
  _atom_site_label
  _atom_site_symmetry_multiplicity
  _atom_site_fract_x
  _atom_site_fract_y
  _atom_site_fract_z
  _atom_site_occupancy
  Fe  Fe1       1.0  0.4484154799999999  0.41211607  0.5576553597767921  1.0000
  Fe  Fe2       1.0  0.30208333  0.056648210000000025  0.4307877619498193  1.0000
  Fe  Fe3       1.0  0.8876069299999999  0.22426311000000002  0.49680408406696314  1.0000
  Fe  Fe4       1.0  0.01100352  0.41218761000000004  0.557657215490636  1.0000
  Fe  Fe5       1.0  0.8020833299999998  0.056648210000000025  0.4307877619498193  1.0000
  Fe  Fe6       1.0  0.38392317  0.22426759000000004  0.4968043616309996  1.0000
  Fe  Fe7       1.0  0.010416670000000038  0.47331487000000005  0.397744421632226  1.0000
  Fe  Fe8       1.0  0.59375  0.6399815400000001  0.46383109433701164  1.0000
  Fe  Fe9       1.0  0.17869664000000002  0.80865116  0.5304429102683835  1.0000
  Fe  Fe10      1.0  0.51041667  0.47331487000000005  0.397744421632226  1.0000
  Fe  Fe11      1.0  0.09374999999999997  0.6399815400000001  0.46383109433701164  1.0000
  Fe  Fe12      1.0  0.6770131099999999  0.80868115  0.5304670028267485  1.0000
  Ga  Ga1       1.0  0.7826682400000001  0.51848316  0.513420946794665  1.0000
  Ga  Ga2       1.0  0.6145833299999999  0.18164821000000003  0.38122275543862977  1.0000
  Ga  Ga3       1.0  0.19791667  0.34831487000000005  0.44730942814341546  1.0000
  Ga  Ga4       1.0  0.06615959  0.08479057000000002  0.5506423316667141  1.0000
  Ga  Ga5       1.0  0.90625  0.76498154  0.4142660878258221  1.0000
  Ga  Ga6       1.0  0.4895833299999999  0.93164821  0.4803527684610089  1.0000
  V   V1        1.0  0.69791667  0.34831487000000005  0.44730942814341546  1.0000
  V   V2        1.0  0.28096849999999995  0.5146691999999999  0.5134432312215925  1.0000
  V   V3        1.0  0.11458333000000001  0.18164821000000003  0.38122275543862977  1.0000
  V   V4        1.0  0.9895833299999999  0.93164821  0.4803527684610089  1.0000
  V   V5        1.0  0.5704611399999999  0.09360450000000001  0.5440781166731951  1.0000
  V   V6        1.0  0.40624999999999994  0.76498154  0.4142660878258221  1.0000
  C   C1        1.0  0.4953025999999999  0.94335179  0.5911701941579242  1.0000
  O   O1        1.0  0.4512246100000001  0.8552809200000001  0.6187772445613702  1.0000
