data_image0
_chemical_formula_structural       COSn32Pt8
_chemical_formula_sum              "C1 O1 Sn32 Pt8"
_cell_length_a       11.6697856
_cell_length_b       9.302626152986777
_cell_length_c       107.21050460000001
_cell_angle_alpha    90.13307948840139
_cell_angle_beta     90.0
_cell_angle_gamma    90.0

_space_group_name_H-M_alt    "P 1"
_space_group_IT_number       1

loop_
  _space_group_symop_operation_xyz
  'x, y, z'

loop_
  _atom_site_type_symbol
  _atom_site_label
  _atom_site_symmetry_multiplicity
  _atom_site_fract_x
  _atom_site_fract_y
  _atom_site_fract_z
  _atom_site_occupancy
  C   C1        1.0  0.0068871900000000595  0.9870550849999999  0.5427981592763778  1.0000
  O   O1        1.0  0.0038664200000000605  0.9900449850000002  0.5537074288995774  1.0000
  Sn  Sn1       1.0  0.12609996000000007  0.7502548649999999  0.4751792334267794  1.0000
  Sn  Sn2       1.0  0.11561023000000005  0.238178565  0.5198526513528696  1.0000
  Sn  Sn3       1.0  0.8752947999999999  0.9165408450000002  0.4607506461755087  1.0000
  Sn  Sn4       1.0  0.8671039899999999  0.399358145  0.50278468868119  1.0000
  Sn  Sn5       1.0  0.8752947999999999  0.250254865  0.47517923342677937  1.0000
  Sn  Sn6       1.0  0.8885032900000001  0.7410586650000001  0.5193253274300899  1.0000
  Sn  Sn7       1.0  0.13005565000000005  0.9161125450000001  0.503746492919515  1.0000
  Sn  Sn8       1.0  0.12609996000000007  0.416540845  0.4607506461755087  1.0000
  Sn  Sn9       1.0  0.12609996000000007  0.083629065  0.46072115835169325  1.0000
  Sn  Sn10      1.0  0.13544449000000006  0.582570925  0.5031038346764211  1.0000
  Sn  Sn11      1.0  0.8752947999999999  0.7499150450000001  0.4896774342941362  1.0000
  Sn  Sn12      1.0  0.8752947999999999  0.249915045  0.4462925711004226  1.0000
  Sn  Sn13      1.0  0.12609996000000007  0.249915045  0.4896774342941361  1.0000
  Sn  Sn14      1.0  0.12609996000000007  0.7499150450000001  0.4462925711004226  1.0000
  Sn  Sn15      1.0  0.8774509200000001  0.06813690499999998  0.5045015491953821  1.0000
  Sn  Sn16      1.0  0.8752947999999999  0.5836290649999999  0.4607211583516932  1.0000
  Sn  Sn17      1.0  0.6260999600000001  0.00025486499999999236  0.45348680182992257  1.0000
  Sn  Sn18      1.0  0.6260999600000001  0.5002548649999999  0.4968716650236361  1.0000
  Sn  Sn19      1.0  0.37529480000000004  0.6665408450000001  0.4824430777723655  1.0000
  Sn  Sn20      1.0  0.37079353000000004  0.168735725  0.5245280679905924  1.0000
  Sn  Sn21      1.0  0.37529480000000004  0.00025486499999999236  0.4968716650236361  1.0000
  Sn  Sn22      1.0  0.37529480000000004  0.5002548649999999  0.45348680182992257  1.0000
  Sn  Sn23      1.0  0.6260999600000001  0.166540845  0.48244307777236556  1.0000
  Sn  Sn24      1.0  0.6330627799999999  0.6676720349999999  0.5244330169615186  1.0000
  Sn  Sn25      1.0  0.6260999600000001  0.8336290649999999  0.48241358994854994  1.0000
  Sn  Sn26      1.0  0.59512238  0.331085965  0.5265898832874323  1.0000
  Sn  Sn27      1.0  0.37529480000000004  0.999915045  0.4679850026972793  1.0000
  Sn  Sn28      1.0  0.3844502800000001  0.507477775  0.5129371458092603  1.0000
  Sn  Sn29      1.0  0.6190473999999999  0.008424474999999992  0.5126067995777471  1.0000
  Sn  Sn30      1.0  0.6260999600000001  0.499915045  0.4679850026972794  1.0000
  Sn  Sn31      1.0  0.37529480000000004  0.333629065  0.48241358994855  1.0000
  Sn  Sn32      1.0  0.40965344000000004  0.833274955  0.526533701624991  1.0000
  Pt  Pt1       1.0  0.00529533000000006  0.9877803749999999  0.5251020948509029  1.0000
  Pt  Pt2       1.0  0.0006973800000000605  0.500084955  0.48242833386045775  1.0000
  Pt  Pt3       1.0  0.0006973800000000605  8.495499999999236e-05  0.48242833386045775  1.0000
  Pt  Pt4       1.0  0.9993026199999999  0.489213135  0.5210900987164041  1.0000
  Pt  Pt5       1.0  0.5006973800000001  0.750084955  0.460735902263601  1.0000
  Pt  Pt6       1.0  0.49879938  0.253471585  0.5028047186048292  1.0000
  Pt  Pt7       1.0  0.5006973800000001  0.250084955  0.460735902263601  1.0000
  Pt  Pt8       1.0  0.50237417  0.7533617050000001  0.5027854279592587  1.0000
