data_image0
_chemical_formula_structural       COPt10Sn20
_chemical_formula_sum              "C1 O1 Pt10 Sn20"
_cell_length_a       4.65759902
_cell_length_b       13.972797052024827
_cell_length_c       103.26191003
_cell_angle_alpha    98.04946696305653
_cell_angle_beta     90.0
_cell_angle_gamma    90.0

_space_group_name_H-M_alt    "P 1"
_space_group_IT_number       1

loop_
  _space_group_symop_operation_xyz
  'x, y, z'

loop_
  _atom_site_type_symbol
  _atom_site_label
  _atom_site_symmetry_multiplicity
  _atom_site_fract_x
  _atom_site_fract_y
  _atom_site_fract_z
  _atom_site_occupancy
  C   C1        1.0  0.7518200700000001  0.9430105199999999  0.5519495491376486  1.0000
  O   O1        1.0  0.76748705  0.93036239  0.5628885273746019  1.0000
  Pt  Pt1       1.0  0.23509685000000005  0.22542894  0.5219632356506901  1.0000
  Pt  Pt2       1.0  0.23277041000000004  0.7583333299999999  0.5015338913475321  1.0000
  Pt  Pt3       1.0  0.23277041000000004  0.35833333  0.43711147262539796  1.0000
  Pt  Pt4       1.0  0.23277041000000004  0.29166666  0.4800597506997804  1.0000
  Pt  Pt5       1.0  0.23277041000000004  0.825  0.45858561327314973  1.0000
  Pt  Pt6       1.0  0.7327704100000001  0.025000000000000015  0.49079682263421676  1.0000
  Pt  Pt7       1.0  0.7327704100000001  0.55833333  0.4693226819864651  1.0000
  Pt  Pt8       1.0  0.73295111  0.49066082  0.5113885307592801  1.0000
  Pt  Pt9       1.0  0.7327704100000001  0.09166666000000002  0.4478485413387134  1.0000
  Pt  Pt10      1.0  0.7355679900000001  0.95832162  0.5337953534163234  1.0000
  Sn  Sn1       1.0  0.23277041000000004  0.14166666000000003  0.496165355380314  1.0000
  Sn  Sn2       1.0  0.23277041000000004  0.675  0.4746912179536832  1.0000
  Sn  Sn3       1.0  0.23251295000000002  0.6108126  0.5196194771929183  1.0000
  Sn  Sn4       1.0  0.23277041000000004  0.20833333  0.4532170773059315  1.0000
  Sn  Sn5       1.0  0.23735069  0.08756609000000003  0.5390316398212678  1.0000
  Sn  Sn6       1.0  0.23277041000000004  0.9083333299999999  0.4854282866669986  1.0000
  Sn  Sn7       1.0  0.23277041000000004  0.44166665999999993  0.46395414601924695  1.0000
  Sn  Sn8       1.0  0.23277041000000004  0.37499999999999994  0.5069024273147502  1.0000
  Sn  Sn9       1.0  0.23277041000000004  0.975  0.44248000859261616  1.0000
  Sn  Sn10      1.0  0.23586130000000002  0.83881865  0.5286006935572363  1.0000
  Sn  Sn11      1.0  0.7327704100000001  0.94166666  0.4639541460192469  1.0000
  Sn  Sn12      1.0  0.7327704100000001  0.47500000000000003  0.4424800085926162  1.0000
  Sn  Sn13      1.0  0.7327704100000001  0.40833333  0.48542828666699855  1.0000
  Sn  Sn14      1.0  0.73439778  0.34139143999999993  0.5292611167616453  1.0000
  Sn  Sn15      1.0  0.7327704100000001  0.875  0.5069024273147502  1.0000
  Sn  Sn16      1.0  0.7327704100000001  0.17500000000000002  0.47469121795368324  1.0000
  Sn  Sn17      1.0  0.7327704100000001  0.70833333  0.4532170773059316  1.0000
  Sn  Sn18      1.0  0.7327704100000001  0.64166666  0.4961653553803139  1.0000
  Sn  Sn19      1.0  0.73133  0.56176521  0.5384029994171354  1.0000
  Sn  Sn20      1.0  0.7351222600000001  0.10743841000000003  0.517725590148446  1.0000
