data_image0
_chemical_formula_structural       COAl12Ni4
_chemical_formula_sum              "C1 O1 Al12 Ni4"
_cell_length_a       4.87916474
_cell_length_b       6.65540935
_cell_length_c       99.6159826
_cell_angle_alpha    90.0
_cell_angle_beta     90.0
_cell_angle_gamma    90.0

_space_group_name_H-M_alt    "P 1"
_space_group_IT_number       1

loop_
  _space_group_symop_operation_xyz
  'x, y, z'

loop_
  _atom_site_type_symbol
  _atom_site_label
  _atom_site_symmetry_multiplicity
  _atom_site_fract_x
  _atom_site_fract_y
  _atom_site_fract_z
  _atom_site_occupancy
  C   C1        1.0  0.88277189  0.05341409499999997  0.5323381904509845  1.0000
  O   O1        1.0  0.90201781  0.007610284999999973  0.5436355915546033  1.0000
  Al  Al1       1.0  0.41240645  0.010601084999999972  0.4563644084453967  1.0000
  Al  Al2       1.0  0.8582894999999999  0.17346629499999996  0.4708888866876458  1.0000
  Al  Al3       1.0  0.8381869499999999  0.20998633499999997  0.515119723444623  1.0000
  Al  Al4       1.0  0.3582895  0.33060121499999995  0.4790026196469197  1.0000
  Al  Al5       1.0  0.63617472  0.6734662949999999  0.4708888866876458  1.0000
  Al  Al6       1.0  0.14497365  0.8266229849999999  0.5086189760738454  1.0000
  Al  Al7       1.0  0.66049515  0.6676058949999999  0.515367714530804  1.0000
  Al  Al8       1.0  0.13617471999999997  0.8306012149999998  0.4790026196469197  1.0000
  Al  Al9       1.0  0.35017089  0.335708855  0.5081587473817434  1.0000
  Al  Al10      1.0  0.08205776999999999  0.5106010849999999  0.4563644084453967  1.0000
  Al  Al11      1.0  0.58572658  0.992389715  0.4936890112675525  1.0000
  Al  Al12      1.0  0.91353605  0.49799485499999996  0.49250787396848383  1.0000
  Ni  Ni1       1.0  0.94106785  0.8732884049999998  0.4563644084453967  1.0000
  Ni  Ni2       1.0  0.55339637  0.373288405  0.4563644084453967  1.0000
  Ni  Ni3       1.0  0.05893214999999998  0.12886473499999998  0.493863078331892  1.0000
  Ni  Ni4       1.0  0.43509061999999993  0.6305469349999999  0.49307689123115594  1.0000
