data_image0
_chemical_formula_structural       COPt6Sn24
_chemical_formula_sum              "C1 O1 Pt6 Sn24"
_cell_length_a       6.699884762301536
_cell_length_b       13.221090593703966
_cell_length_c       104.79729097
_cell_angle_alpha    100.54780348357329
_cell_angle_beta     90.37319502656291
_cell_angle_gamma    90.98227304425319

_space_group_name_H-M_alt    "P 1"
_space_group_IT_number       1

loop_
  _space_group_symop_operation_xyz
  'x, y, z'

loop_
  _atom_site_type_symbol
  _atom_site_label
  _atom_site_symmetry_multiplicity
  _atom_site_fract_x
  _atom_site_fract_y
  _atom_site_fract_z
  _atom_site_occupancy
  C   C1        1.0  0.34332697  0.7317186000000001  0.5424822917132346  1.0000
  O   O1        1.0  0.40542325999999995  0.7678934100000001  0.5527806767293534  1.0000
  Pt  Pt1       1.0  0.26062343  0.82312487  0.47143250521052027  1.0000
  Pt  Pt2       1.0  0.2612666699999999  0.6719875600000002  0.5252443937746522  1.0000
  Pt  Pt3       1.0  0.7558126599999998  0.23872826  0.49755926554466995  1.0000
  Pt  Pt4       1.0  0.48968687000000005  0.95780558  0.5098818626295707  1.0000
  Pt  Pt5       1.0  0.01062342999999995  0.53145821  0.48526766474871885  1.0000
  Pt  Pt6       1.0  0.51062343  0.11479154  0.4575973456723217  1.0000
  Sn  Sn1       1.0  0.38878367999999996  0.14253781000000001  0.5037268994828693  1.0000
  Sn  Sn2       1.0  0.9056625500000001  0.7085574700000001  0.47488963902660575  1.0000
  Sn  Sn3       1.0  0.40566255000000007  0.29189081  0.4472193232706465  1.0000
  Sn  Sn4       1.0  0.09219787999999995  0.30582175  0.5152588106225402  1.0000
  Sn  Sn5       1.0  0.61558431  0.88215034  0.4864177250216735  1.0000
  Sn  Sn6       1.0  0.11558430999999995  0.46548366999999996  0.45874740926571445  1.0000
  Sn  Sn7       1.0  0.53187029  0.8957219900000001  0.4541146212403889  1.0000
  Sn  Sn8       1.0  0.51767613  0.75238302  0.5102922554875273  1.0000
  Sn  Sn9       1.0  0.031870289999999954  0.31238866000000004  0.48178494031678615  1.0000
  Sn  Sn10      1.0  0.98937657  0.8616524900000001  0.451852107975534  1.0000
  Sn  Sn11      1.0  0.9765786499999999  0.6925359800000002  0.5070506546239874  1.0000
  Sn  Sn12      1.0  0.48937656999999996  0.27831916  0.4795224270519312  1.0000
  Sn  Sn13      1.0  0.13502793999999993  0.8938968500000001  0.49748540904171246  1.0000
  Sn  Sn14      1.0  0.65566255  0.47243274  0.4702824416171275  1.0000
  Sn  Sn15      1.0  0.6663640199999998  0.31961921  0.5239506714301713  1.0000
  Sn  Sn16      1.0  0.8655843099999999  0.22935894  0.4541402118562362  1.0000
  Sn  Sn17      1.0  0.83171295  0.07576506000000002  0.5109338471246244  1.0000
  Sn  Sn18      1.0  0.36558430999999997  0.64602561  0.48181053093263343  1.0000
  Sn  Sn19      1.0  0.73937657  0.62552776  0.44724491388649384  1.0000
  Sn  Sn20      1.0  0.7268102099999999  0.4608650799999999  0.5027898818339425  1.0000
  Sn  Sn21      1.0  0.23937656999999993  0.04219442000000002  0.4749152296424531  1.0000
  Sn  Sn22      1.0  0.7818702899999999  0.07626392000000001  0.47717774290730797  1.0000
  Sn  Sn23      1.0  0.2818702899999999  0.65959726  0.4495074271513487  1.0000
  Sn  Sn24      1.0  0.26494329999999994  0.50176884  0.5059450151709114  1.0000
