data_image0
_chemical_formula_structural       COAl3CuAl3CuAl3CuAl3CuAl3CuAl3Cu
_chemical_formula_sum              "C1 O1 Al18 Cu6"
_cell_length_a       5.63409662
_cell_length_b       8.266853521866938
_cell_length_c       100.98753135999999
_cell_angle_alpha    109.9234443925915
_cell_angle_beta     90.0
_cell_angle_gamma    90.0

_space_group_name_H-M_alt    "P 1"
_space_group_IT_number       1

loop_
  _space_group_symop_operation_xyz
  'x, y, z'

loop_
  _atom_site_type_symbol
  _atom_site_label
  _atom_site_symmetry_multiplicity
  _atom_site_fract_x
  _atom_site_fract_y
  _atom_site_fract_z
  _atom_site_occupancy
  C   C1        1.0  0.624051695  0.02998114000000005  0.5408096402229179  1.0000
  O   O1        1.0  0.624051655  0.047702500000000043  0.5527209321309515  1.0000
  Al  Al1       1.0  0.12405198500000002  0.5010742000000001  0.45353378042102355  1.0000
  Al  Al2       1.0  0.37405198500000003  0.7768508300000001  0.44727906786904853  1.0000
  Al  Al3       1.0  0.37405198500000003  0.22529757000000009  0.4597884960414497  1.0000
  Cu  Cu1       1.0  0.12405198500000002  0.0010742000000000444  0.46748128735193945  1.0000
  Al  Al4       1.0  0.12405198500000002  0.5010742000000001  0.4814287912144042  1.0000
  Al  Al5       1.0  0.37405198500000003  0.7768508300000001  0.47517407866242917  1.0000
  Al  Al6       1.0  0.37405198500000003  0.22529757000000009  0.48768350683483036  1.0000
  Cu  Cu2       1.0  0.12405201500000002  0.9989258  0.4940885520173266  1.0000
  Al  Al7       1.0  0.12405193500000002  0.4988280200000001  0.5087721067526011  1.0000
  Al  Al8       1.0  0.37226996500000004  0.77695546  0.5039090227446035  1.0000
  Al  Al9       1.0  0.37215590500000006  0.24506575000000005  0.5156958552027856  1.0000
  Cu  Cu3       1.0  0.12405197500000001  0.020886230000000047  0.5206717630936163  1.0000
  Al  Al10      1.0  0.624051985  0.5010742000000001  0.45353378042102355  1.0000
  Al  Al11      1.0  0.8740519849999999  0.7768508300000001  0.44727906786904853  1.0000
  Al  Al12      1.0  0.8740519849999999  0.22529757000000009  0.4597884960414497  1.0000
  Cu  Cu4       1.0  0.624051985  0.0010742000000000444  0.46748128735193945  1.0000
  Al  Al13      1.0  0.624051985  0.5010742000000001  0.4814287912144042  1.0000
  Al  Al14      1.0  0.8740519849999999  0.7768508300000001  0.47517407866242917  1.0000
  Al  Al15      1.0  0.8740519849999999  0.22529757000000009  0.48768350683483036  1.0000
  Cu  Cu5       1.0  0.624051885  0.9987109000000003  0.49534062739991136  1.0000
  Al  Al16      1.0  0.624051955  0.4998043300000001  0.5087649695350681  1.0000
  Al  Al17      1.0  0.875834015  0.77695552  0.5039090166077009  1.0000
  Al  Al18      1.0  0.875948065  0.24506572000000007  0.5156958521343344  1.0000
  Cu  Cu6       1.0  0.6240519449999999  0.02299794000000005  0.5221451198357839  1.0000
