data_image0
_chemical_formula_structural       COAl40
_chemical_formula_sum              "C1 O1 Al40"
_cell_length_a       5.7416295
_cell_length_b       8.612444252117529
_cell_length_c       103.84640673
_cell_angle_alpha    91.62013743074782
_cell_angle_beta     90.0
_cell_angle_gamma    90.0

_space_group_name_H-M_alt    "P 1"
_space_group_IT_number       1

loop_
  _space_group_symop_operation_xyz
  'x, y, z'

loop_
  _atom_site_type_symbol
  _atom_site_label
  _atom_site_symmetry_multiplicity
  _atom_site_fract_x
  _atom_site_fract_y
  _atom_site_fract_z
  _atom_site_occupancy
  C   C1        1.0  0.12440853000000003  0.47744433500000005  0.5577623420226426  1.0000
  O   O1        1.0  0.12440851000000004  0.462848925  0.5692795238790853  1.0000
  Al  Al1       1.0  0.12440867000000003  0.7443338150000001  0.547522440969407  1.0000
  Al  Al2       1.0  0.12440866000000003  0.18899076500000006  0.5355079946826394  1.0000
  Al  Al3       1.0  0.12440865000000002  0.5038709050000001  0.49590598960334165  1.0000
  Al  Al4       1.0  0.12440865000000002  0.6238709050000001  0.5219801949963123  1.0000
  Al  Al5       1.0  0.12440865000000002  0.06387090500000006  0.5089430922998269  1.0000
  Al  Al6       1.0  0.37402673000000003  0.9075707950000002  0.5281858363241854  1.0000
  Al  Al7       1.0  0.37440865000000007  0.34387090500000006  0.5154616436480697  1.0000
  Al  Al8       1.0  0.38067727000000007  0.46561685500000005  0.5423199655827206  1.0000
  Al  Al9       1.0  0.37440865000000007  0.783870905  0.5024245409515843  1.0000
  Al  Al10      1.0  0.37322587000000007  0.016129105000000064  0.5540669263741888  1.0000
  Al  Al11      1.0  0.12440865000000002  0.9438709050000001  0.48286888690685625  1.0000
  Al  Al12      1.0  0.12440865000000002  0.38387090500000004  0.46983178421037086  1.0000
  Al  Al13      1.0  0.12440865000000002  0.7038709049999999  0.43072047612091474  1.0000
  Al  Al14      1.0  0.12440865000000002  0.8238709050000002  0.45679468151388547  1.0000
  Al  Al15      1.0  0.12440865000000002  0.26387090500000004  0.4437575788174001  1.0000
  Al  Al16      1.0  0.37440865000000007  0.10387090500000005  0.4633132328621282  1.0000
  Al  Al17      1.0  0.37440865000000007  0.5438709050000001  0.45027613016564283  1.0000
  Al  Al18      1.0  0.37440865000000007  0.6638709050000001  0.47635033555861356  1.0000
  Al  Al19      1.0  0.37440865000000007  0.9838709050000001  0.43723902746915744  1.0000
  Al  Al20      1.0  0.37440865000000007  0.22387090500000006  0.4893874382550989  1.0000
  Al  Al21      1.0  0.62440868  0.7442498550000001  0.5474962103187817  1.0000
  Al  Al22      1.0  0.62440865  0.19189411500000006  0.5358793076638138  1.0000
  Al  Al23      1.0  0.62440865  0.5038709050000001  0.49590598960334165  1.0000
  Al  Al24      1.0  0.62440865  0.6238709050000001  0.5219801949963123  1.0000
  Al  Al25      1.0  0.62440865  0.06387090500000006  0.5089430922998269  1.0000
  Al  Al26      1.0  0.87479059  0.9075707950000002  0.5281858363241854  1.0000
  Al  Al27      1.0  0.8744086499999999  0.34387090500000006  0.5154616436480697  1.0000
  Al  Al28      1.0  0.86813995  0.46561684500000006  0.5423199688419962  1.0000
  Al  Al29      1.0  0.8744086499999999  0.783870905  0.5024245409515843  1.0000
  Al  Al30      1.0  0.87559149  0.016129095000000065  0.5540669263741888  1.0000
  Al  Al31      1.0  0.62440865  0.9438709050000001  0.48286888690685625  1.0000
  Al  Al32      1.0  0.62440865  0.38387090500000004  0.46983178421037086  1.0000
  Al  Al33      1.0  0.62440865  0.7038709049999999  0.43072047612091474  1.0000
  Al  Al34      1.0  0.62440865  0.8238709050000002  0.45679468151388547  1.0000
  Al  Al35      1.0  0.62440865  0.26387090500000004  0.4437575788174001  1.0000
  Al  Al36      1.0  0.8744086499999999  0.10387090500000005  0.4633132328621282  1.0000
  Al  Al37      1.0  0.8744086499999999  0.5438709050000001  0.45027613016564283  1.0000
  Al  Al38      1.0  0.8744086499999999  0.6638709050000001  0.47635033555861356  1.0000
  Al  Al39      1.0  0.8744086499999999  0.9838709050000001  0.43723902746915744  1.0000
  Al  Al40      1.0  0.8744086499999999  0.22387090500000006  0.4893874382550989  1.0000
