data_image0
_chemical_formula_structural       COAu8Cu24
_chemical_formula_sum              "C1 O1 Au8 Cu24"
_cell_length_a       5.40938663
_cell_length_b       6.62511854
_cell_length_c       107.47732994
_cell_angle_alpha    90.0
_cell_angle_beta     90.0
_cell_angle_gamma    90.0

_space_group_name_H-M_alt    "P 1"
_space_group_IT_number       1

loop_
  _space_group_symop_operation_xyz
  'x, y, z'

loop_
  _atom_site_type_symbol
  _atom_site_label
  _atom_site_symmetry_multiplicity
  _atom_site_fract_x
  _atom_site_fract_y
  _atom_site_fract_z
  _atom_site_occupancy
  C   C1        1.0  0.88233729  0.43229265999999994  0.5548126401489418  1.0000
  O   O1        1.0  0.8670245200000001  0.4035356299999999  0.5654371413237137  1.0000
  Au  Au1       1.0  0.11766271000000003  0.16365557999999994  0.4854149204804829  1.0000
  Au  Au2       1.0  0.6176627100000001  0.16365557999999994  0.44182743793774343  1.0000
  Au  Au3       1.0  0.11766271000000003  0.83032225  0.45635659994765615  1.0000
  Au  Au4       1.0  0.6176627100000001  0.49698891999999995  0.47088576195756887  1.0000
  Au  Au5       1.0  0.13053981000000003  0.8351855199999999  0.5427363026966463  1.0000
  Au  Au6       1.0  0.6176627100000001  0.83032225  0.4999440824903956  1.0000
  Au  Au7       1.0  0.11766271000000003  0.49698891999999995  0.5144732445003083  1.0000
  Au  Au8       1.0  0.62110432  0.16731389999999993  0.5294097228170863  1.0000
  Cu  Cu1       1.0  0.11766271000000003  0.16365557999999994  0.44182743793774343  1.0000
  Cu  Cu2       1.0  0.6176627100000001  0.83032225  0.45635659994765615  1.0000
  Cu  Cu3       1.0  0.11766271000000003  0.49698891999999995  0.47088576195756887  1.0000
  Cu  Cu4       1.0  0.6176627100000001  0.16365557999999994  0.4854149204804829  1.0000
  Cu  Cu5       1.0  0.8676627100000001  0.49698891999999995  0.44909202068619913  1.0000
  Cu  Cu6       1.0  0.36766271000000006  0.16365557999999994  0.4636211792091132  1.0000
  Cu  Cu7       1.0  0.8676627100000001  0.83032225  0.4781503412190259  1.0000
  Cu  Cu8       1.0  0.36766271000000006  0.83032225  0.4345628586762864  1.0000
  Cu  Cu9       1.0  0.36766271000000006  0.49698891999999995  0.44909202068619913  1.0000
  Cu  Cu10      1.0  0.8676627100000001  0.16365557999999994  0.4636211792091132  1.0000
  Cu  Cu11      1.0  0.36766271000000006  0.83032225  0.4781503412190259  1.0000
  Cu  Cu12      1.0  0.8676627100000001  0.83032225  0.4345628586762864  1.0000
  Cu  Cu13      1.0  0.11766271000000003  0.83032225  0.4999440824903956  1.0000
  Cu  Cu14      1.0  0.6176627100000001  0.49698891999999995  0.5144732445003083  1.0000
  Cu  Cu15      1.0  0.12317364000000003  0.16724457999999995  0.5287210824368943  1.0000
  Cu  Cu16      1.0  0.62756635  0.8190099599999999  0.5416240408041193  1.0000
  Cu  Cu17      1.0  0.8676627100000001  0.16365557999999994  0.5072086617518526  1.0000
  Cu  Cu18      1.0  0.37186017  0.8363444200000001  0.5214279341958795  1.0000
  Cu  Cu19      1.0  0.8775111000000001  0.49036026999999993  0.5376054701856005  1.0000
  Cu  Cu20      1.0  0.36766271000000006  0.49698891999999995  0.49267950322893855  1.0000
  Cu  Cu21      1.0  0.36766271000000006  0.16365557999999994  0.5072086617518526  1.0000
  Cu  Cu22      1.0  0.8721804700000001  0.8331493699999999  0.521508435045638  1.0000
  Cu  Cu23      1.0  0.3845882  0.5050864599999999  0.5354608439995465  1.0000
  Cu  Cu24      1.0  0.8676627100000001  0.49698891999999995  0.49267950322893855  1.0000
