data_image0
_chemical_formula_structural       COSb8Pd8Sb8Pd8
_chemical_formula_sum              "C1 O1 Sb16 Pd16"
_cell_length_a       7.23284663
_cell_length_b       12.189009977840007
_cell_length_c       99.23120162000001
_cell_angle_alpha    99.863248087157
_cell_angle_beta     90.0
_cell_angle_gamma    72.74077055439565

_space_group_name_H-M_alt    "P 1"
_space_group_IT_number       1

loop_
  _space_group_symop_operation_xyz
  'x, y, z'

loop_
  _atom_site_type_symbol
  _atom_site_label
  _atom_site_symmetry_multiplicity
  _atom_site_fract_x
  _atom_site_fract_y
  _atom_site_fract_z
  _atom_site_occupancy
  C   C1        1.0  0.6193319949999998  0.9651927050000001  0.5495240771563835  1.0000
  O   O1        1.0  0.49993979499999996  0.9367917550000001  0.5543211146538813  1.0000
  Sb  Sb1       1.0  0.906250005  0.6598072950000001  0.4640899301729889  1.0000
  Sb  Sb2       1.0  0.15625000499999997  0.15980729500000002  0.45356933481235867  1.0000
  Sb  Sb3       1.0  0.6562500050000001  0.15980729500000002  0.47461052847938623  1.0000
  Sb  Sb4       1.0  0.4062500049999999  0.6598072950000001  0.4851311238400165  1.0000
  Sb  Sb5       1.0  0.4479166649999999  0.9098072950000001  0.4693502307990712  1.0000
  Sb  Sb6       1.0  0.6979166649999999  0.409807295  0.4588296324926738  1.0000
  Sb  Sb7       1.0  0.19791666499999994  0.409807295  0.47987082615970145  1.0000
  Sb  Sb8       1.0  0.9479166649999997  0.9098072950000001  0.44830903418627643  1.0000
  Pd  Pd1       1.0  0.802083335  0.534807295  0.482500974999859  1.0000
  Pd  Pd2       1.0  0.05208333499999998  0.034807295000000016  0.47198037963922873  1.0000
  Pd  Pd3       1.0  0.552083335  0.034807295000000016  0.4509391859722012  1.0000
  Pd  Pd4       1.0  0.302083335  0.534807295  0.4614597813328314  1.0000
  Pd  Pd5       1.0  0.677083335  0.784807295  0.4456788853461189  1.0000
  Pd  Pd6       1.0  0.927083335  0.284807295  0.4772406773195439  1.0000
  Pd  Pd7       1.0  0.42708333499999995  0.284807295  0.4561994836525163  1.0000
  Pd  Pd8       1.0  0.17708333500000004  0.784807295  0.46672007901314644  1.0000
  Sb  Sb9       1.0  0.8962668349999999  0.6762930850000001  0.5072311941374973  1.0000
  Sb  Sb10      1.0  0.16549252499999997  0.15898361500000002  0.49495013172475455  1.0000
  Sb  Sb11      1.0  0.683585975  0.16191817500000003  0.5158702337406305  1.0000
  Sb  Sb12      1.0  0.39636684499999997  0.644010965  0.5255402535590952  1.0000
  Sb  Sb13      1.0  0.449608005  0.9077358750000001  0.5113387276960437  1.0000
  Sb  Sb14      1.0  0.682362745  0.408607055  0.5006634294808259  1.0000
  Sb  Sb15      1.0  0.17348042499999994  0.44353015500000004  0.5225726994927897  1.0000
  Sb  Sb16      1.0  0.9479166649999997  0.9098072950000001  0.4903914244660988  1.0000
  Pd  Pd9       1.0  0.781956365  0.542157285  0.5214117726501866  1.0000
  Pd  Pd10      1.0  0.06574432499999998  0.03548772500000001  0.5115443599192733  1.0000
  Pd  Pd11      1.0  0.552083335  0.034807295000000016  0.49302157330625634  1.0000
  Pd  Pd12      1.0  0.2858816249999999  0.537745515  0.5017521673531047  1.0000
  Pd  Pd13      1.0  0.677083335  0.784807295  0.4877612756259413  1.0000
  Pd  Pd14      1.0  0.9403830649999999  0.28823280500000004  0.5163347016879883  1.0000
  Pd  Pd15      1.0  0.41214984499999996  0.288637945  0.5006205744600032  1.0000
  Pd  Pd16      1.0  0.18830907499999994  0.7868309650000002  0.5085325869419444  1.0000
