data_image0
_chemical_formula_structural       COSi8Pd8Si8Pd8Si8Pd8
_chemical_formula_sum              "C1 O1 Si24 Pd24"
_cell_length_a       11.835417213027604
_cell_length_b       7.122078663230808
_cell_length_c       104.9233476
_cell_angle_alpha    119.36380546062232
_cell_angle_beta     107.16202981747449
_cell_angle_gamma    81.68061627653529

_space_group_name_H-M_alt    "P 1"
_space_group_IT_number       1

loop_
  _space_group_symop_operation_xyz
  'x, y, z'

loop_
  _atom_site_type_symbol
  _atom_site_label
  _atom_site_symmetry_multiplicity
  _atom_site_fract_x
  _atom_site_fract_y
  _atom_site_fract_z
  _atom_site_occupancy
  C   C1        1.0  0.09583273  0.9488402200000001  0.5519114738519406  1.0000
  O   O1        1.0  0.13245214  0.98934386  0.5645130079862576  1.0000
  Si  Si1       1.0  0.33865542  0.07284748000000003  0.45108420605177646  1.0000
  Si  Si2       1.0  0.8386554200000002  0.07284748000000003  0.4677265208457814  1.0000
  Si  Si3       1.0  0.16134458  0.9265745200000001  0.4569561539221007  1.0000
  Si  Si4       1.0  0.66134458  0.9265745200000001  0.44031383912809585  1.0000
  Si  Si5       1.0  0.08865542  0.42657452  0.4545367208250519  1.0000
  Si  Si6       1.0  0.58865542  0.42657452  0.43789440603104707  1.0000
  Si  Si7       1.0  0.41134458  0.57284748  0.45350363914882524  1.0000
  Si  Si8       1.0  0.91134458  0.57284748  0.4368613243548204  1.0000
  Pd  Pd1       1.0  0.25211551  0.6907862500000002  0.4354869920137426  1.0000
  Pd  Pd2       1.0  0.75211551  0.6907862500000002  0.4521293068077475  1.0000
  Pd  Pd3       1.0  0.24788449  0.30863575000000004  0.4392687383721249  1.0000
  Pd  Pd4       1.0  0.7478844900000001  0.30863575000000004  0.4559110531661298  1.0000
  Pd  Pd5       1.0  0.002115509999999996  0.80863575  0.46437304115938205  1.0000
  Pd  Pd6       1.0  0.50211551  0.80863575  0.4477307263653772  1.0000
  Pd  Pd7       1.0  0.49788449  0.19078625000000005  0.44366731881449517  1.0000
  Pd  Pd8       1.0  0.99788449  0.19078625000000005  0.46030963360850013  1.0000
  Si  Si9       1.0  0.33865542  0.07284748000000003  0.48436883563978633  1.0000
  Si  Si10      1.0  0.8386554200000002  0.07284748000000003  0.5010111504337912  1.0000
  Si  Si11      1.0  0.16134458  0.9265745200000001  0.4902407835101106  1.0000
  Si  Si12      1.0  0.66134458  0.9265745200000001  0.47359846871610567  1.0000
  Si  Si13      1.0  0.08865542  0.42657452  0.48782135041306174  1.0000
  Si  Si14      1.0  0.58865542  0.42657452  0.4711790356190569  1.0000
  Si  Si15      1.0  0.41134458  0.57284748  0.48678826873683506  1.0000
  Si  Si16      1.0  0.91134458  0.57284748  0.47014595394283026  1.0000
  Pd  Pd9       1.0  0.25211551  0.6907862500000002  0.46877162160175234  1.0000
  Pd  Pd10      1.0  0.75211551  0.6907862500000002  0.4854139363957573  1.0000
  Pd  Pd11      1.0  0.24788449  0.30863575000000004  0.4725533679601347  1.0000
  Pd  Pd12      1.0  0.7478844900000001  0.30863575000000004  0.4891956827541396  1.0000
  Pd  Pd13      1.0  0.002115509999999996  0.80863575  0.49765767074739187  1.0000
  Pd  Pd14      1.0  0.50211551  0.80863575  0.481015355953387  1.0000
  Pd  Pd15      1.0  0.49788449  0.19078625000000005  0.476951948402505  1.0000
  Pd  Pd16      1.0  0.99788449  0.19078625000000005  0.49359426319650995  1.0000
  Si  Si17      1.0  0.33485089  0.08671337000000004  0.517525595666308  1.0000
  Si  Si18      1.0  0.84694016  0.07374722000000003  0.5293274099909024  1.0000
  Si  Si19      1.0  0.16569611  0.010656140000000038  0.5227627989934629  1.0000
  Si  Si20      1.0  0.65411693  0.95637094  0.507695729221655  1.0000
  Si  Si21      1.0  0.09833430000000001  0.46410573  0.5211346813371653  1.0000
  Si  Si22      1.0  0.58771652  0.45758512000000007  0.5052496617640099  1.0000
  Si  Si23      1.0  0.41606812  0.58384071  0.518689369440612  1.0000
  Si  Si24      1.0  0.91719541  0.57530054  0.5043171262968426  1.0000
  Pd  Pd17      1.0  0.25094296  0.6907782500000001  0.5015499653460249  1.0000
  Pd  Pd18      1.0  0.75831358  0.71741955  0.5171812695016829  1.0000
  Pd  Pd19      1.0  0.24550191  0.32128518  0.5056905765952363  1.0000
  Pd  Pd20      1.0  0.74172004  0.32014799  0.519786733721962  1.0000
  Pd  Pd21      1.0  0.030325839999999996  0.84469982  0.5298629164109552  1.0000
  Pd  Pd22      1.0  0.4966241900000001  0.82703615  0.5129192425806604  1.0000
  Pd  Pd23      1.0  0.48882251  0.21032750000000003  0.5097080813134535  1.0000
  Pd  Pd24      1.0  0.99507449  0.22382297000000004  0.5243321792639264  1.0000
