data_image0
_chemical_formula_structural       COSn6Pt6Sn6Pt6
_chemical_formula_sum              "C1 O1 Sn12 Pt12"
_cell_length_a       5.54184995
_cell_length_b       11.120148009437143
_cell_length_c       99.42114618
_cell_angle_alpha    79.10660535656605
_cell_angle_beta     90.0
_cell_angle_gamma    90.0

_space_group_name_H-M_alt    "P 1"
_space_group_IT_number       1

loop_
  _space_group_symop_operation_xyz
  'x, y, z'

loop_
  _atom_site_type_symbol
  _atom_site_label
  _atom_site_symmetry_multiplicity
  _atom_site_fract_x
  _atom_site_fract_y
  _atom_site_fract_z
  _atom_site_occupancy
  C   C1        1.0  0.5167692749999999  0.9914134099999999  0.5422280228208246  1.0000
  O   O1        1.0  0.5246089650000001  0.97870678  0.5541551238735749  1.0000
  Sn  Sn1       1.0  0.253186085  0.7863643699999999  0.48342257966943863  1.0000
  Sn  Sn2       1.0  0.253186085  0.45303103000000006  0.4693309393611864  1.0000
  Sn  Sn3       1.0  0.253186085  0.1196977  0.45523930201217844  1.0000
  Sn  Sn4       1.0  0.7531860850000001  0.56414215  0.44584487612642504  1.0000
  Sn  Sn5       1.0  0.7531860850000001  0.23080881  0.47402815378368524  1.0000
  Sn  Sn6       1.0  0.7531860850000001  0.89747548  0.45993651347543296  1.0000
  Pt  Pt1       1.0  0.5031860850000001  0.67525326  0.4646337278979318  1.0000
  Pt  Pt2       1.0  0.5031860850000001  0.34191992  0.45054208758967956  1.0000
  Pt  Pt3       1.0  0.5031860850000001  0.008586589999999991  0.4787253682061841  1.0000
  Pt  Pt4       1.0  0.003186085000000001  0.67525326  0.4646337278979318  1.0000
  Pt  Pt5       1.0  0.003186085000000001  0.34191992  0.45054208758967956  1.0000
  Pt  Pt6       1.0  0.003186085000000001  0.008586589999999991  0.4787253682061841  1.0000
  Sn  Sn7       1.0  0.23586488499999997  0.79405207  0.5238668854266422  1.0000
  Sn  Sn8       1.0  0.252561005  0.46287952  0.5112363690405511  1.0000
  Sn  Sn9       1.0  0.266979165  0.11735852999999999  0.49807916339171704  1.0000
  Sn  Sn10      1.0  0.7531860850000001  0.56414215  0.48811979409193745  1.0000
  Sn  Sn11      1.0  0.756385465  0.23596140999999998  0.5163739101396526  1.0000
  Sn  Sn12      1.0  0.7389829449999998  0.9029531199999999  0.5026571380237159  1.0000
  Pt  Pt7       1.0  0.502733395  0.68132893  0.5061853355305619  1.0000
  Pt  Pt8       1.0  0.5031860850000001  0.34191992  0.4928170055551921  1.0000
  Pt  Pt9       1.0  0.49773991500000003  0.013021489999999991  0.5227996043713558  1.0000
  Pt  Pt10      1.0  0.994866745  0.68173924  0.505807567278816  1.0000
  Pt  Pt11      1.0  0.003186085000000001  0.34191992  0.4928170055551921  1.0000
  Pt  Pt12      1.0  0.9968139149999999  0.01507976999999999  0.5193404785861073  1.0000
