data_image0
_chemical_formula_structural       COAl24W2
_chemical_formula_sum              "C1 O1 Al24 W2"
_cell_length_a       6.60325325
_cell_length_b       6.603253253038076
_cell_length_c       102.34920223
_cell_angle_alpha    90.0
_cell_angle_beta     90.0
_cell_angle_gamma    109.47122065584813

_space_group_name_H-M_alt    "P 1"
_space_group_IT_number       1

loop_
  _space_group_symop_operation_xyz
  'x, y, z'

loop_
  _atom_site_type_symbol
  _atom_site_label
  _atom_site_symmetry_multiplicity
  _atom_site_fract_x
  _atom_site_fract_y
  _atom_site_fract_z
  _atom_site_occupancy
  C   C1        1.0  0.53759963  0.71164099  0.54732895061607  1.0000
  O   O1        1.0  0.52494627  0.77198935  0.5581943943255161  1.0000
  Al  Al1       1.0  0.91539067  0.7267048300000001  0.5210032111748826  1.0000
  Al  Al2       1.0  0.41781463999999996  0.23139954000000001  0.4678783840769073  1.0000
  Al  Al3       1.0  0.2635482800000001  0.7686004600000002  0.4644913314097237  1.0000
  Al  Al4       1.0  0.7523953  0.27176921  0.5163512679757976  1.0000
  Al  Al5       1.0  0.35675582999999994  0.04822311000000003  0.44180560567448385  1.0000
  Al  Al6       1.0  0.8567558300000001  0.54822311  0.49448343506014697  1.0000
  Al  Al7       1.0  0.94660292  0.09506784000000001  0.5335940581521791  1.0000
  Al  Al8       1.0  0.45501556000000004  0.57713318  0.484663493477391  1.0000
  Al  Al9       1.0  0.6753929099999999  0.98392563  0.4743112729924796  1.0000
  Al  Al10      1.0  0.16975831000000002  0.48950102  0.5259354204382692  1.0000
  Al  Al11      1.0  0.76860046  0.26354828  0.45162555041790947  1.0000
  Al  Al12      1.0  0.26860046  0.76354828  0.5043033766429029  1.0000
  Al  Al13      1.0  0.9839256300000002  0.6753929100000001  0.44180560567448385  1.0000
  Al  Al14      1.0  0.48392563  0.17539291  0.49448343506014697  1.0000
  Al  Al15      1.0  0.54050298  0.85376014  0.5272632367432265  1.0000
  Al  Al16      1.0  0.04822311000000003  0.35675583000000005  0.4743112729924796  1.0000
  Al  Al17      1.0  0.5575333  0.45147019  0.5363926320492728  1.0000
  Al  Al18      1.0  0.07713318000000001  0.9550155600000001  0.4841312177359053  1.0000
  Al  Al19      1.0  0.23139954000000004  0.41781464  0.44823849775072583  1.0000
  Al  Al20      1.0  0.73139954  0.9178146400000001  0.500916327136389  1.0000
  Al  Al21      1.0  0.30120426  0.10663679000000004  0.5205344490910169  1.0000
  Al  Al22      1.0  0.8007492000000002  0.6143341  0.4678783840769073  1.0000
  Al  Al23      1.0  0.6143341  0.8007492  0.44823849775072583  1.0000
  Al  Al24      1.0  0.11433410000000001  0.3007492  0.500916327136389  1.0000
  W   W1        1.0  0.5166083800000001  0.51671665  0.5105815760620214  1.0000
  W   W2        1.0  0.016074370000000015  0.016074370000000022  0.4580584393334817  1.0000
