data_image0
_chemical_formula_structural       COPd12Sn36
_chemical_formula_sum              "C1 O1 Pd12 Sn36"
_cell_length_a       9.40614240978649
_cell_length_b       14.816722514492115
_cell_length_c       105.78219892
_cell_angle_alpha    94.94191776298821
_cell_angle_beta     97.48316965181282
_cell_angle_gamma    108.33158438472367

_space_group_name_H-M_alt    "P 1"
_space_group_IT_number       1

loop_
  _space_group_symop_operation_xyz
  'x, y, z'

loop_
  _atom_site_type_symbol
  _atom_site_label
  _atom_site_symmetry_multiplicity
  _atom_site_fract_x
  _atom_site_fract_y
  _atom_site_fract_z
  _atom_site_occupancy
  C   C1        1.0  0.22209450000000008  0.7508481600000001  0.5399546880252389  1.0000
  O   O1        1.0  0.2357976100000001  0.7455660300000001  0.5509512851106709  1.0000
  Pd  Pd1       1.0  0.1788130600000001  0.8584948800000001  0.4846780565290845  1.0000
  Pd  Pd2       1.0  0.17825839000000007  0.27230871  0.5119821718628018  1.0000
  Pd  Pd3       1.0  0.17881306000000008  0.44182821000000005  0.4564894749057901  1.0000
  Pd  Pd4       1.0  0.83815662  0.07919145000000001  0.4657824546055501  1.0000
  Pd  Pd5       1.0  0.8381566199999999  0.49585812  0.493971032846215  1.0000
  Pd  Pd6       1.0  0.85310805  0.9277998799999999  0.5192086896557191  1.0000
  Pd  Pd7       1.0  0.84458583  0.20599210000000007  0.5062302640541396  1.0000
  Pd  Pd8       1.0  0.83815662  0.37085812  0.45168816379390286  1.0000
  Pd  Pd9       1.0  0.8381566200000001  0.78752478  0.4798767454171973  1.0000
  Pd  Pd10      1.0  0.17881306000000008  0.15016154000000004  0.4705837657174374  1.0000
  Pd  Pd11      1.0  0.17881306000000008  0.56682821  0.4987723439581022  1.0000
  Pd  Pd12      1.0  0.17466940000000006  0.98935576  0.5231277433351085  1.0000
  Sn  Sn1       1.0  0.01195229000000007  0.12462173000000003  0.5256730638079129  1.0000
  Sn  Sn2       1.0  0.008484840000000054  0.28329016000000007  0.4686208833092547  1.0000
  Sn  Sn3       1.0  0.008484840000000054  0.6999568199999999  0.49680946493254924  1.0000
  Sn  Sn4       1.0  0.016465740000000076  0.34161681000000005  0.5294964127501743  1.0000
  Sn  Sn5       1.0  0.008484840000000101  0.52090924  0.47280888986211195  1.0000
  Sn  Sn6       1.0  0.01039976000000003  0.9383820700000001  0.4993444041153438  1.0000
  Sn  Sn7       1.0  0.008484840000000101  0.70844375  0.46355733046087555  1.0000
  Sn  Sn8       1.0  0.008484840000000054  0.12511042  0.4917459087015405  1.0000
  Sn  Sn9       1.0  0.004745820000000123  0.5422679300000001  0.5196207480538373  1.0000
  Sn  Sn10      1.0  0.008484840000000054  0.9460628400000001  0.4677453370137328  1.0000
  Sn  Sn11      1.0  0.008484840000000054  0.3627295  0.4959339152543977  1.0000
  Sn  Sn12      1.0  0.99525418  0.7917687800000001  0.5237856884559691  1.0000
  Sn  Sn13      1.0  0.3529463700000001  0.14947801000000002  0.5148980526347215  1.0000
  Sn  Sn14      1.0  0.34388764000000005  0.31058088  0.45912892719299353  1.0000
  Sn  Sn15      1.0  0.34388764000000005  0.7272475399999999  0.4873175054336585  1.0000
  Sn  Sn16      1.0  0.68911946  0.19013363000000003  0.5276226017426225  1.0000
  Sn  Sn17      1.0  0.67308204  0.35258374000000003  0.47275947979265215  1.0000
  Sn  Sn18      1.0  0.67508387  0.77567942  0.5017414098140308  1.0000
  Sn  Sn19      1.0  0.67308204  0.15368475000000004  0.48234079145042424  1.0000
  Sn  Sn20      1.0  0.68505722  0.57722768  0.5103040730342603  1.0000
  Sn  Sn21      1.0  0.6730820400000002  0.73701808  0.45415221320975924  1.0000
  Sn  Sn22      1.0  0.34388764000000005  0.05852328000000001  0.48669182383319953  1.0000
  Sn  Sn23      1.0  0.34561327000000003  0.46969732  0.5147448026041285  1.0000
  Sn  Sn24      1.0  0.3438876400000001  0.6418566200000001  0.45850324220990507  1.0000
  Sn  Sn25      1.0  0.67308204  0.9187721200000001  0.47723729312999397  1.0000
  Sn  Sn26      1.0  0.67949115  0.33871036000000004  0.5067927209261621  1.0000
  Sn  Sn27      1.0  0.6730820400000002  0.5021054500000001  0.449048714889329  1.0000
  Sn  Sn28      1.0  0.3438876400000001  0.87676925  0.4636067405303353  1.0000
  Sn  Sn29      1.0  0.34388764000000005  0.29343592  0.49179531877100024  1.0000
  Sn  Sn30      1.0  0.3524372400000001  0.69726882  0.519565404852192  1.0000
  Sn  Sn31      1.0  0.34388764000000005  0.07566824000000003  0.4540254288725632  1.0000
  Sn  Sn32      1.0  0.3438876400000001  0.49233491  0.4822140071132282  1.0000
  Sn  Sn33      1.0  0.3380132500000001  0.89980908  0.5105435598219431  1.0000
  Sn  Sn34      1.0  0.67308204  0.17082971000000002  0.4496743964897879  1.0000
  Sn  Sn35      1.0  0.67308204  0.5874963799999999  0.47786297811308237  1.0000
  Sn  Sn36      1.0  0.66335599  0.010644240000000013  0.5067224806240923  1.0000
