data_image0
_chemical_formula_structural       COAl8Cu4Al8Cu4
_chemical_formula_sum              "C1 O1 Al16 Cu8"
_cell_length_a       6.13684976
_cell_length_b       4.8638577
_cell_length_c       33.17890142
_cell_angle_alpha    90.0
_cell_angle_beta     90.0
_cell_angle_gamma    90.0

_space_group_name_H-M_alt    "P 1"
_space_group_IT_number       1

loop_
  _space_group_symop_operation_xyz
  'x, y, z'

loop_
  _atom_site_type_symbol
  _atom_site_label
  _atom_site_symmetry_multiplicity
  _atom_site_fract_x
  _atom_site_fract_y
  _atom_site_fract_z
  _atom_site_occupancy
  C   C1        1.0  0.71603192  0.7258305500000001  0.6776937739714001  1.0000
  O   O1        1.0  0.7428157700000001  0.7874233  0.7113013968490091  1.0000
  Al  Al1       1.0  0.9134026199999999  0.6240879  0.5341084641073653  1.0000
  Al  Al2       1.0  0.92091996  0.12709660000000003  0.5952468177786328  1.0000
  Al  Al3       1.0  0.23331131  0.12450445000000003  0.5364396564123198  1.0000
  Al  Al4       1.0  0.22203604  0.62494613  0.5940387283607282  1.0000
  Al  Al5       1.0  0.35327743  0.12448815000000005  0.6209298961127102  1.0000
  Al  Al6       1.0  0.42119435  0.62347761  0.5028131895637795  1.0000
  Al  Al7       1.0  0.7863377100000001  0.62801481  0.6195519668060356  1.0000
  Al  Al8       1.0  0.73641695  0.12347761000000003  0.5028131895637795  1.0000
  Cu  Cu1       1.0  0.57509769  0.8765223900000001  0.565653027295844  1.0000
  Cu  Cu2       1.0  0.57379547  0.37690720000000005  0.566116136192758  1.0000
  Cu  Cu3       1.0  0.07880565000000002  0.37347761  0.4736610227436745  1.0000
  Cu  Cu4       1.0  0.07880565000000002  0.8734776100000001  0.4736610227436745  1.0000
  Al  Al9       1.0  0.9211943499999999  0.62347761  0.35202765167610006  1.0000
  Al  Al10      1.0  0.9211943499999999  0.12347761000000003  0.41033198531631015  1.0000
  Al  Al11      1.0  0.23641695000000001  0.12347761000000003  0.35202765167610006  1.0000
  Al  Al12      1.0  0.23641695000000001  0.62347761  0.41033198531631015  1.0000
  Al  Al13      1.0  0.42119435  0.12347761000000003  0.4445088559235695  1.0000
  Al  Al14      1.0  0.42119435  0.62347761  0.31785076997109574  1.0000
  Al  Al15      1.0  0.73641695  0.62347761  0.4445088559235695  1.0000
  Al  Al16      1.0  0.73641695  0.12347761000000003  0.31785076997109574  1.0000
  Cu  Cu5       1.0  0.57880565  0.8734776100000001  0.3811798184962051  1.0000
  Cu  Cu6       1.0  0.57880565  0.37347761  0.3811798184962051  1.0000
  Cu  Cu7       1.0  0.07880565000000002  0.37347761  0.2886986031509909  1.0000
  Cu  Cu8       1.0  0.07880565000000002  0.8734776100000001  0.2886986031509909  1.0000
