data_image0
_chemical_formula_structural       COGaIrGaIrGaIrGaIrGaIrGaIrGaIrGaIrGaIrGaIrGaIrGaIr
_chemical_formula_sum              "C1 O1 Ga12 Ir12"
_cell_length_a       6.14629894
_cell_length_b       6.14629894
_cell_length_c       100.7314947
_cell_angle_alpha    90.0
_cell_angle_beta     90.0
_cell_angle_gamma    90.0

_space_group_name_H-M_alt    "P 1"
_space_group_IT_number       1

loop_
  _space_group_symop_operation_xyz
  'x, y, z'

loop_
  _atom_site_type_symbol
  _atom_site_label
  _atom_site_symmetry_multiplicity
  _atom_site_fract_x
  _atom_site_fract_y
  _atom_site_fract_z
  _atom_site_occupancy
  C   C1        1.0  0.624426845  0.12227801  0.5426299714843466  1.0000
  O   O1        1.0  0.624957275  0.12441817  0.554094479416145  1.0000
  Ga  Ga1       1.0  0.12505622500000002  0.12387596000000001  0.46115968453303746  1.0000
  Ir  Ir1       1.0  0.37505622499999997  0.37387596  0.4459055205838551  1.0000
  Ga  Ga2       1.0  0.12505622500000002  0.12387596000000001  0.49166801243140235  1.0000
  Ir  Ir2       1.0  0.37505622499999997  0.37387596  0.4764138484822199  1.0000
  Ga  Ga3       1.0  0.12584882500000003  0.12279644  0.5271233602743035  1.0000
  Ir  Ir3       1.0  0.376059245  0.37079349999999994  0.5069207455400063  1.0000
  Ga  Ga4       1.0  0.12505622500000002  0.62387596  0.46115968453303746  1.0000
  Ir  Ir4       1.0  0.37505622499999997  0.8738759599999999  0.4459055205838551  1.0000
  Ga  Ga5       1.0  0.12505622500000002  0.62387596  0.49166801243140235  1.0000
  Ir  Ir5       1.0  0.37505622499999997  0.8738759599999999  0.4764138484822199  1.0000
  Ga  Ga6       1.0  0.12494377500000002  0.62458916  0.5204276243304623  1.0000
  Ir  Ir6       1.0  0.375904955  0.8777219899999998  0.506909195087064  1.0000
  Ga  Ga7       1.0  0.625056225  0.12387596000000001  0.46115968453303746  1.0000
  Ir  Ir7       1.0  0.8750562249999999  0.37387596  0.4459055205838551  1.0000
  Ga  Ga8       1.0  0.625056225  0.12387596000000001  0.49166801243140235  1.0000
  Ir  Ir8       1.0  0.8750562249999999  0.37387596  0.4764138484822199  1.0000
  Ga  Ga9       1.0  0.625405085  0.12426236  0.5209487309776288  1.0000
  Ir  Ir9       1.0  0.874032045  0.37087857  0.5069177770797018  1.0000
  Ga  Ga10      1.0  0.625056225  0.62387596  0.46115968453303746  1.0000
  Ir  Ir10      1.0  0.8750562249999999  0.8738759599999999  0.4459055205838551  1.0000
  Ga  Ga11      1.0  0.625056225  0.62387596  0.49166801243140235  1.0000
  Ir  Ir11      1.0  0.8750562249999999  0.8738759599999999  0.4764138484822199  1.0000
  Ga  Ga12      1.0  0.625022485  0.62429703  0.5237957467812747  1.0000
  Ir  Ir12      1.0  0.8742698349999999  0.8775616199999999  0.5068993439479856  1.0000
