data_image0
_chemical_formula_structural       In3Pd2In3Pd2CO
_chemical_formula_sum              "In6 Pd4 C1 O1"
_cell_length_a       4.664607908579209
_cell_length_b       5.63132566
_cell_length_c       37.34774465
_cell_angle_alpha    90.0
_cell_angle_beta     119.99999993915931
_cell_angle_gamma    90.0

_space_group_name_H-M_alt    "P 1"
_space_group_IT_number       1

loop_
  _space_group_symop_operation_xyz
  'x, y, z'

loop_
  _atom_site_type_symbol
  _atom_site_label
  _atom_site_symmetry_multiplicity
  _atom_site_fract_x
  _atom_site_fract_y
  _atom_site_fract_z
  _atom_site_occupancy
  In  In1       1.0  0.16018870499999996  0.07282193499999999  0.4733239575071994  1.0000
  In  In2       1.0  0.466237395  0.6933713450000001  0.5511209095092645  1.0000
  In  In3       1.0  0.8398112950000001  0.396223295  0.519846675353124  1.0000
  Pd  Pd1       1.0  0.484207055  0.185630525  0.5578185756374877  1.0000
  Pd  Pd2       1.0  0.8123532950000001  0.897692865  0.5128776775141686  1.0000
  In  In4       1.0  0.16018870499999996  0.07282193499999999  0.3484273176280174  1.0000
  In  In5       1.0  0.4935220349999999  0.715565175  0.4316917500426487  1.0000
  In  In6       1.0  0.8268553750000001  0.430078695  0.390059533835333  1.0000
  Pd  Pd3       1.0  0.4935220349999999  0.21846580499999999  0.4316917500426487  1.0000
  Pd  Pd4       1.0  0.8268553750000001  0.927178065  0.390059533835333  1.0000
  C   C1        1.0  0.665536355  0.157089425  0.6168475127710707  1.0000
  O   O1        1.0  0.744968125  0.138420935  0.651572682371983  1.0000
