data_image0
_chemical_formula_structural       COGa4Cu12Ga4Cu12
_chemical_formula_sum              "C1 O1 Ga8 Cu24"
_cell_length_a       5.30606917
_cell_length_b       11.45014525293375
_cell_length_c       35.60153864
_cell_angle_alpha    112.05672088051315
_cell_angle_beta     90.0
_cell_angle_gamma    62.392872364642116

_space_group_name_H-M_alt    "P 1"
_space_group_IT_number       1

loop_
  _space_group_symop_operation_xyz
  'x, y, z'

loop_
  _atom_site_type_symbol
  _atom_site_label
  _atom_site_symmetry_multiplicity
  _atom_site_fract_x
  _atom_site_fract_y
  _atom_site_fract_z
  _atom_site_occupancy
  C   C1        1.0  0.11300655500000016  0.970743905  0.6112054627329919  1.0000
  O   O1        1.0  0.05460177499999996  0.029256095000000027  0.6476186798906084  1.0000
  Ga  Ga1       1.0  0.777366025  0.30729841500000005  0.561937245862075  1.0000
  Ga  Ga2       1.0  0.7646825149999998  0.819783385  0.49344556467837275  1.0000
  Ga  Ga3       1.0  0.4313491749999999  0.153116725  0.47331624250956705  1.0000
  Ga  Ga4       1.0  0.44159316499999995  0.6426500350000001  0.5337128855562351  1.0000
  Cu  Cu1       1.0  0.43556758500000003  0.3959018650000001  0.501711109392035  1.0000
  Cu  Cu2       1.0  0.43922602500000013  0.891474605  0.5634788003915294  1.0000
  Cu  Cu3       1.0  0.932665915  0.15179998500000003  0.47315721447393944  1.0000
  Cu  Cu4       1.0  0.9351517749999999  0.649513125  0.5362176519984256  1.0000
  Cu  Cu5       1.0  0.9413867850000001  0.39610947500000004  0.5017317862251502  1.0000
  Cu  Cu6       1.0  0.9453982250000003  0.8918957849999999  0.5634727229485249  1.0000
  Cu  Cu7       1.0  0.7706947749999999  0.06748650500000003  0.5255219803452901  1.0000
  Cu  Cu8       1.0  0.7917617549999999  0.541226585  0.5789128485530906  1.0000
  Cu  Cu9       1.0  0.277783175  0.306668205  0.5543636214161914  1.0000
  Cu  Cu10      1.0  0.2633657749999999  0.8211001250000001  0.4936045927140004  1.0000
  Cu  Cu11      1.0  0.2639445349999999  0.06745389500000003  0.5255669089779936  1.0000
  Cu  Cu12      1.0  0.2957187950000001  0.541199185  0.5788990607769897  1.0000
  Ga  Ga5       1.0  0.764682515  0.31978338500000003  0.43305761749609895  1.0000
  Ga  Ga6       1.0  0.7646825149999998  0.819783385  0.37266967031382514  1.0000
  Ga  Ga7       1.0  0.4313491749999999  0.153116725  0.35254034814501944  1.0000
  Ga  Ga8       1.0  0.43134917500000003  0.653116725  0.41292829532729325  1.0000
  Cu  Cu13      1.0  0.428715705  0.40377508500000003  0.382813840585006  1.0000
  Cu  Cu14      1.0  0.4287157050000001  0.9037750849999999  0.4432017877672798  1.0000
  Cu  Cu15      1.0  0.932665915  0.15179998500000003  0.35238132010939177  1.0000
  Cu  Cu16      1.0  0.932665915  0.651799985  0.4127692672916655  1.0000
  Cu  Cu17      1.0  0.932665915  0.40377508500000003  0.382813840585006  1.0000
  Cu  Cu18      1.0  0.9326659150000003  0.9037750849999999  0.4432017877672798  1.0000
  Cu  Cu19      1.0  0.7673159850000001  0.06912502500000002  0.40278412505611244  1.0000
  Cu  Cu20      1.0  0.7673159850000003  0.569125025  0.4631720722383862  1.0000
  Cu  Cu21      1.0  0.263365775  0.32110012500000007  0.4332166455317266  1.0000
  Cu  Cu22      1.0  0.2633657749999999  0.8211001250000001  0.3728286983494528  1.0000
  Cu  Cu23      1.0  0.263365775  0.06912502500000002  0.40278412505611244  1.0000
  Cu  Cu24      1.0  0.2633657750000001  0.569125025  0.4631720722383862  1.0000
