data_image0
_chemical_formula_structural       COV18Ir6V18Ir6
_chemical_formula_sum              "C1 O1 V36 Ir12"
_cell_length_a       4.78968694
_cell_length_b       10.710065594997957
_cell_length_c       110.64184138
_cell_angle_alpha    71.5650511601607
_cell_angle_beta     90.0
_cell_angle_gamma    90.0

_space_group_name_H-M_alt    "P 1"
_space_group_IT_number       1

loop_
  _space_group_symop_operation_xyz
  'x, y, z'

loop_
  _atom_site_type_symbol
  _atom_site_label
  _atom_site_symmetry_multiplicity
  _atom_site_fract_x
  _atom_site_fract_y
  _atom_site_fract_z
  _atom_site_occupancy
  C   C1        1.0  0.8776137  0.24562413499999997  0.5547019501715565  1.0000
  O   O1        1.0  0.9530512200000001  0.29537577499999995  0.563951315842117  1.0000
  V   V1        1.0  0.06772062999999996  0.7916666649999999  0.4462522392918868  1.0000
  V   V2        1.0  0.06772062999999996  0.458333335  0.4870664561546226  1.0000
  V   V3        1.0  0.06772062999999996  0.12499999499999996  0.4666593458866149  1.0000
  V   V4        1.0  0.06772062999999996  0.6249999949999999  0.43604868415788295  1.0000
  V   V5        1.0  0.06772062999999996  0.29166666499999994  0.47686290102061873  1.0000
  V   V6        1.0  0.06772062999999996  0.9583333350000001  0.4564557944258906  1.0000
  V   V7        1.0  0.56772063  0.7916666649999999  0.46155756831961303  1.0000
  V   V8        1.0  0.56772063  0.458333335  0.44115046172488487  1.0000
  V   V9        1.0  0.56772063  0.12499999499999996  0.48196467858762065  1.0000
  V   V10       1.0  0.56772063  0.9583333350000001  0.44115046172488487  1.0000
  V   V11       1.0  0.56772063  0.6249999949999999  0.48196467858762065  1.0000
  V   V12       1.0  0.56772063  0.29166666499999994  0.461557568319613  1.0000
  V   V13       1.0  0.8177206300000001  0.5416666649999999  0.46155756831961303  1.0000
  V   V14       1.0  0.8177206300000001  0.20833333499999998  0.44115046172488487  1.0000
  V   V15       1.0  0.8177206300000001  0.8749999949999998  0.4819646785876207  1.0000
  V   V16       1.0  0.31772063  0.5416666649999999  0.46155756831961303  1.0000
  V   V17       1.0  0.31772063  0.20833333499999998  0.44115046172488487  1.0000
  V   V18       1.0  0.31772063  0.8749999949999998  0.4819646785876207  1.0000
  Ir  Ir1       1.0  0.56772063  0.708333335  0.4411504617248849  1.0000
  Ir  Ir2       1.0  0.56772063  0.3749999949999999  0.4819646785876207  1.0000
  Ir  Ir3       1.0  0.56772063  0.04166666499999997  0.46155756831961303  1.0000
  Ir  Ir4       1.0  0.06772062999999996  0.708333335  0.47176112345361687  1.0000
  Ir  Ir5       1.0  0.06772062999999996  0.3749999949999999  0.4513540168588887  1.0000
  Ir  Ir6       1.0  0.06772062999999996  0.04166666499999997  0.49216823372162455  1.0000
  V   V19       1.0  0.06772062999999996  0.7916666649999999  0.5074735627493507  1.0000
  V   V20       1.0  0.07983588999999996  0.4375574849999999  0.5491631478428519  1.0000
  V   V21       1.0  0.06906894999999996  0.12330552499999996  0.5276371309096234  1.0000
  V   V22       1.0  0.06772062999999996  0.6249999949999999  0.4972700112886264  1.0000
  V   V23       1.0  0.07841682999999997  0.29810823499999994  0.5369462975713294  1.0000
  V   V24       1.0  0.06772062999999996  0.9583333350000001  0.5176771178833545  1.0000
  V   V25       1.0  0.56772063  0.7916666649999999  0.5227788954503564  1.0000
  V   V26       1.0  0.56772063  0.458333335  0.5023717888556283  1.0000
  V   V27       1.0  0.5553838299999999  0.12978641499999996  0.5438357243861041  1.0000
  V   V28       1.0  0.56772063  0.9583333350000001  0.5023717888556283  1.0000
  V   V29       1.0  0.5717805899999999  0.6291999149999999  0.5420439243324348  1.0000
  V   V30       1.0  0.56772063  0.29166666499999994  0.5227788954503564  1.0000
  V   V31       1.0  0.8177206300000001  0.5416666649999999  0.5227788954503564  1.0000
  V   V32       1.0  0.8177206300000001  0.20833333499999998  0.5023717888556283  1.0000
  V   V33       1.0  0.8197555299999999  0.8802094749999998  0.5422879035604367  1.0000
  V   V34       1.0  0.31772063  0.5416666649999999  0.5227788954503564  1.0000
  V   V35       1.0  0.31772063  0.20833333499999998  0.5023717888556283  1.0000
  V   V36       1.0  0.32494436  0.8792870949999998  0.5424168062865589  1.0000
  Ir  Ir7       1.0  0.56772063  0.708333335  0.5023717888556283  1.0000
  Ir  Ir8       1.0  0.56029515  0.376806745  0.5429686063412178  1.0000
  Ir  Ir9       1.0  0.56772063  0.04166666499999997  0.5227788954503564  1.0000
  Ir  Ir10      1.0  0.06969124999999997  0.702654515  0.534071434714331  1.0000
  Ir  Ir11      1.0  0.06772062999999996  0.3749999949999999  0.5125753403163525  1.0000
  Ir  Ir12      1.0  0.04694877999999996  0.05999605499999997  0.5514368307481419  1.0000
