data_image0
_chemical_formula_structural       COAu6Cu12Pd6
_chemical_formula_sum              "C1 O1 Au6 Cu12 Pd6"
_cell_length_a       7.564006220170723
_cell_length_b       6.17598522
_cell_length_c       103.25869826
_cell_angle_alpha    90.0
_cell_angle_beta     85.65224686167774
_cell_angle_gamma    114.09484256503262

_space_group_name_H-M_alt    "P 1"
_space_group_IT_number       1

loop_
  _space_group_symop_operation_xyz
  'x, y, z'

loop_
  _atom_site_type_symbol
  _atom_site_label
  _atom_site_symmetry_multiplicity
  _atom_site_fract_x
  _atom_site_fract_y
  _atom_site_fract_z
  _atom_site_occupancy
  C   C1        1.0  0.17625598000000006  0.7309274150000001  0.5367898083140149  1.0000
  O   O1        1.0  0.13273871000000007  0.710435985  0.5480957502674327  1.0000
  Au  Au1       1.0  0.3541666700000001  0.19791666500000005  0.4787451692556796  1.0000
  Au  Au2       1.0  0.5289554700000001  0.788827945  0.5058026080174426  1.0000
  Au  Au3       1.0  0.18750000000000008  0.6145833350000001  0.4519042497325673  1.0000
  Au  Au4       1.0  0.9375  0.48958333500000006  0.49216562579632567  1.0000
  Au  Au5       1.0  0.07391326000000006  0.07424837500000007  0.5183639061183484  1.0000
  Au  Au6       1.0  0.7708333300000001  0.906249995  0.4653247094941235  1.0000
  Cu  Cu1       1.0  0.37472047  0.9848210349999998  0.5243607672230234  1.0000
  Cu  Cu2       1.0  0.06250000000000004  0.802083335  0.47203493776444644  1.0000
  Cu  Cu3       1.0  0.2311441300000001  0.3935433050000001  0.49896155926310304  1.0000
  Cu  Cu4       1.0  0.7936353700000001  0.1920910050000001  0.5135469287960476  1.0000
  Cu  Cu5       1.0  0.4791666700000001  0.010416665000000104  0.4586144812238005  1.0000
  Cu  Cu6       1.0  0.6458333300000001  0.593749995  0.4854553975260026  1.0000
  Cu  Cu7       1.0  0.4791666700000001  0.510416665  0.4586144812238005  1.0000
  Cu  Cu8       1.0  0.6458333300000001  0.09374999500000003  0.4854553975260026  1.0000
  Cu  Cu9       1.0  0.79937035  0.655105775  0.5130131434721943  1.0000
  Cu  Cu10      1.0  0.22514005000000006  0.8806440249999999  0.4990143821884987  1.0000
  Cu  Cu11      1.0  0.39149452000000007  0.439880375  0.5237767067136517  1.0000
  Cu  Cu12      1.0  0.06250000000000004  0.302083335  0.47203493776444644  1.0000
  Pd  Pd1       1.0  0.3541666700000001  0.6979166649999999  0.4787451692556796  1.0000
  Pd  Pd2       1.0  0.52002199  0.27822287500000004  0.5046679007199221  1.0000
  Pd  Pd3       1.0  0.18750000000000008  0.11458333500000008  0.4519042497325673  1.0000
  Pd  Pd4       1.0  0.9375  0.989583335  0.49216562579632567  1.0000
  Pd  Pd5       1.0  0.10190200000000006  0.570959255  0.5200951678354607  1.0000
  Pd  Pd6       1.0  0.7708333300000001  0.4062499950000001  0.46532470949412347  1.0000
