data_image0
_chemical_formula_structural       COV9Si18
_chemical_formula_sum              "C1 O1 V9 Si18"
_cell_length_a       4.582750302091945
_cell_length_b       11.177124092188967
_cell_length_c       101.47654414
_cell_angle_alpha    90.70453502610692
_cell_angle_beta     106.92891948822418
_cell_angle_gamma    65.79443777967481

_space_group_name_H-M_alt    "P 1"
_space_group_IT_number       1

loop_
  _space_group_symop_operation_xyz
  'x, y, z'

loop_
  _atom_site_type_symbol
  _atom_site_label
  _atom_site_symmetry_multiplicity
  _atom_site_fract_x
  _atom_site_fract_y
  _atom_site_fract_z
  _atom_site_occupancy
  C   C1        1.0  0.38379073  0.826545895  0.5393982348358868  1.0000
  O   O1        1.0  0.6029441299999999  0.807863905  0.5498181911814307  1.0000
  V   V1        1.0  0.51380217  0.804918095  0.4760305925183706  1.0000
  V   V2        1.0  0.5138021699999998  0.138251425  0.4501818088185693  1.0000
  V   V3        1.0  0.4921814299999999  0.478092165  0.5004035853476592  1.0000
  V   V4        1.0  0.5104448099999999  0.746457665  0.5057122474598605  1.0000
  V   V5        1.0  0.51380217  0.082695875  0.4803387236519798  1.0000
  V   V6        1.0  0.51380217  0.416029205  0.45448993995217857  1.0000
  V   V7        1.0  0.013802169999999893  0.527140315  0.4717224613847613  1.0000
  V   V8        1.0  0.9891737100000001  0.8598939149999999  0.5220977424729196  1.0000
  V   V9        1.0  0.010826289999999794  0.19358797500000002  0.4976959489276806  1.0000
  Si  Si1       1.0  0.68811842  0.41475427499999995  0.480437589049878  1.0000
  Si  Si2       1.0  0.68811842  0.7480876049999999  0.4545888053500768  1.0000
  Si  Si3       1.0  0.6883813599999998  0.08566160500000002  0.5073650735551604  1.0000
  Si  Si4       1.0  0.8481080700000001  0.8626061649999999  0.49724886007531455  1.0000
  Si  Si5       1.0  0.8509602999999999  0.195081915  0.471623595986863  1.0000
  Si  Si6       1.0  0.8539815199999998  0.499400645  0.5241663131842174  1.0000
  Si  Si7       1.0  0.8509603  0.580146005  0.4934608478486039  1.0000
  Si  Si8       1.0  0.8509603  0.913479345  0.46761206414880274  1.0000
  Si  Si9       1.0  0.83031791  0.273572465  0.5195507448765959  1.0000
  Si  Si10      1.0  0.3394859199999999  0.639526355  0.46300733371964453  1.0000
  Si  Si11      1.0  0.3385596599999998  0.9670739249999999  0.5148440223805382  1.0000
  Si  Si12      1.0  0.3394859199999999  0.306193025  0.48885612052129995  1.0000
  Si  Si13      1.0  0.19636641999999985  0.635629935  0.5155634881492549  1.0000
  Si  Si14      1.0  0.17664403999999984  0.970309825  0.48905385131709644  1.0000
  Si  Si15      1.0  0.17664403999999995  0.30364316500000005  0.46320506761729535  1.0000
  Si  Si16      1.0  0.17664403999999995  0.696356845  0.4844491239897924  1.0000
  Si  Si17      1.0  0.17664403999999995  0.029690175000000003  0.45860033718813714  1.0000
  Si  Si18      1.0  0.19694018999999993  0.35726750500000004  0.5108310636895607  1.0000
