data_image0
_chemical_formula_structural       CORh24V8
_chemical_formula_sum              "C1 O1 Rh24 V8"
_cell_length_a       5.39608615
_cell_length_b       6.60882884
_cell_length_c       107.38518151
_cell_angle_alpha    90.0
_cell_angle_beta     90.0
_cell_angle_gamma    90.0

_space_group_name_H-M_alt    "P 1"
_space_group_IT_number       1

loop_
  _space_group_symop_operation_xyz
  'x, y, z'

loop_
  _atom_site_type_symbol
  _atom_site_label
  _atom_site_symmetry_multiplicity
  _atom_site_fract_x
  _atom_site_fract_y
  _atom_site_fract_z
  _atom_site_occupancy
  C   C1        1.0  0.89688765  0.8631023050000001  0.5555940295953399  1.0000
  O   O1        1.0  0.8290567099999998  0.9161533849999999  0.5656428054361882  1.0000
  Rh  Rh1       1.0  0.8664509499999998  0.42640134500000004  0.4488630695734119  1.0000
  Rh  Rh2       1.0  0.36645094999999994  0.093068005  0.46336894110160215  1.0000
  Rh  Rh3       1.0  0.8664509499999998  0.7597346749999999  0.47787481611120214  1.0000
  Rh  Rh4       1.0  0.36645094999999994  0.7597346749999999  0.4343571945638118  1.0000
  Rh  Rh5       1.0  0.36645094999999994  0.42640134500000004  0.4488630695734119  1.0000
  Rh  Rh6       1.0  0.8664509499999998  0.093068005  0.46336894110160215  1.0000
  Rh  Rh7       1.0  0.36645094999999994  0.7597346749999999  0.47787481611120214  1.0000
  Rh  Rh8       1.0  0.8664509499999998  0.7597346749999999  0.4343571945638118  1.0000
  Rh  Rh9       1.0  0.11645094999999998  0.093068005  0.44161013032790697  1.0000
  Rh  Rh10      1.0  0.6164509499999999  0.7597346749999999  0.456116005337507  1.0000
  Rh  Rh11      1.0  0.11645094999999998  0.42640134500000004  0.470621880347107  1.0000
  Rh  Rh12      1.0  0.6164509499999999  0.093068005  0.4851277518752973  1.0000
  Rh  Rh13      1.0  0.8664509499999998  0.093068005  0.5068865626489925  1.0000
  Rh  Rh14      1.0  0.37304312999999995  0.755662795  0.5205488189729137  1.0000
  Rh  Rh15      1.0  0.87577886  0.418517525  0.5354557001615486  1.0000
  Rh  Rh16      1.0  0.36645094999999994  0.42640134500000004  0.4923806911208022  1.0000
  Rh  Rh17      1.0  0.36645094999999994  0.093068005  0.5068865626489925  1.0000
  Rh  Rh18      1.0  0.86940966  0.7587597749999999  0.5218962777180488  1.0000
  Rh  Rh19      1.0  0.36596508  0.43586495499999994  0.5356866673268541  1.0000
  Rh  Rh20      1.0  0.8664509499999998  0.42640134500000004  0.4923806911208022  1.0000
  Rh  Rh21      1.0  0.11645094999999998  0.7597346749999999  0.4996336268848974  1.0000
  Rh  Rh22      1.0  0.6196049699999999  0.428463065  0.5138613163691081  1.0000
  Rh  Rh23      1.0  0.14381882999999998  0.083846615  0.5307656320169002  1.0000
  Rh  Rh24      1.0  0.60784814  0.8313959449999999  0.5425197415968503  1.0000
  V   V1        1.0  0.11645094999999998  0.093068005  0.4851277518752973  1.0000
  V   V2        1.0  0.6164509499999999  0.093068005  0.44161013032790697  1.0000
  V   V3        1.0  0.11645094999999998  0.7597346749999999  0.456116005337507  1.0000
  V   V4        1.0  0.6164509499999999  0.42640134500000004  0.470621880347107  1.0000
  V   V5        1.0  0.10311234999999996  0.754358665  0.5411767390561617  1.0000
  V   V6        1.0  0.6164509499999999  0.7597346749999999  0.4996336268848974  1.0000
  V   V7        1.0  0.12190512999999997  0.430682345  0.5155461028280203  1.0000
  V   V8        1.0  0.6212112599999999  0.102921805  0.52778686822903  1.0000
