data_image0
_chemical_formula_structural       COGa30Rh18
_chemical_formula_sum              "C1 O1 Ga30 Rh18"
_cell_length_a       13.213086786019458
_cell_length_b       11.183865473360592
_cell_length_c       100.37593643
_cell_angle_alpha    78.5235352287126
_cell_angle_beta     90.82666180634733
_cell_angle_gamma    44.65806128219871

_space_group_name_H-M_alt    "P 1"
_space_group_IT_number       1

loop_
  _space_group_symop_operation_xyz
  'x, y, z'

loop_
  _atom_site_type_symbol
  _atom_site_label
  _atom_site_symmetry_multiplicity
  _atom_site_fract_x
  _atom_site_fract_y
  _atom_site_fract_z
  _atom_site_occupancy
  C   C1        1.0  0.9370399800000001  0.096409465  0.5350103164723636  1.0000
  O   O1        1.0  0.9788443900000001  0.03900352500000001  0.5473162614238444  1.0000
  Ga  Ga1       1.0  0.93622039  0.459138475  0.46869480506446787  1.0000
  Ga  Ga2       1.0  0.6041296300000001  0.4529208249999999  0.5171025836161021  1.0000
  Ga  Ga3       1.0  0.27453127999999993  0.457862565  0.49399111025452086  1.0000
  Ga  Ga4       1.0  0.03673268999999998  0.5383377149999999  0.4834100212275493  1.0000
  Ga  Ga5       1.0  0.70339936  0.5383377149999999  0.4581915473122847  1.0000
  Ga  Ga6       1.0  0.33718403  0.569104675  0.5147068214371487  1.0000
  Ga  Ga7       1.0  0.43833433000000005  0.953168935  0.45894309619710183  1.0000
  Ga  Ga8       1.0  0.09918124000000005  0.960996475  0.5102374045895344  1.0000
  Ga  Ga9       1.0  0.77166766  0.953168935  0.4841615701123665  1.0000
  Ga  Ga10      1.0  0.53256936  0.044065835000000005  0.4926945396896461  1.0000
  Ga  Ga11      1.0  0.20128542  0.044307255000000004  0.46794325920586766  1.0000
  Ga  Ga12      1.0  0.8471980899999999  0.04320950500000001  0.520354296139841  1.0000
  Ga  Ga13      1.0  0.69973728  0.7246017950000001  0.4813788879338271  1.0000
  Ga  Ga14      1.0  0.3664039400000001  0.7246017950000001  0.4561604109923456  1.0000
  Ga  Ga15      1.0  0.026599559999999894  0.719179045  0.5077891012311854  1.0000
  Ga  Ga16      1.0  0.2732157999999999  0.272874395  0.47072594138440704  1.0000
  Ga  Ga17      1.0  0.9294026300000001  0.289785385  0.5199064704970964  1.0000
  Ga  Ga18      1.0  0.6009271800000002  0.28327148499999993  0.495730903586097  1.0000
  Ga  Ga19      1.0  0.16555114999999998  0.126616445  0.4915977872064622  1.0000
  Ga  Ga20      1.0  0.8322178200000001  0.126616445  0.4663793102649807  1.0000
  Ga  Ga21      1.0  0.50956565  0.10168867499999999  0.5180275589442326  1.0000
  Ga  Ga22      1.0  0.8074019299999999  0.870859745  0.4605070421117719  1.0000
  Ga  Ga23      1.0  0.46222922  0.863757545  0.5120926813876995  1.0000
  Ga  Ga24      1.0  0.14073526000000006  0.870859745  0.48572551602703645  1.0000
  Ga  Ga25      1.0  0.17246990999999992  0.652291845  0.4593899988436641  1.0000
  Ga  Ga26      1.0  0.7951293700000002  0.681052715  0.5107146692711662  1.0000
  Ga  Ga27      1.0  0.5058032499999999  0.652291845  0.48460847578514576  1.0000
  Ga  Ga28      1.0  0.7990405  0.34392603499999996  0.4923770350553969  1.0000
  Ga  Ga29      1.0  0.46714983000000015  0.34518434499999995  0.46749635353308844  1.0000
  Ga  Ga30      1.0  0.11679407999999997  0.359464305  0.5159847353742747  1.0000
  Rh  Rh1       1.0  0.6913689699999999  0.7743545450000001  0.4526837385761555  1.0000
  Rh  Rh2       1.0  0.3450040200000001  0.780574815  0.5025392018381041  1.0000
  Rh  Rh3       1.0  0.024702309999999846  0.7743545450000001  0.4779022124914202  1.0000
  Rh  Rh4       1.0  0.29274351000000004  0.209272485  0.5000088305011795  1.0000
  Rh  Rh5       1.0  0.94825077  0.223121645  0.47420261682681397  1.0000
  Rh  Rh6       1.0  0.5839263100000001  0.250005835  0.5205060851316695  1.0000
  Rh  Rh7       1.0  0.7455519599999999  0.945861655  0.5087627048401424  1.0000
  Rh  Rh8       1.0  0.41692832  0.948954805  0.4838803165314509  1.0000
  Rh  Rh9       1.0  0.08359498999999997  0.948954805  0.4586618426161864  1.0000
  Rh  Rh10      1.0  0.19492675999999998  0.072280545  0.5170547391254761  1.0000
  Rh  Rh11      1.0  0.8894402499999999  0.04360429500000001  0.4951478363060301  1.0000
  Rh  Rh12      1.0  0.5560247600000001  0.04852138500000001  0.4682245127867832  1.0000
  Rh  Rh13      1.0  0.021155609999999835  0.5769493850000001  0.4556158160088837  1.0000
  Rh  Rh14      1.0  0.6799207700000001  0.582377485  0.5056169825402922  1.0000
  Rh  Rh15      1.0  0.3544889399999999  0.5769493850000001  0.4808342929503652  1.0000
  Rh  Rh16      1.0  0.9460644800000001  0.426707815  0.4955713341903849  1.0000
  Rh  Rh17      1.0  0.61846414  0.420526805  0.4712705363678689  1.0000
  Rh  Rh18      1.0  0.27079791  0.407852755  0.5186685328864199  1.0000
