data_image0
_chemical_formula_structural       COPt16W8Pt16W8
_chemical_formula_sum              "C1 O1 Pt32 W16"
_cell_length_a       16.993565673138008
_cell_length_b       4.866404776269744
_cell_length_c       104.06483344
_cell_angle_alpha    109.46088700426377
_cell_angle_beta     84.52104236635104
_cell_angle_gamma    84.52104233622747

_space_group_name_H-M_alt    "P 1"
_space_group_IT_number       1

loop_
  _space_group_symop_operation_xyz
  'x, y, z'

loop_
  _atom_site_type_symbol
  _atom_site_label
  _atom_site_symmetry_multiplicity
  _atom_site_fract_x
  _atom_site_fract_y
  _atom_site_fract_z
  _atom_site_occupancy
  C   C1        1.0  0.9392888399999999  0.37388360999999987  0.5471371614632655  1.0000
  O   O1        1.0  0.92167157  0.4360859800000002  0.5591867829026198  1.0000
  Pt  Pt1       1.0  0.66042541  0.18930687999999993  0.4915163240286388  1.0000
  Pt  Pt2       1.0  0.16042540999999994  0.43930687999999996  0.5032071258111575  1.0000
  Pt  Pt3       1.0  0.16544516999999995  0.9490429299999998  0.5265863201360526  1.0000
  Pt  Pt4       1.0  0.6621090199999999  0.6999212000000001  0.5148152441741752  1.0000
  Pt  Pt5       1.0  0.74567352  0.15747756000000002  0.5128107334618689  1.0000
  Pt  Pt6       1.0  0.24786158999999996  0.40638979  0.5245081901155957  1.0000
  Pt  Pt7       1.0  0.24743456999999996  0.8958023  0.5011727123696402  1.0000
  Pt  Pt8       1.0  0.74743457  0.6458022999999999  0.48948191058712154  1.0000
  Pt  Pt9       1.0  0.9089065399999999  0.06338952000000007  0.5089112211673084  1.0000
  Pt  Pt10      1.0  0.41210143999999993  0.32437759  0.52056910212359  1.0000
  Pt  Pt11      1.0  0.41042540999999994  0.8143068800000002  0.4973617265566102  1.0000
  Pt  Pt12      1.0  0.9219671299999999  0.5403752900000002  0.531922976909696  1.0000
  Pt  Pt13      1.0  0.002565429999999968  0.01205768  0.5315811856050614  1.0000
  Pt  Pt14      1.0  0.49743457  0.2708023  0.495327313115093  1.0000
  Pt  Pt15      1.0  0.49776248999999995  0.7817126500000002  0.5185535403315008  1.0000
  Pt  Pt16      1.0  0.9972202499999999  0.5282294000000002  0.5069754752752029  1.0000
  W   W1        1.0  0.57915915  0.21334699999999998  0.5153252698373288  1.0000
  W   W2        1.0  0.08318504999999995  0.46343543000000004  0.5268958976740571  1.0000
  W   W3        1.0  0.07847317999999996  0.98794232  0.5059188925358696  1.0000
  W   W4        1.0  0.57892999  0.7300545900000001  0.49342181693515386  1.0000
  W   W5        1.0  0.82892999  0.10505458999999992  0.4875764176806066  1.0000
  W   W6        1.0  0.32892998999999995  0.35505459  0.49926721946312513  1.0000
  W   W7        1.0  0.32990337999999997  0.83917946  0.5211792978378202  1.0000
  W   W8        1.0  0.8280153  0.5890002800000002  0.5100492499718303  1.0000
  Pt  Pt17      1.0  0.66042541  0.18930687999999993  0.44475312344541246  1.0000
  Pt  Pt18      1.0  0.16042540999999994  0.43930687999999996  0.45644392522793115  1.0000
  Pt  Pt19      1.0  0.16042540999999994  0.9393068800000002  0.4798255255195443  1.0000
  Pt  Pt20      1.0  0.66042541  0.68930688  0.46813472373702575  1.0000
  Pt  Pt21      1.0  0.74743457  0.14580230000000002  0.46610031029550825  1.0000
  Pt  Pt22      1.0  0.24743456999999996  0.3958023  0.4777911120780271  1.0000
  Pt  Pt23      1.0  0.24743456999999996  0.8958023  0.4544095117864138  1.0000
  Pt  Pt24      1.0  0.74743457  0.6458022999999999  0.4427187100038952  1.0000
  Pt  Pt25      1.0  0.91042541  0.06430687999999997  0.4622893244824784  1.0000
  Pt  Pt26      1.0  0.41042540999999994  0.31430688  0.4739801229915729  1.0000
  Pt  Pt27      1.0  0.41042540999999994  0.8143068800000002  0.4505985226999597  1.0000
  Pt  Pt28      1.0  0.91042541  0.56430688  0.4856709247740915  1.0000
  Pt  Pt29      1.0  0.9974345700000001  0.020802299999999958  0.4836365113325743  1.0000
  Pt  Pt30      1.0  0.49743457  0.2708023  0.4485641092584425  1.0000
  Pt  Pt31      1.0  0.49743457  0.7708023  0.47194570955005566  1.0000
  Pt  Pt32      1.0  0.9974345700000001  0.5208023  0.4602549110409611  1.0000
  W   W9        1.0  0.57892999  0.23005459000000003  0.4700402166435407  1.0000
  W   W10       1.0  0.07892998999999998  0.48005459  0.48173101842605925  1.0000
  W   W11       1.0  0.07892998999999998  0.9800545900000001  0.4583494181344461  1.0000
  W   W12       1.0  0.57892999  0.7300545900000001  0.4466586163519275  1.0000
  W   W13       1.0  0.82892999  0.10505458999999992  0.4408132170973802  1.0000
  W   W14       1.0  0.32892998999999995  0.35505459  0.45250401560647474  1.0000
  W   W15       1.0  0.32892998999999995  0.8550545900000001  0.475885619171512  1.0000
  W   W16       1.0  0.82892999  0.6050545900000001  0.46419481738899343  1.0000
