data_image0
_chemical_formula_structural       COAl36Fe6
_chemical_formula_sum              "C1 O1 Al36 Fe6"
_cell_length_a       4.947734490604028
_cell_length_b       10.152403726822886
_cell_length_c       108.60557465
_cell_angle_alpha    91.57184452133909
_cell_angle_beta     90.1472545116516
_cell_angle_gamma    93.91202821690744

_space_group_name_H-M_alt    "P 1"
_space_group_IT_number       1

loop_
  _space_group_symop_operation_xyz
  'x, y, z'

loop_
  _atom_site_type_symbol
  _atom_site_label
  _atom_site_symmetry_multiplicity
  _atom_site_fract_x
  _atom_site_fract_y
  _atom_site_fract_z
  _atom_site_occupancy
  C   C1        1.0  0.09480895000000007  0.597200725  0.5585154578709101  1.0000
  O   O1        1.0  0.12596031000000008  0.6248399549999999  0.5689491843921132  1.0000
  Al  Al1       1.0  0.19686221000000007  0.29594603499999994  0.4953595210865275  1.0000
  Al  Al2       1.0  0.08575109000000004  0.5181682549999999  0.45586331414343984  1.0000
  Al  Al3       1.0  0.3158906000000001  0.07612707499999996  0.5359571212422545  1.0000
  Al  Al4       1.0  0.26946771000000014  0.10088344499999995  0.45850837119924825  1.0000
  Al  Al5       1.0  0.55412201  0.6814428849999999  0.5389939869942495  1.0000
  Al  Al6       1.0  0.38057882000000004  0.8786612149999999  0.4980045781423359  1.0000
  Al  Al7       1.0  0.14130665000000003  0.9070571449999999  0.47561141583765437  1.0000
  Al  Al8       1.0  0.03019554000000006  0.12927937499999997  0.4361152088945666  1.0000
  Al  Al9       1.0  0.25241776000000005  0.6848349249999999  0.5151076263354007  1.0000
  Al  Al10      1.0  0.73362648  0.562483035  0.5187650537323567  1.0000
  Al  Al11      1.0  0.6194211800000001  0.7919757350000001  0.47871890554791474  1.0000
  Al  Al12      1.0  0.50831007  0.01419796499999997  0.439222698604827  1.0000
  Al  Al13      1.0  0.21676568000000004  0.4051548849999999  0.518617965511647  1.0000
  Al  Al14      1.0  0.08289289000000005  0.634462825  0.4796271741555331  1.0000
  Al  Al15      1.0  0.9717817800000003  0.856685045  0.4401309672124454  1.0000
  Al  Al16      1.0  0.85869335  0.7635798049999999  0.5011120678525964  1.0000
  Al  Al17      1.0  0.74758224  0.985802035  0.46161585735485006  1.0000
  Al  Al18      1.0  0.05711728000000005  0.5282050749999999  0.5408545735396063  1.0000
  Al  Al19      1.0  0.3033349600000001  0.3379541849999999  0.47054702255097436  1.0000
  Al  Al20      1.0  0.19222385000000006  0.5601764049999999  0.43105081560788666  1.0000
  Al  Al21      1.0  0.4144460700000001  0.11573196499999996  0.5100432294940621  1.0000
  Al  Al22      1.0  0.9171071100000002  0.03617413499999997  0.4970963095347176  1.0000
  Al  Al23      1.0  0.805996  0.25839635499999997  0.45760010259162986  1.0000
  Al  Al24      1.0  0.05906824000000004  0.8159546549999999  0.5366297941831772  1.0000
  Al  Al25      1.0  0.62031234  0.8949863949999999  0.5231206125355615  1.0000
  Al  Al26      1.0  0.51301322  0.11699290499999995  0.48273215072212056  1.0000
  Al  Al27      1.0  0.4019021100000001  0.33921513499999995  0.44323594377903286  1.0000
  Al  Al28      1.0  0.48698678000000006  0.5536440449999999  0.4939913329681301  1.0000
  Al  Al29      1.0  0.3758756600000001  0.7758662649999999  0.45449512247038376  1.0000
  Al  Al30      1.0  0.59778793  0.337466715  0.536913331531226  1.0000
  Al  Al31      1.0  0.6966650400000001  0.332682775  0.5061764611392764  1.0000
  Al  Al32      1.0  0.58555393  0.554904995  0.4666802541961886  1.0000
  Al  Al33      1.0  0.8210679999999999  0.09837674499999996  0.5446707484376782  1.0000
  Al  Al34      1.0  0.91823885  0.15132158499999995  0.5204955930906218  1.0000
  Al  Al35      1.0  0.8031377900000001  0.37469091499999996  0.48136396260372316  1.0000
  Al  Al36      1.0  0.69202668  0.5969131449999999  0.44186775566063546  1.0000
  Fe  Fe1       1.0  0.007630390000000058  0.14972607499999996  0.4769143901882676  1.0000
  Fe  Fe2       1.0  0.8965192800000003  0.37194829499999993  0.43741818324517984  1.0000
  Fe  Fe3       1.0  0.11874150000000006  0.9275038549999999  0.5164105971313553  1.0000
  Fe  Fe4       1.0  0.9923696099999999  0.520910885  0.4998090935019831  1.0000
  Fe  Fe5       1.0  0.8812585000000001  0.743133105  0.4603128865588954  1.0000
  Fe  Fe6       1.0  0.09170316000000006  0.290821695  0.5369340729645096  1.0000
