data_image0
_chemical_formula_structural       COCu3Au9Cu3Au9Cu3Au9Cu3Au9
_chemical_formula_sum              "C1 O1 Cu12 Au36"
_cell_length_a       8.17203382
_cell_length_b       9.136611573969626
_cell_length_c       104.67100318
_cell_angle_alpha    71.56505115724732
_cell_angle_beta     90.0
_cell_angle_gamma    90.0

_space_group_name_H-M_alt    "P 1"
_space_group_IT_number       1

loop_
  _space_group_symop_operation_xyz
  'x, y, z'

loop_
  _atom_site_type_symbol
  _atom_site_label
  _atom_site_symmetry_multiplicity
  _atom_site_fract_x
  _atom_site_fract_y
  _atom_site_fract_z
  _atom_site_occupancy
  C   C1        1.0  0.58292861  0.9690308449999999  0.5534348639457021  1.0000
  O   O1        1.0  0.5392323800000001  0.9297692349999999  0.564494122296767  1.0000
  Cu  Cu1       1.0  0.12399281999999999  0.6977953050000001  0.4631090381618318  1.0000
  Cu  Cu2       1.0  0.12399281999999999  0.36446196499999994  0.4447069311894328  1.0000
  Cu  Cu3       1.0  0.12399281999999999  0.031128634999999995  0.48151114182185195  1.0000
  Au  Au1       1.0  0.12399281999999999  0.6977953050000001  0.4355058777032332  1.0000
  Au  Au2       1.0  0.12399281999999999  0.36446196499999994  0.47231008833565236  1.0000
  Au  Au3       1.0  0.12399281999999999  0.031128634999999995  0.45390798467563226  1.0000
  Au  Au4       1.0  0.37399282  0.8644619649999999  0.4447069311894328  1.0000
  Au  Au5       1.0  0.37399282  0.531128635  0.48151114182185184  1.0000
  Au  Au6       1.0  0.37399282  0.19779530499999998  0.46310903816183185  1.0000
  Au  Au7       1.0  0.37399282  0.531128635  0.45390798467563226  1.0000
  Au  Au8       1.0  0.37399282  0.19779530499999998  0.43550587770323324  1.0000
  Au  Au9       1.0  0.37399282  0.8644619649999999  0.47231008833565236  1.0000
  Cu  Cu4       1.0  0.12476422999999998  0.7065827450000001  0.5182876444040193  1.0000
  Cu  Cu5       1.0  0.12399281999999999  0.36446196499999994  0.4999132487942509  1.0000
  Cu  Cu6       1.0  0.12011855999999999  0.05083092499999999  0.5329817186531534  1.0000
  Au  Au10      1.0  0.12399281999999999  0.6977953050000001  0.4907121953080514  1.0000
  Au  Au11      1.0  0.12158574999999998  0.36241101499999995  0.5282471631189795  1.0000
  Au  Au12      1.0  0.12472682999999998  0.03336832499999999  0.5083211763179379  1.0000
  Au  Au13      1.0  0.37399282  0.8644619649999999  0.4999132487942509  1.0000
  Au  Au14      1.0  0.36986743  0.5540892350000001  0.5345699878169833  1.0000
  Au  Au15      1.0  0.37746957  0.20020577499999997  0.5195121547319208  1.0000
  Au  Au16      1.0  0.37111595999999997  0.5271084650000001  0.5087066974838309  1.0000
  Au  Au17      1.0  0.37399282  0.19779530499999998  0.4907121953080514  1.0000
  Au  Au18      1.0  0.36034573  0.8686723749999999  0.5291595976603343  1.0000
  Cu  Cu7       1.0  0.62399282  0.6977953050000001  0.4631090381618318  1.0000
  Cu  Cu8       1.0  0.62399282  0.36446196499999994  0.4447069311894328  1.0000
  Cu  Cu9       1.0  0.62399282  0.031128634999999995  0.48151114182185195  1.0000
  Au  Au19      1.0  0.62399282  0.6977953050000001  0.4355058777032332  1.0000
  Au  Au20      1.0  0.62399282  0.36446196499999994  0.47231008833565236  1.0000
  Au  Au21      1.0  0.62399282  0.031128634999999995  0.45390798467563226  1.0000
  Au  Au22      1.0  0.87399282  0.8644619649999999  0.4447069311894328  1.0000
  Au  Au23      1.0  0.87399282  0.531128635  0.48151114182185184  1.0000
  Au  Au24      1.0  0.87399282  0.19779530499999998  0.46310903816183185  1.0000
  Au  Au25      1.0  0.87399282  0.531128635  0.45390798467563226  1.0000
  Au  Au26      1.0  0.87399282  0.19779530499999998  0.43550587770323324  1.0000
  Au  Au27      1.0  0.87399282  0.8644619649999999  0.47231008833565236  1.0000
  Cu  Cu10      1.0  0.62276911  0.7134785149999999  0.5194664472142373  1.0000
  Cu  Cu11      1.0  0.62399282  0.36446196499999994  0.4999132487942509  1.0000
  Cu  Cu12      1.0  0.6235055500000001  0.031688524999999995  0.5351138506357372  1.0000
  Au  Au28      1.0  0.62399282  0.6977953050000001  0.4907121953080514  1.0000
  Au  Au29      1.0  0.6243622  0.37698390499999995  0.5277381829633697  1.0000
  Au  Au30      1.0  0.6207106  0.030969154999999995  0.5092362309510738  1.0000
  Au  Au31      1.0  0.87399282  0.8644619649999999  0.4999132487942509  1.0000
  Au  Au32      1.0  0.87816892  0.556615115  0.5345216072094547  1.0000
  Au  Au33      1.0  0.86607055  0.20106769500000002  0.5191228143930523  1.0000
  Au  Au34      1.0  0.8761397400000001  0.528079195  0.5086779924075032  1.0000
  Au  Au35      1.0  0.87399282  0.19779530499999998  0.4907121953080514  1.0000
  Au  Au36      1.0  0.87988144  0.8710442749999999  0.5285608785331264  1.0000
