data_image0
_chemical_formula_structural       COAl4Fe6Si8Al4Fe6Si8
_chemical_formula_sum              "C1 O1 Al8 Fe12 Si16"
_cell_length_a       7.35165408
_cell_length_b       6.407843923660044
_cell_length_c       39.609151510000004
_cell_angle_alpha    90.0
_cell_angle_beta     90.0
_cell_angle_gamma    106.66781627286795

_space_group_name_H-M_alt    "P 1"
_space_group_IT_number       1

loop_
  _space_group_symop_operation_xyz
  'x, y, z'

loop_
  _atom_site_type_symbol
  _atom_site_label
  _atom_site_symmetry_multiplicity
  _atom_site_fract_x
  _atom_site_fract_y
  _atom_site_fract_z
  _atom_site_occupancy
  C   C1        1.0  0.03457023499999999  0.13360201000000002  0.62627460116484  1.0000
  O   O1        1.0  0.02826895499999999  0.10694774000000001  0.6554130823978191  1.0000
  Al  Al1       1.0  0.03437656499999999  0.13105926  0.5756862967679309  1.0000
  Al  Al2       1.0  0.4717310449999999  0.8808711199999999  0.37592343852551363  1.0000
  Al  Al3       1.0  0.4717310449999999  0.8808711199999999  0.44792453771557916  1.0000
  Al  Al4       1.0  0.02866607499999999  0.10891320000000002  0.5037624077923476  1.0000
  Fe  Fe1       1.0  0.32269672499999996  0.29189518999999997  0.5385436260279246  1.0000
  Fe  Fe2       1.0  0.17668517499999994  0.7006876499999999  0.4119239919568881  1.0000
  Fe  Fe3       1.0  0.075327345  0.29525630999999997  0.4437972708027629  1.0000
  Fe  Fe4       1.0  0.42519216500000007  0.6945503  0.5067965091175296  1.0000
  Fe  Fe5       1.0  0.4327618449999999  0.7206165099999999  0.5673375960971883  1.0000
  Fe  Fe6       1.0  0.075327345  0.29525630999999997  0.3800507054383299  1.0000
  Si  Si1       1.0  0.160312815  0.63519822  0.47246497919166075  1.0000
  Si  Si2       1.0  0.34076919499999997  0.35702369999999994  0.4792610586389121  1.0000
  Si  Si3       1.0  0.273202305  0.08675617000000002  0.4119239919568881  1.0000
  Si  Si4       1.0  0.22672197499999996  0.91316046  0.5447431773478426  1.0000
  Si  Si5       1.0  0.37073619499999994  0.47689172999999996  0.4119239919568881  1.0000
  Si  Si6       1.0  0.13140481499999998  0.51671807  0.5445519970920287  1.0000
  Si  Si7       1.0  0.160312815  0.63519822  0.351382997049432  1.0000
  Si  Si8       1.0  0.34076919499999997  0.35702369999999994  0.3445869176021807  1.0000
  Al  Al5       1.0  0.531923025  0.12320028000000002  0.5752702531755541  1.0000
  Al  Al6       1.0  0.971731045  0.8808711199999999  0.37592343852551363  1.0000
  Al  Al7       1.0  0.971731045  0.8808711199999999  0.44792453771557916  1.0000
  Al  Al8       1.0  0.528428475  0.10768004000000002  0.5042508508266259  1.0000
  Fe  Fe7       1.0  0.826292315  0.29285089  0.538486149955512  1.0000
  Fe  Fe8       1.0  0.676685175  0.7006876499999999  0.4119239919568881  1.0000
  Fe  Fe9       1.0  0.5753273449999999  0.29525630999999997  0.4437972708027629  1.0000
  Fe  Fe10      1.0  0.9254388549999999  0.69517348  0.5068771950576564  1.0000
  Fe  Fe11      1.0  0.9290511450000001  0.7141055699999999  0.5673477930936155  1.0000
  Fe  Fe12      1.0  0.5753273449999999  0.29525630999999997  0.3800507054383299  1.0000
  Si  Si9       1.0  0.6603128149999999  0.63519822  0.47246497919166075  1.0000
  Si  Si10      1.0  0.840769195  0.35702369999999994  0.4792610586389121  1.0000
  Si  Si11      1.0  0.773202305  0.08675617000000002  0.4119239919568881  1.0000
  Si  Si12      1.0  0.7327114649999998  0.9132438299999999  0.5449859257097417  1.0000
  Si  Si13      1.0  0.870736195  0.47689172999999996  0.4119239919568881  1.0000
  Si  Si14      1.0  0.629040595  0.5130451999999999  0.5447375379254393  1.0000
  Si  Si15      1.0  0.6603128149999999  0.63519822  0.351382997049432  1.0000
  Si  Si16      1.0  0.840769195  0.35702369999999994  0.3445869176021807  1.0000
