data_image0
_chemical_formula_structural       In6Pd4In6Pd4CO
_chemical_formula_sum              "In12 Pd8 C1 O1"
_cell_length_a       4.6646096339570615
_cell_length_b       12.19040573587529
_cell_length_c       32.68312291
_cell_angle_alpha    67.50232320183372
_cell_angle_beta     59.99999995714565
_cell_angle_gamma    78.96999779509686

_space_group_name_H-M_alt    "P 1"
_space_group_IT_number       1

loop_
  _space_group_symop_operation_xyz
  'x, y, z'

loop_
  _atom_site_type_symbol
  _atom_site_label
  _atom_site_symmetry_multiplicity
  _atom_site_fract_x
  _atom_site_fract_y
  _atom_site_fract_z
  _atom_site_occupancy
  In  In1       1.0  0.0013290049999999806  0.03616918500000003  0.47605625472398816  1.0000
  In  In2       1.0  0.998670995  0.530631285  0.5502576451096589  1.0000
  In  In3       1.0  0.6649768849999999  0.3566154950000001  0.5275491611185898  1.0000
  In  In4       1.0  0.674256605  0.8626469250000001  0.5969186146888243  1.0000
  In  In5       1.0  0.334662335  0.21479756500000005  0.4981360984763388  1.0000
  In  In6       1.0  0.33113462499999996  0.717537665  0.5730799301334448  1.0000
  Pd  Pd1       1.0  0.651188805  0.10978256500000004  0.5617151951962964  1.0000
  Pd  Pd2       1.0  0.667995675  0.6089911250000001  0.48944998660293426  1.0000
  Pd  Pd3       1.0  0.35918918499999997  0.47888708500000005  0.5976792330691274  1.0000
  Pd  Pd4       1.0  0.3344566849999999  0.9638308150000001  0.5330838624131776  1.0000
  In  In7       1.0  0.0013290049999999806  0.03616918500000003  0.3333339803227627  1.0000
  In  In8       1.0  0.0013290049999999806  0.5361691850000001  0.4046951175233755  1.0000
  In  In9       1.0  0.667995675  0.357540805  0.3826152737710248  1.0000
  In  In10      1.0  0.667995675  0.8575408050000002  0.4539764109716375  1.0000
  In  In11      1.0  0.334662335  0.21479756500000005  0.3554138240751133  1.0000
  In  In12      1.0  0.334662335  0.714797565  0.426774961275726  1.0000
  Pd  Pd5       1.0  0.667995675  0.10899112500000002  0.4180888494023216  1.0000
  Pd  Pd6       1.0  0.667995675  0.6089911250000001  0.34672771220170884  1.0000
  Pd  Pd7       1.0  0.334662335  0.4633472450000001  0.462662522845042  1.0000
  Pd  Pd8       1.0  0.334662335  0.963347245  0.39130138564442923  1.0000
  C   C1        1.0  0.312454885  0.10479100500000003  0.6289674266235894  1.0000
  O   O1        1.0  0.08750284499999998  0.10901153500000002  0.6666660196772374  1.0000
