data_image0
_chemical_formula_structural       COSn16
_chemical_formula_sum              "C1 O1 Sn16"
_cell_length_a       4.75570843
_cell_length_b       11.64905901
_cell_length_c       102.94851449000001
_cell_angle_alpha    90.0
_cell_angle_beta     90.0
_cell_angle_gamma    90.0

_space_group_name_H-M_alt    "P 1"
_space_group_IT_number       1

loop_
  _space_group_symop_operation_xyz
  'x, y, z'

loop_
  _atom_site_type_symbol
  _atom_site_label
  _atom_site_symmetry_multiplicity
  _atom_site_fract_x
  _atom_site_fract_y
  _atom_site_fract_z
  _atom_site_occupancy
  C   C1        1.0  0.867790965  0.804902655  0.5487176707965283  1.0000
  O   O1        1.0  0.870566875  0.8328026149999999  0.5594709921219917  1.0000
  Sn  Sn1       1.0  0.651105125  0.597358885  0.4938704173117823  1.0000
  Sn  Sn2       1.0  0.630860475  0.23513606499999992  0.519848441126337  1.0000
  Sn  Sn3       1.0  0.651105125  0.2640255449999999  0.4405290078780083  1.0000
  Sn  Sn4       1.0  0.651105125  0.930692215  0.4671997125948953  1.0000
  Sn  Sn5       1.0  0.651105125  0.6806922149999999  0.4671997125948953  1.0000
  Sn  Sn6       1.0  0.651105125  0.34735888499999995  0.4938704173117823  1.0000
  Sn  Sn7       1.0  0.6510798849999999  0.985974455  0.5236909974582481  1.0000
  Sn  Sn8       1.0  0.651105125  0.014025544999999954  0.4405290078780083  1.0000
  Sn  Sn9       1.0  0.15110512499999998  0.597358885  0.4538643586362094  1.0000
  Sn  Sn10      1.0  0.15110512499999998  0.2640255449999999  0.48053506655358114  1.0000
  Sn  Sn11      1.0  0.15195271499999996  0.935605905  0.5078885114673408  1.0000
  Sn  Sn12      1.0  0.256518505  0.601144715  0.5338721937388344  1.0000
  Sn  Sn13      1.0  0.15110512499999998  0.34735888499999995  0.4538643586362094  1.0000
  Sn  Sn14      1.0  0.15110512499999998  0.014025544999999954  0.48053506655358114  1.0000
  Sn  Sn15      1.0  0.15127584499999996  0.6826986349999999  0.5073119217463156  1.0000
  Sn  Sn16      1.0  0.12943312499999998  0.372737175  0.525734030063177  1.0000
