data_image0
_chemical_formula_structural       CORh24
_chemical_formula_sum              "C1 O1 Rh24"
_cell_length_a       5.44065814
_cell_length_b       5.440658132794586
_cell_length_c       109.98050889000001
_cell_angle_alpha    90.0
_cell_angle_beta     90.0
_cell_angle_gamma    119.99999992220766

_space_group_name_H-M_alt    "P 1"
_space_group_IT_number       1

loop_
  _space_group_symop_operation_xyz
  'x, y, z'

loop_
  _atom_site_type_symbol
  _atom_site_label
  _atom_site_symmetry_multiplicity
  _atom_site_fract_x
  _atom_site_fract_y
  _atom_site_fract_z
  _atom_site_occupancy
  C   C1        1.0  0.42016391499999994  0.25010766  0.5512973474823496  1.0000
  O   O1        1.0  0.41911234500000005  0.25115793000000003  0.562218846501849  1.0000
  Rh  Rh1       1.0  0.252191965  0.41807662  0.43778115349815094  1.0000
  Rh  Rh2       1.0  0.08552529500000002  0.08474329  0.4781726625570501  1.0000
  Rh  Rh3       1.0  0.418858625  0.25140996  0.45797690984521844  1.0000
  Rh  Rh4       1.0  0.252191965  0.41807662  0.49836841890411754  1.0000
  Rh  Rh5       1.0  0.08080429500000003  0.08259517000000001  0.5389395522369185  1.0000
  Rh  Rh6       1.0  0.4175454350000001  0.25272484  0.5185718637750113  1.0000
  Rh  Rh7       1.0  0.25219196500000013  0.9180766200000001  0.43778115349815094  1.0000
  Rh  Rh8       1.0  0.08552529500000006  0.58474329  0.4781726625570501  1.0000
  Rh  Rh9       1.0  0.418858625  0.75140996  0.45797690984521844  1.0000
  Rh  Rh10      1.0  0.25219196500000013  0.9180766200000001  0.49836841890411754  1.0000
  Rh  Rh11      1.0  0.0857302450000001  0.5845408100000001  0.5379027902424988  1.0000
  Rh  Rh12      1.0  0.41754061499999995  0.7519217999999999  0.5183212251687473  1.0000
  Rh  Rh13      1.0  0.7521919650000001  0.41807662  0.43778115349815094  1.0000
  Rh  Rh14      1.0  0.585525295  0.08474329  0.4781726625570501  1.0000
  Rh  Rh15      1.0  0.9188586250000002  0.25140996  0.45797690984521844  1.0000
  Rh  Rh16      1.0  0.7521919650000001  0.41807662  0.49836841890411754  1.0000
  Rh  Rh17      1.0  0.588347965  0.08192338  0.5389749703398212  1.0000
  Rh  Rh18      1.0  0.9183486749999998  0.25272967  0.5183212215335115  1.0000
  Rh  Rh19      1.0  0.7521919650000002  0.9180766200000001  0.43778115349815094  1.0000
  Rh  Rh20      1.0  0.5855252950000001  0.58474329  0.4781726625570501  1.0000
  Rh  Rh21      1.0  0.9188586249999999  0.75140996  0.45797690984521844  1.0000
  Rh  Rh22      1.0  0.7521919650000002  0.9180766200000001  0.49836841890411754  1.0000
  Rh  Rh23      1.0  0.5876765549999999  0.58946759  0.5389395595073903  1.0000
  Rh  Rh24      1.0  0.9191957049999998  0.75107451  0.5184101757548014  1.0000
