data_image0
_chemical_formula_structural       CONi24
_chemical_formula_sum              "C1 O1 Ni24"
_cell_length_a       5.01325844
_cell_length_b       5.013258435863217
_cell_length_c       106.83977533000001
_cell_angle_alpha    90.0
_cell_angle_beta     90.0
_cell_angle_gamma    120.00000002729635

_space_group_name_H-M_alt    "P 1"
_space_group_IT_number       1

loop_
  _space_group_symop_operation_xyz
  'x, y, z'

loop_
  _atom_site_type_symbol
  _atom_site_label
  _atom_site_symmetry_multiplicity
  _atom_site_fract_x
  _atom_site_fract_y
  _atom_site_fract_z
  _atom_site_occupancy
  C   C1        1.0  0.416939485  0.250515275  0.5487128470318768  1.0000
  O   O1        1.0  0.41698484500000005  0.2505776350000001  0.5599250479557953  1.0000
  Ni  Ni1       1.0  0.250070985  0.416666665  0.44007495204420466  1.0000
  Ni  Ni2       1.0  0.083404315  0.08333333500000001  0.4783875403702636  1.0000
  Ni  Ni3       1.0  0.41673764500000005  0.25000000499999997  0.4592312479313006  1.0000
  Ni  Ni4       1.0  0.250070985  0.416666665  0.4975438362573595  1.0000
  Ni  Ni5       1.0  0.08395753500000003  0.08360108500000002  0.5363668551571473  1.0000
  Ni  Ni6       1.0  0.41610991500000005  0.24875164500000002  0.5166619957936543  1.0000
  Ni  Ni7       1.0  0.250070985  0.916666665  0.44007495204420466  1.0000
  Ni  Ni8       1.0  0.08340431500000002  0.5833333350000001  0.4783875403702636  1.0000
  Ni  Ni9       1.0  0.41673764499999993  0.750000005  0.4592312479313006  1.0000
  Ni  Ni10      1.0  0.250070985  0.916666665  0.4975438362573595  1.0000
  Ni  Ni11      1.0  0.083262355  0.583001025  0.5352913997201567  1.0000
  Ni  Ni12      1.0  0.417108955  0.749573045  0.5167815356679377  1.0000
  Ni  Ni13      1.0  0.7500709850000001  0.416666665  0.44007495204420466  1.0000
  Ni  Ni14      1.0  0.5834043150000001  0.08333333500000001  0.4783875403702636  1.0000
  Ni  Ni15      1.0  0.9167376450000001  0.25000000499999997  0.4592312479313006  1.0000
  Ni  Ni16      1.0  0.7500709850000001  0.416666665  0.4975438362573595  1.0000
  Ni  Ni17      1.0  0.5831722050000001  0.08359683500000001  0.5363704101822536  1.0000
  Ni  Ni18      1.0  0.915709675  0.247975685  0.5167894801663324  1.0000
  Ni  Ni19      1.0  0.7500709850000001  0.916666665  0.44007495204420466  1.0000
  Ni  Ni20      1.0  0.5834043150000001  0.5833333350000001  0.4783875403702636  1.0000
  Ni  Ni21      1.0  0.9167376450000001  0.750000005  0.4592312479313006  1.0000
  Ni  Ni22      1.0  0.7500709850000001  0.916666665  0.4975438362573595  1.0000
  Ni  Ni23      1.0  0.583291255  0.5830533149999999  0.536341976877669  1.0000
  Ni  Ni24      1.0  0.915910815  0.749568815  0.5167818873775021  1.0000
