data_image0
_chemical_formula_structural       COZn18
_chemical_formula_sum              "C1 O1 Zn18"
_cell_length_a       5.916443180546873
_cell_length_b       7.014632741424072
_cell_length_c       98.56653272
_cell_angle_alpha    94.93936667343682
_cell_angle_beta     91.37235860866349
_cell_angle_gamma    114.56505722816804

_space_group_name_H-M_alt    "P 1"
_space_group_IT_number       1

loop_
  _space_group_symop_operation_xyz
  'x, y, z'

loop_
  _atom_site_type_symbol
  _atom_site_label
  _atom_site_symmetry_multiplicity
  _atom_site_fract_x
  _atom_site_fract_y
  _atom_site_fract_z
  _atom_site_occupancy
  C   C1        1.0  0.209665555  0.50665758  0.5383153961454888  1.0000
  O   O1        1.0  0.20298720499999998  0.51645158  0.5500959971394569  1.0000
  Zn  Zn1       1.0  0.650742925  0.8112138700000001  0.45136773775636424  1.0000
  Zn  Zn2       1.0  0.287106565  0.47788053  0.460150155825885  1.0000
  Zn  Zn3       1.0  0.9234702050000001  0.14454720000000001  0.4689325738954059  1.0000
  Zn  Zn4       1.0  0.18104595499999995  0.86676942  0.45868642093006395  1.0000
  Zn  Zn5       1.0  0.8174095949999999  0.53343609  0.46746883899958475  1.0000
  Zn  Zn6       1.0  0.5446823249999998  0.20010275000000005  0.44990400286054305  1.0000
  Zn  Zn7       1.0  0.5598338350000001  0.8112138700000001  0.47771499196492667  1.0000
  Zn  Zn8       1.0  0.19619747499999998  0.47788053  0.4864974100344474  1.0000
  Zn  Zn9       1.0  0.8386624549999998  0.13134350000000003  0.49676124780393605  1.0000
  Zn  Zn10      1.0  0.09013686499999997  0.86676942  0.4850336751386263  1.0000
  Zn  Zn11      1.0  0.705084885  0.5447298100000001  0.4930200509621014  1.0000
  Zn  Zn12      1.0  0.4537732349999999  0.20010275000000005  0.4762512570691055  1.0000
  Zn  Zn13      1.0  0.5007972650000001  0.7975736400000002  0.5073065295804206  1.0000
  Zn  Zn14      1.0  0.08574242499999994  0.4988215  0.5168435166827225  1.0000
  Zn  Zn15      1.0  0.6088467449999998  0.17483521000000005  0.5184863631126426  1.0000
  Zn  Zn16      1.0  0.07652979499999997  0.8686565  0.5124267875655443  1.0000
  Zn  Zn17      1.0  0.672668265  0.5677466900000001  0.5202928273101968  1.0000
  Zn  Zn18      1.0  0.29818652500000004  0.24940510000000002  0.5037957568681317  1.0000
