data_image0
_chemical_formula_structural       COCu24
_chemical_formula_sum              "C1 O1 Cu24"
_cell_length_a       5.20018608
_cell_length_b       5.200186088931998
_cell_length_c       108.21340744
_cell_angle_alpha    90.0
_cell_angle_beta     90.0
_cell_angle_gamma    119.99999994318124

_space_group_name_H-M_alt    "P 1"
_space_group_IT_number       1

loop_
  _space_group_symop_operation_xyz
  'x, y, z'

loop_
  _atom_site_type_symbol
  _atom_site_label
  _atom_site_symmetry_multiplicity
  _atom_site_fract_x
  _atom_site_fract_y
  _atom_site_fract_z
  _atom_site_occupancy
  C   C1        1.0  0.4203850250000001  0.25634858499999996  0.5505637085585782  1.0000
  O   O1        1.0  0.4173732750000001  0.250269105  0.5614933453399104  1.0000
  Cu  Cu1       1.0  0.25093807500000004  0.41746348499999997  0.4385066546600896  1.0000
  Cu  Cu2       1.0  0.08427140500000004  0.08413015499999998  0.4777433279890841  1.0000
  Cu  Cu3       1.0  0.417604735  0.250796825  0.45812499309023713  1.0000
  Cu  Cu4       1.0  0.25093807500000004  0.41746348499999997  0.4973616664192316  1.0000
  Cu  Cu5       1.0  0.08239526500000004  0.08254696499999999  0.5373108997155432  1.0000
  Cu  Cu6       1.0  0.418123585  0.251835325  0.5168723354930204  1.0000
  Cu  Cu7       1.0  0.250938075  0.917463485  0.4385066546600896  1.0000
  Cu  Cu8       1.0  0.08427140500000001  0.584130155  0.4777433279890841  1.0000
  Cu  Cu9       1.0  0.41760473500000006  0.750796825  0.45812499309023713  1.0000
  Cu  Cu10      1.0  0.250938075  0.917463485  0.4973616664192316  1.0000
  Cu  Cu11      1.0  0.08451391500000005  0.584603425  0.5362615631379741  1.0000
  Cu  Cu12      1.0  0.42000530500000005  0.752560225  0.5173766687870988  1.0000
  Cu  Cu13      1.0  0.7509380750000001  0.41746348499999997  0.4385066546600896  1.0000
  Cu  Cu14      1.0  0.5842714050000001  0.08413015499999998  0.4777433279890841  1.0000
  Cu  Cu15      1.0  0.9176047350000001  0.250796825  0.45812499309023713  1.0000
  Cu  Cu16      1.0  0.7509380750000001  0.41746348499999997  0.4973616664192316  1.0000
  Cu  Cu17      1.0  0.5845470750000001  0.08253651499999999  0.5373106419305969  1.0000
  Cu  Cu18      1.0  0.9170002550000002  0.249605635  0.5173684479192207  1.0000
  Cu  Cu19      1.0  0.750938075  0.917463485  0.4385066546600896  1.0000
  Cu  Cu20      1.0  0.584271405  0.584130155  0.4777433279890841  1.0000
  Cu  Cu21      1.0  0.9176047350000002  0.750796825  0.45812499309023713  1.0000
  Cu  Cu22      1.0  0.750938075  0.917463485  0.4973616664192316  1.0000
  Cu  Cu23      1.0  0.585156755  0.585914965  0.5372974207410197  1.0000
  Cu  Cu24      1.0  0.916960085  0.752549005  0.5173801365243222  1.0000
