data_image0
_chemical_formula_structural       COCu2Ni2Sb4Cu2Ni2Sb4
_chemical_formula_sum              "C1 O1 Cu4 Ni4 Sb8"
_cell_length_a       7.17596005
_cell_length_b       6.644524325922223
_cell_length_c       36.85566028
_cell_angle_alpha    71.83445091537752
_cell_angle_beta     90.0
_cell_angle_gamma    57.31700778596394

_space_group_name_H-M_alt    "P 1"
_space_group_IT_number       1

loop_
  _space_group_symop_operation_xyz
  'x, y, z'

loop_
  _atom_site_type_symbol
  _atom_site_label
  _atom_site_symmetry_multiplicity
  _atom_site_fract_x
  _atom_site_fract_y
  _atom_site_fract_z
  _atom_site_occupancy
  C   C1        1.0  0.6631407400000001  0.523522335  0.6096009764777987  1.0000
  O   O1        1.0  0.6052212  0.436182865  0.6358674693191978  1.0000
  Cu  Cu1       1.0  0.013831339999999921  0.142237795  0.48990377918395245  1.0000
  Cu  Cu2       1.0  0.5142954  0.146322755  0.5441728478579806  1.0000
  Ni  Ni1       1.0  0.7548006099999999  0.662495635  0.5705698922553847  1.0000
  Ni  Ni2       1.0  0.26153274000000004  0.646755405  0.516242386989022  1.0000
  Sb  Sb1       1.0  0.05919145999999992  0.407321945  0.5345013130432272  1.0000
  Sb  Sb2       1.0  0.54529884  0.410573485  0.4765451813706681  1.0000
  Sb  Sb3       1.0  0.48126455  0.8636296749999999  0.5052624498573471  1.0000
  Sb  Sb4       1.0  0.98238508  0.852198185  0.5592816836634701  1.0000
  Cu  Cu3       1.0  0.015733749999999932  0.136370325  0.379544484950624  1.0000
  Cu  Cu4       1.0  0.5157337499999999  0.136370325  0.4357508102955569  1.0000
  Ni  Ni3       1.0  0.76573375  0.636370325  0.4638539729680233  1.0000
  Ni  Ni4       1.0  0.26573375  0.636370325  0.4076476476230904  1.0000
  Sb  Sb5       1.0  0.04529883999999989  0.410573485  0.42033885602573506  1.0000
  Sb  Sb6       1.0  0.54529884  0.410573485  0.36413253068080226  1.0000
  Sb  Sb7       1.0  0.4861686599999999  0.8621671650000001  0.3949564392204457  1.0000
  Sb  Sb8       1.0  0.98616866  0.8621671650000001  0.45116276456537857  1.0000
