data_image0
_chemical_formula_structural       COAu8Ti4
_chemical_formula_sum              "C1 O1 Au8 Ti4"
_cell_length_a       4.980717136959342
_cell_length_b       4.92452237
_cell_length_c       100.03820341
_cell_angle_alpha    90.0
_cell_angle_beta     94.00737133621779
_cell_angle_gamma    90.0

_space_group_name_H-M_alt    "P 1"
_space_group_IT_number       1

loop_
  _space_group_symop_operation_xyz
  'x, y, z'

loop_
  _atom_site_type_symbol
  _atom_site_label
  _atom_site_symmetry_multiplicity
  _atom_site_fract_x
  _atom_site_fract_y
  _atom_site_fract_z
  _atom_site_occupancy
  C   C1        1.0  0.8003979099999999  0.25000003000000004  0.5406619935261175  1.0000
  O   O1        1.0  0.5808312099999999  0.25000003000000004  0.5461723522837753  1.0000
  Au  Au1       1.0  0.16382514999999997  0.24999997000000002  0.4752753131261269  1.0000
  Au  Au2       1.0  0.37811085999999994  0.74999997  0.4538276477162246  1.0000
  Au  Au3       1.0  0.6478308799999999  0.24999997000000002  0.4611902024453869  1.0000
  Au  Au4       1.0  0.4335451599999999  0.74999997  0.48263786785528917  1.0000
  Au  Au5       1.0  0.7287670099999999  0.25000003000000004  0.5179768153843993  1.0000
  Au  Au6       1.0  0.9495394300000001  0.74999997  0.49672297853602915  1.0000
  Au  Au7       1.0  0.22059455999999997  0.25000001  0.5045537280892941  1.0000
  Au  Au8       1.0  0.050460569999999955  0.75000003  0.5263689387170503  1.0000
  Ti  Ti1       1.0  0.6915422999999998  0.24999997000000002  0.4896804246969958  1.0000
  Ti  Ti2       1.0  0.90582801  0.74999997  0.46823275928709357  1.0000
  Ti  Ti3       1.0  0.19195699999999996  0.25000003000000004  0.5353996645842398  1.0000
  Ti  Ti4       1.0  0.4714521899999999  0.74999954  0.5108189138537179  1.0000
