data_image0
_chemical_formula_structural       COMo4Si8
_chemical_formula_sum              "C1 O1 Mo4 Si8"
_cell_length_a       4.557439715045793
_cell_length_b       4.56463298
_cell_length_c       101.60810153
_cell_angle_alpha    90.0
_cell_angle_beta     89.89560420530294
_cell_angle_gamma    90.0

_space_group_name_H-M_alt    "P 1"
_space_group_IT_number       1

loop_
  _space_group_symop_operation_xyz
  'x, y, z'

loop_
  _atom_site_type_symbol
  _atom_site_label
  _atom_site_symmetry_multiplicity
  _atom_site_fract_x
  _atom_site_fract_y
  _atom_site_fract_z
  _atom_site_occupancy
  C   C1        1.0  0.056316365000000035  0.24999998499999998  0.5389248149046064  1.0000
  O   O1        1.0  0.30210667500000005  0.24999995499999997  0.5434919458364429  1.0000
  Mo  Mo1       1.0  0.940421735  0.7500000450000001  0.4695542190851947  1.0000
  Mo  Mo2       1.0  0.19042173500000004  0.250000045  0.48899662885250766  1.0000
  Mo  Mo3       1.0  0.703193635  0.25000003499999995  0.5277094654965103  1.0000
  Mo  Mo4       1.0  0.4398335950000001  0.7500000450000001  0.5080902697856651  1.0000
  Si  Si1       1.0  0.943683635  0.7500000450000001  0.49539287369818286  1.0000
  Si  Si2       1.0  0.19100995500000004  0.250000045  0.5146697336794164  1.0000
  Si  Si3       1.0  0.693683635  0.250000045  0.47595046393086987  1.0000
  Si  Si4       1.0  0.443683635  0.7500000450000001  0.45650805416355694  1.0000
  Si  Si5       1.0  0.43715982500000006  0.7500000450000001  0.48260038711761793  1.0000
  Si  Si6       1.0  0.6920636450000001  0.250000045  0.5019618884632289  1.0000
  Si  Si7       1.0  0.18715982500000006  0.250000045  0.463157977350305  1.0000
  Si  Si8       1.0  0.920406935  0.7500000250000001  0.5210556351630954  1.0000
