data_image0
_chemical_formula_structural       COAl9Ni15
_chemical_formula_sum              "C1 O1 Al9 Ni15"
_cell_length_a       6.320256590323792
_cell_length_b       6.320256581662602
_cell_length_c       102.14208667
_cell_angle_alpha    89.72981784864317
_cell_angle_beta     89.72981784901341
_cell_angle_gamma    64.09802953377493

_space_group_name_H-M_alt    "P 1"
_space_group_IT_number       1

loop_
  _space_group_symop_operation_xyz
  'x, y, z'

loop_
  _atom_site_type_symbol
  _atom_site_label
  _atom_site_symmetry_multiplicity
  _atom_site_fract_x
  _atom_site_fract_y
  _atom_site_fract_z
  _atom_site_occupancy
  C   C1        1.0  0.385977325  0.3859482849999999  0.5365611126764926  1.0000
  O   O1        1.0  0.383282955  0.383242035  0.5480447855661194  1.0000
  Al  Al1       1.0  0.643141795  0.643127565  0.4909504567039598  1.0000
  Al  Al2       1.0  0.3927123349999999  0.392715655  0.46506688820178727  1.0000
  Al  Al3       1.0  0.902729175  0.902742555  0.517609686589775  1.0000
  Al  Al4       1.0  0.6217736850000001  0.621778035  0.5175609646628851  1.0000
  Al  Al5       1.0  0.377446365  0.37744901499999994  0.4936445939143649  1.0000
  Al  Al6       1.0  0.12800352499999998  0.12800684499999995  0.4666097460731656  1.0000
  Al  Al7       1.0  0.657421145  0.657424465  0.46352403033040906  1.0000
  Al  Al8       1.0  0.167178865  0.16717812499999996  0.5148835684362075  1.0000
  Al  Al9       1.0  0.9069238449999999  0.9069275749999999  0.4894678506399936  1.0000
  Ni  Ni1       1.0  0.142749685  0.14274271499999996  0.4909107944184518  1.0000
  Ni  Ni2       1.0  0.8927123349999998  0.8927156549999999  0.4650668882017874  1.0000
  Ni  Ni3       1.0  0.392593515  0.39259864499999997  0.5191720105749388  1.0000
  Ni  Ni4       1.0  0.7677123350000001  0.26771565499999994  0.4519552144338806  1.0000
  Ni  Ni5       1.0  0.262507095  0.776551275  0.5046522658822711  1.0000
  Ni  Ni6       1.0  0.017712335000000006  0.5177156549999999  0.47817856196969405  1.0000
  Ni  Ni7       1.0  0.2677123349999999  0.7677156549999999  0.4519552144338807  1.0000
  Ni  Ni8       1.0  0.7765510550000002  0.26250669499999996  0.5046530116742154  1.0000
  Ni  Ni9       1.0  0.517712335  0.017715654999999976  0.47817856196969394  1.0000
  Ni  Ni10      1.0  0.740750895  0.29467709499999994  0.47817856196969405  1.0000
  Ni  Ni11      1.0  0.4907508949999999  0.04467709499999998  0.4519552144338806  1.0000
  Ni  Ni12      1.0  0.982287665  0.5567789949999999  0.5049398615074242  1.0000
  Ni  Ni13      1.0  0.294673775  0.7407542149999998  0.47817856196969405  1.0000
  Ni  Ni14      1.0  0.04467377499999999  0.49075421499999994  0.4519552144338807  1.0000
  Ni  Ni15      1.0  0.5567725050000002  0.982284345  0.5049387601269159  1.0000
