data_image0
_chemical_formula_structural       COSi4Ru4Si4Ru4
_chemical_formula_sum              "C1 O1 Si8 Ru8"
_cell_length_a       4.75565445
_cell_length_b       4.75565445
_cell_length_c       103.28958115
_cell_angle_alpha    90.0
_cell_angle_beta     90.0
_cell_angle_gamma    90.0

_space_group_name_H-M_alt    "P 1"
_space_group_IT_number       1

loop_
  _space_group_symop_operation_xyz
  'x, y, z'

loop_
  _atom_site_type_symbol
  _atom_site_label
  _atom_site_symmetry_multiplicity
  _atom_site_fract_x
  _atom_site_fract_y
  _atom_site_fract_z
  _atom_site_occupancy
  C   C1        1.0  0.6094156199999999  0.34351092999999994  0.5433605482073395  1.0000
  O   O1        1.0  0.5763830199999999  0.3295089399999999  0.5545573858245889  1.0000
  Si  Si1       1.0  0.3374646999999999  0.6625352999999999  0.4469817535172333  1.0000
  Si  Si2       1.0  0.6625352999999999  0.1625352999999999  0.4550358440422794  1.0000
  Si  Si3       1.0  0.1625352999999999  0.3374646999999999  0.47000273153814626  1.0000
  Si  Si4       1.0  0.8374646999999998  0.8374646999999998  0.47805682206319233  1.0000
  Ru  Ru1       1.0  0.6291062899999998  0.37089370999999993  0.4795959581820778  1.0000
  Ru  Ru2       1.0  0.37089370999999993  0.87089371  0.4684635921963239  1.0000
  Ru  Ru3       1.0  0.87089371  0.6291062899999998  0.45657498016116477  1.0000
  Ru  Ru4       1.0  0.12910628999999993  0.12910628999999993  0.445442614175411  1.0000
  Si  Si5       1.0  0.3374646999999999  0.6625352999999999  0.49302370955905916  1.0000
  Si  Si6       1.0  0.6600774899999998  0.1558447199999999  0.5013967225907552  1.0000
  Si  Si7       1.0  0.16980931999999993  0.35007160999999987  0.5174896204736532  1.0000
  Si  Si8       1.0  0.8328843099999997  0.8582576199999999  0.5234020887082028  1.0000
  Ru  Ru5       1.0  0.6694125899999998  0.3658066399999999  0.525215709478556  1.0000
  Ru  Ru6       1.0  0.3486745699999999  0.86798308  0.5145212826165223  1.0000
  Ru  Ru7       1.0  0.8705820699999999  0.6292431599999999  0.5019599856192297  1.0000
  Ru  Ru8       1.0  0.12910628999999993  0.12910628999999993  0.49148457344017393  1.0000
