data_image0
_chemical_formula_structural       COIn10Ag2Se16
_chemical_formula_sum              "C1 O1 In10 Ag2 Se16"
_cell_length_a       12.21875852
_cell_length_b       8.46239462
_cell_length_c       103.84957847999999
_cell_angle_alpha    90.0
_cell_angle_beta     90.0
_cell_angle_gamma    90.0

_space_group_name_H-M_alt    "P 1"
_space_group_IT_number       1

loop_
  _space_group_symop_operation_xyz
  'x, y, z'

loop_
  _atom_site_type_symbol
  _atom_site_label
  _atom_site_symmetry_multiplicity
  _atom_site_fract_x
  _atom_site_fract_y
  _atom_site_fract_z
  _atom_site_occupancy
  C   C1        1.0  0.53284361  0.0007640549999999688  0.5392872465515582  1.0000
  O   O1        1.0  0.4805285399999999  0.999248205  0.5484791442308858  1.0000
  In  In1       1.0  0.7591835699999999  0.250979315  0.4534029097501346  1.0000
  In  In2       1.0  0.7650171399999999  0.753235095  0.4964877049146733  1.0000
  In  In3       1.0  0.2680536499999999  0.250979315  0.4534029097501346  1.0000
  In  In4       1.0  0.2679913699999999  0.7490262649999999  0.49475470050586956  1.0000
  In  In5       1.0  0.2680536499999999  0.7509793149999999  0.4534029097501346  1.0000
  In  In6       1.0  0.2677577499999999  0.25260614499999995  0.4947280151304379  1.0000
  In  In7       1.0  0.7591835699999999  0.7509793149999999  0.4534029097501346  1.0000
  In  In8       1.0  0.76543017  0.24864153499999994  0.496545945330969  1.0000
  In  In9       1.0  0.98638139  0.5014639949999998  0.5099847551576389  1.0000
  In  In10      1.0  0.01361860999999995  0.000979314999999969  0.4737746694237421  1.0000
  Ag  Ag1       1.0  0.51361861  0.5009793149999999  0.4737746694237421  1.0000
  Ag  Ag2       1.0  0.47079414999999997  0.0028904149999999687  0.5122275033667364  1.0000
  Se  Se1       1.0  0.90816624  0.23046328499999996  0.5153709017386712  1.0000
  Se  Se2       1.0  0.90089105  0.7278829749999999  0.4737746694237421  1.0000
  Se  Se3       1.0  0.63152091  0.5009793149999999  0.45154231293614316  1.0000
  Se  Se4       1.0  0.6378714799999999  0.0012077449999999689  0.49437843573443885  1.0000
  Se  Se5       1.0  0.3794356499999999  0.273682125  0.5154310619895984  1.0000
  Se  Se6       1.0  0.3957163099999999  0.7738123549999999  0.4737746694237421  1.0000
  Se  Se7       1.0  0.63882987  0.5007878749999999  0.49547785234154096  1.0000
  Se  Se8       1.0  0.63152091  0.000979314999999969  0.45526350656412606  1.0000
  Se  Se9       1.0  0.13183127999999994  0.5010363649999999  0.49095212414260175  1.0000
  Se  Se10      1.0  0.12634616999999995  0.000979314999999969  0.4515208557691141  1.0000
  Se  Se11      1.0  0.38175619  0.7297279649999998  0.515289945995469  1.0000
  Se  Se12      1.0  0.3957163099999999  0.22814627499999998  0.4737746694237421  1.0000
  Se  Se13      1.0  0.90743431  0.7716393349999999  0.5153275701909749  1.0000
  Se  Se14      1.0  0.90089105  0.274075655  0.4737746694237421  1.0000
  Se  Se15      1.0  0.12634616999999995  0.5009793149999999  0.45528496047167355  1.0000
  Se  Se16      1.0  0.12906623999999994  0.0007517949999999689  0.49537305675029836  1.0000
