data_image0
_chemical_formula_structural       COAs48Rh16
_chemical_formula_sum              "C1 O1 As48 Rh16"
_cell_length_a       12.19339805
_cell_length_b       7.46690086
_cell_length_c       112.23916987
_cell_angle_alpha    90.0
_cell_angle_beta     90.0
_cell_angle_gamma    90.0

_space_group_name_H-M_alt    "P 1"
_space_group_IT_number       1

loop_
  _space_group_symop_operation_xyz
  'x, y, z'

loop_
  _atom_site_type_symbol
  _atom_site_label
  _atom_site_symmetry_multiplicity
  _atom_site_fract_x
  _atom_site_fract_y
  _atom_site_fract_z
  _atom_site_occupancy
  C   C1        1.0  0.32996142  0.40278705499999995  0.5559186768904483  1.0000
  O   O1        1.0  0.32649755999999996  0.392603355  0.5662696531983307  1.0000
  As  As1       1.0  0.9861677799999999  0.5984970350000001  0.47601830813966656  1.0000
  As  As2       1.0  0.48616778  0.265163695  0.5073792909924415  1.0000
  As  As3       1.0  0.9741593399999999  0.9369351650000001  0.5387469236282866  1.0000
  As  As4       1.0  0.48616778  0.931830365  0.44465732528689156  1.0000
  As  As5       1.0  0.8345936399999999  0.39639817499999996  0.4665112784940178  1.0000
  As  As6       1.0  0.33459363999999997  0.06306483499999996  0.49787226511011085  1.0000
  As  As7       1.0  0.83092878  0.727434605  0.5293077729510789  1.0000
  As  As8       1.0  0.33459363999999997  0.729731505  0.43515029564124286  1.0000
  As  As9       1.0  0.8396192899999999  0.793895025  0.4852101184985387  1.0000
  As  As10      1.0  0.33961929  0.46056169499999994  0.5165711013513137  1.0000
  As  As11      1.0  0.8314269299999999  0.12143506499999995  0.5496733903022482  1.0000
  As  As12      1.0  0.33961929  0.12722835499999996  0.45384913564576373  1.0000
  As  As13      1.0  0.16038070999999998  0.793895025  0.5179910501908871  1.0000
  As  As14      1.0  0.65829754  0.4819334149999999  0.5487671155657603  1.0000
  As  As15      1.0  0.16038070999999998  0.46056169499999994  0.4552690844853372  1.0000
  As  As16      1.0  0.66038071  0.12722835499999996  0.48663006733811215  1.0000
  As  As17      1.0  0.18804514  0.25846283499999995  0.507064071705665  1.0000
  As  As18      1.0  0.6858458599999999  0.930857755  0.5386564308814256  1.0000
  As  As19      1.0  0.18804514  0.9251294949999999  0.44434210600011503  1.0000
  As  As20      1.0  0.6880451399999998  0.5917961649999999  0.47570308885289  1.0000
  As  As21      1.0  0.16038070999999998  0.25846283499999995  0.47428314001331656  1.0000
  As  As22      1.0  0.66038071  0.9251294949999999  0.5056441228660915  1.0000
  As  As23      1.0  0.16020937  0.592731425  0.5364670641311295  1.0000
  As  As24      1.0  0.66038071  0.5917961649999999  0.44292215716054156  1.0000
  As  As25      1.0  0.9128935399999999  0.25846283499999995  0.49327635804901576  1.0000
  As  As26      1.0  0.41289353999999995  0.9251294949999999  0.5246373409017907  1.0000
  As  As27      1.0  0.94532556  0.554532165  0.5554188630878986  1.0000
  As  As28      1.0  0.41289353999999995  0.5917961649999999  0.4619153751962407  1.0000
  As  As29      1.0  0.5138322199999998  0.729731505  0.49645231250721933  1.0000
  As  As30      1.0  0.013832219999999989  0.39639817499999996  0.5278132991233123  1.0000
  As  As31      1.0  0.5138322199999998  0.39639817499999996  0.4337303468016694  1.0000
  As  As32      1.0  0.013832219999999989  0.06306483499999996  0.46509132965444433  1.0000
  As  As33      1.0  0.26131939  0.5984970350000001  0.48980602179631577  1.0000
  As  As34      1.0  0.7613193899999999  0.265163695  0.5211670084124088  1.0000
  As  As35      1.0  0.26320394999999996  0.9298747350000001  0.5535659670816495  1.0000
  As  As36      1.0  0.7613193899999999  0.931830365  0.45844503894354083  1.0000
  As  As37      1.0  0.5138322199999998  0.931830365  0.47743825697924  1.0000
  As  As38      1.0  0.013832219999999989  0.5984970350000001  0.5087992398320149  1.0000
  As  As39      1.0  0.5286434699999999  0.3226038049999999  0.5371291258666169  1.0000
  As  As40      1.0  0.013832219999999989  0.265163695  0.446077274126465  1.0000
  As  As41      1.0  0.7613193899999999  0.46056169499999994  0.5027833876946645  1.0000
  As  As42      1.0  0.26289202  0.11606536499999995  0.5348715075793886  1.0000
  As  As43      1.0  0.7613193899999999  0.12722835499999996  0.4400614182257964  1.0000
  As  As44      1.0  0.26131939  0.793895025  0.47142240107857136  1.0000
  As  As45      1.0  0.9128935399999999  0.06306483499999996  0.5116599787667601  1.0000
  As  As46      1.0  0.41242925999999996  0.743665905  0.5435092032189492  1.0000
  As  As47      1.0  0.9128935399999999  0.729731505  0.44893800929789207  1.0000
  As  As48      1.0  0.41289353999999995  0.39639817499999996  0.4802989959139851  1.0000
  Rh  Rh1       1.0  0.08710645999999998  0.4284799349999999  0.49154118992266577  1.0000
  Rh  Rh2       1.0  0.58710646  0.09514659499999997  0.5229021765387588  1.0000
  Rh  Rh3       1.0  0.08388610999999999  0.761599295  0.5520199019261479  1.0000
  Rh  Rh4       1.0  0.58710646  0.761813265  0.46018020706989077  1.0000
  Rh  Rh5       1.0  0.33710646  0.761813265  0.5072216832307123  1.0000
  Rh  Rh6       1.0  0.84128143  0.42708715499999994  0.5390199824624687  1.0000
  Rh  Rh7       1.0  0.33710646  0.4284799349999999  0.4444997137618443  1.0000
  Rh  Rh8       1.0  0.83710646  0.09514659499999997  0.4758607003779373  1.0000
  Rh  Rh9       1.0  0.83710646  0.761813265  0.5072216832307123  1.0000
  Rh  Rh10      1.0  0.3374856499999999  0.42977982499999995  0.5391212044292125  1.0000
  Rh  Rh11      1.0  0.83710646  0.4284799349999999  0.4444997137618443  1.0000
  Rh  Rh12      1.0  0.33710646  0.09514659499999997  0.4758607003779373  1.0000
  Rh  Rh13      1.0  0.08710645999999998  0.09514659499999997  0.5229021765387588  1.0000
  Rh  Rh14      1.0  0.5860235899999999  0.769033715  0.5532677768092431  1.0000
  Rh  Rh15      1.0  0.08710645999999998  0.761813265  0.46018020706989077  1.0000
  Rh  Rh16      1.0  0.58710646  0.4284799349999999  0.49154118992266577  1.0000
