data_image0
_chemical_formula_structural       COTi4Ga2Ti4Ga2
_chemical_formula_sum              "C1 O1 Ti8 Ga4"
_cell_length_a       5.49851234
_cell_length_b       4.558386895082538
_cell_length_c       106.46709514
_cell_angle_alpha    59.999999964314505
_cell_angle_beta     90.0
_cell_angle_gamma    90.0

_space_group_name_H-M_alt    "P 1"
_space_group_IT_number       1

loop_
  _space_group_symop_operation_xyz
  'x, y, z'

loop_
  _atom_site_type_symbol
  _atom_site_label
  _atom_site_symmetry_multiplicity
  _atom_site_fract_x
  _atom_site_fract_y
  _atom_site_fract_z
  _atom_site_occupancy
  C   C1        1.0  0.8747520650000001  0.14336995  0.5373817532912957  1.0000
  O   O1        1.0  0.8745406150000001  0.2894731  0.5445631686561068  1.0000
  Ti  Ti1       1.0  0.37478340500000007  0.50715188  0.5127515436391044  1.0000
  Ti  Ti2       1.0  0.875118765  0.83319623  0.5283191708707023  1.0000
  Ti  Ti3       1.0  0.12557646500000003  0.16028439  0.49899868598730246  1.0000
  Ti  Ti4       1.0  0.624345705  0.16034177  0.4989900716126774  1.0000
  Ga  Ga1       1.0  0.8747754750000001  0.5113731100000001  0.5117649631184343  1.0000
  Ga  Ga2       1.0  0.375239215  0.85663005  0.5261677522156013  1.0000
  Ti  Ti5       1.0  0.37488123500000003  0.50235259  0.4697084901356356  1.0000
  Ti  Ti6       1.0  0.8748812350000001  0.83568593  0.48398015235257646  1.0000
  Ti  Ti7       1.0  0.12488123500000003  0.16901925999999998  0.4554368313438934  1.0000
  Ti  Ti8       1.0  0.624881235  0.16901925999999998  0.4554368313438934  1.0000
  Ga  Ga3       1.0  0.8748812350000001  0.50235259  0.4697084901356356  1.0000
  Ga  Ga4       1.0  0.37488123500000003  0.83568593  0.48398015235257646  1.0000
