data_image0
_chemical_formula_structural       COAl6Ni10Al6Ni10Al6Ni10Al6Ni10
_chemical_formula_sum              "C1 O1 Al24 Ni40"
_cell_length_a       7.5970075
_cell_length_b       7.55485884
_cell_length_c       103.53809705
_cell_angle_alpha    90.0
_cell_angle_beta     90.0
_cell_angle_gamma    90.0

_space_group_name_H-M_alt    "P 1"
_space_group_IT_number       1

loop_
  _space_group_symop_operation_xyz
  'x, y, z'

loop_
  _atom_site_type_symbol
  _atom_site_label
  _atom_site_symmetry_multiplicity
  _atom_site_fract_x
  _atom_site_fract_y
  _atom_site_fract_z
  _atom_site_occupancy
  C   C1        1.0  0.12521363000000002  0.11029161500000001  0.5588983181191816  1.0000
  O   O1        1.0  0.12550435000000001  0.110291715  0.5701926466938785  1.0000
  Al  Al1       1.0  0.37630062000000003  0.11029120500000002  0.5270832399350935  1.0000
  Al  Al2       1.0  0.12482228000000004  0.8317084049999999  0.5270780993190753  1.0000
  Al  Al3       1.0  0.12482365000000004  0.38887475499999996  0.5270780215781904  1.0000
  Al  Al4       1.0  0.37477864000000005  0.610291455  0.4945914241082033  1.0000
  Al  Al5       1.0  0.12477864000000002  0.33087383499999995  0.4945914241082033  1.0000
  Al  Al6       1.0  0.12477864000000002  0.8897090750000001  0.4945914241082033  1.0000
  Ni  Ni1       1.0  0.37477864000000005  0.11029145500000001  0.4945914241082033  1.0000
  Ni  Ni2       1.0  0.37477864000000005  0.8602914549999999  0.5107874418087237  1.0000
  Ni  Ni3       1.0  0.3745226300000001  0.8616762849999999  0.5422509400797725  1.0000
  Ni  Ni4       1.0  0.12486500000000003  0.11029165500000002  0.5418257492662842  1.0000
  Ni  Ni5       1.0  0.12477864000000002  0.11029145500000001  0.5125341142944505  1.0000
  Ni  Ni6       1.0  0.3756819900000001  0.6102918749999999  0.5270625705773041  1.0000
  Ni  Ni7       1.0  0.37452258000000005  0.35890645499999996  0.5422508785349052  1.0000
  Ni  Ni8       1.0  0.37477864000000005  0.360291455  0.5107874418087237  1.0000
  Ni  Ni9       1.0  0.12477864000000002  0.610291455  0.5090407693229969  1.0000
  Ni  Ni10      1.0  0.12487222000000003  0.610291605  0.5434595063558065  1.0000
  Al  Al7       1.0  0.37477864000000005  0.11029145500000001  0.4621993887071625  1.0000
  Al  Al8       1.0  0.12477864000000002  0.830873835  0.4621993887071625  1.0000
  Al  Al9       1.0  0.12477864000000002  0.38970907499999996  0.4621993887071625  1.0000
  Al  Al10      1.0  0.37477864000000005  0.610291455  0.42980735330612163  1.0000
  Al  Al11      1.0  0.12477864000000002  0.33087383499999995  0.42980735330612163  1.0000
  Al  Al12      1.0  0.12477864000000002  0.8897090750000001  0.42980735330612163  1.0000
  Ni  Ni11      1.0  0.37477864000000005  0.11029145500000001  0.42980735330612163  1.0000
  Ni  Ni12      1.0  0.37477864000000005  0.8602914549999999  0.44600337100664206  1.0000
  Ni  Ni13      1.0  0.37477864000000005  0.8602914549999999  0.4783954064076829  1.0000
  Ni  Ni14      1.0  0.12477864000000002  0.11029145500000001  0.4766487339219561  1.0000
  Ni  Ni15      1.0  0.12477864000000002  0.11029145500000001  0.44775004349236885  1.0000
  Ni  Ni16      1.0  0.37477864000000005  0.610291455  0.4621993887071625  1.0000
  Ni  Ni17      1.0  0.37477864000000005  0.360291455  0.4783954064076829  1.0000
  Ni  Ni18      1.0  0.37477864000000005  0.360291455  0.44600337100664206  1.0000
  Ni  Ni19      1.0  0.12477864000000002  0.610291455  0.4442566985209153  1.0000
  Ni  Ni20      1.0  0.12477864000000002  0.610291455  0.4801420788934097  1.0000
  Al  Al13      1.0  0.87335546  0.11029092500000001  0.5270844513972175  1.0000
  Al  Al14      1.0  0.62481074  0.8344826849999999  0.5272230795911234  1.0000
  Al  Al15      1.0  0.6248095900000001  0.38610051500000003  0.527223011567849  1.0000
  Al  Al16      1.0  0.8747786399999999  0.610291455  0.4945914241082033  1.0000
  Al  Al17      1.0  0.6247786399999999  0.33087383499999995  0.4945914241082033  1.0000
  Al  Al18      1.0  0.6247786399999999  0.8897090750000001  0.4945914241082033  1.0000
  Ni  Ni21      1.0  0.8747786399999999  0.11029145500000001  0.4945914241082033  1.0000
  Ni  Ni22      1.0  0.8747786399999999  0.8602914549999999  0.5107874418087237  1.0000
  Ni  Ni23      1.0  0.8752207300000001  0.861667315  0.5422503505447281  1.0000
  Ni  Ni24      1.0  0.6247998200000001  0.11029176500000001  0.5411422546448975  1.0000
  Ni  Ni25      1.0  0.6247786399999999  0.11029145500000001  0.5125341142944505  1.0000
  Ni  Ni26      1.0  0.8739380800000001  0.610292055  0.5270602415899588  1.0000
  Ni  Ni27      1.0  0.87522136  0.358916435  0.5422499974715422  1.0000
  Ni  Ni28      1.0  0.8747786399999999  0.360291455  0.5107874418087237  1.0000
  Ni  Ni29      1.0  0.6247786399999999  0.610291455  0.5090407693229969  1.0000
  Ni  Ni30      1.0  0.6248613300000001  0.6102916349999999  0.5433878616519066  1.0000
  Al  Al19      1.0  0.8747786399999999  0.11029145500000001  0.4621993887071625  1.0000
  Al  Al20      1.0  0.6247786399999999  0.830873835  0.4621993887071625  1.0000
  Al  Al21      1.0  0.6247786399999999  0.38970907499999996  0.4621993887071625  1.0000
  Al  Al22      1.0  0.8747786399999999  0.610291455  0.42980735330612163  1.0000
  Al  Al23      1.0  0.6247786399999999  0.33087383499999995  0.42980735330612163  1.0000
  Al  Al24      1.0  0.6247786399999999  0.8897090750000001  0.42980735330612163  1.0000
  Ni  Ni31      1.0  0.8747786399999999  0.11029145500000001  0.42980735330612163  1.0000
  Ni  Ni32      1.0  0.8747786399999999  0.8602914549999999  0.44600337100664206  1.0000
  Ni  Ni33      1.0  0.8747786399999999  0.8602914549999999  0.4783954064076829  1.0000
  Ni  Ni34      1.0  0.6247786399999999  0.11029145500000001  0.4766487339219561  1.0000
  Ni  Ni35      1.0  0.6247786399999999  0.11029145500000001  0.44775004349236885  1.0000
  Ni  Ni36      1.0  0.8747786399999999  0.610291455  0.4621993887071625  1.0000
  Ni  Ni37      1.0  0.8747786399999999  0.360291455  0.4783954064076829  1.0000
  Ni  Ni38      1.0  0.8747786399999999  0.360291455  0.44600337100664206  1.0000
  Ni  Ni39      1.0  0.6247786399999999  0.610291455  0.4442566985209153  1.0000
  Ni  Ni40      1.0  0.6247786399999999  0.610291455  0.4801420788934097  1.0000
