data_image0
_chemical_formula_structural       CONi8Mo2Ni8Mo2
_chemical_formula_sum              "C1 O1 Ni16 Mo4"
_cell_length_a       5.77123759
_cell_length_b       5.77123759
_cell_length_c       98.70149144999999
_cell_angle_alpha    90.0
_cell_angle_beta     90.0
_cell_angle_gamma    90.0

_space_group_name_H-M_alt    "P 1"
_space_group_IT_number       1

loop_
  _space_group_symop_operation_xyz
  'x, y, z'

loop_
  _atom_site_type_symbol
  _atom_site_label
  _atom_site_symmetry_multiplicity
  _atom_site_fract_x
  _atom_site_fract_y
  _atom_site_fract_z
  _atom_site_occupancy
  C   C1        1.0  0.14748641499999998  0.8160110249999999  0.5298572363881981  1.0000
  O   O1        1.0  0.17147114499999996  0.763556235  0.5413847734231082  1.0000
  Ni  Ni1       1.0  0.3485114449999999  0.9023908249999999  0.4586152265768918  1.0000
  Ni  Ni2       1.0  0.7463916249999998  0.10110534500000001  0.4586152265768918  1.0000
  Ni  Ni3       1.0  0.646808795  0.802807995  0.47678965524328865  1.0000
  Ni  Ni4       1.0  0.448094275  0.20068817500000002  0.47678965524328865  1.0000
  Ni  Ni5       1.0  0.8485114450000001  0.402390825  0.47678965524328865  1.0000
  Ni  Ni6       1.0  0.246391625  0.601105345  0.47678965524328865  1.0000
  Ni  Ni7       1.0  0.146808795  0.302807995  0.4586152265768918  1.0000
  Ni  Ni8       1.0  0.948094275  0.7006881749999999  0.4586152265768918  1.0000
  Mo  Mo1       1.0  0.04745153499999997  0.001748084999999998  0.47678965524328865  1.0000
  Mo  Mo2       1.0  0.547451535  0.501748085  0.4586152265768918  1.0000
  Ni  Ni9       1.0  0.347213795  0.904538625  0.4951145100208715  1.0000
  Ni  Ni10      1.0  0.7452432449999999  0.09706923499999999  0.49497144382631814  1.0000
  Ni  Ni11      1.0  0.6481408949999999  0.802669375  0.5124851520432053  1.0000
  Ni  Ni12      1.0  0.448589495  0.19887279500000002  0.5125197241683916  1.0000
  Ni  Ni13      1.0  0.8473551249999999  0.393757495  0.5126486288481281  1.0000
  Ni  Ni14      1.0  0.238903695  0.6015298450000001  0.5136957143878166  1.0000
  Ni  Ni15      1.0  0.14332834499999997  0.30875691499999997  0.49507875437689036  1.0000
  Ni  Ni16      1.0  0.9525484650000001  0.7014224749999999  0.4951816071035992  1.0000
  Mo  Mo3       1.0  0.05295031499999996  0.998251915  0.5124000230193319  1.0000
  Mo  Mo4       1.0  0.5474148449999999  0.499328465  0.49554317936516856  1.0000
