data_image0
_chemical_formula_structural       COPd12Zn4
_chemical_formula_sum              "C1 O1 Pd12 Zn4"
_cell_length_a       4.8062271
_cell_length_b       4.806227098278198
_cell_length_c       103.80634325
_cell_angle_alpha    90.0
_cell_angle_beta     90.0
_cell_angle_gamma    108.23070912987188

_space_group_name_H-M_alt    "P 1"
_space_group_IT_number       1

loop_
  _space_group_symop_operation_xyz
  'x, y, z'

loop_
  _atom_site_type_symbol
  _atom_site_label
  _atom_site_symmetry_multiplicity
  _atom_site_fract_x
  _atom_site_fract_y
  _atom_site_fract_z
  _atom_site_occupancy
  C   C1        1.0  0.76570697  0.79636455  0.5514262958648294  1.0000
  O   O1        1.0  0.75791785  0.85195997  0.5623066357030485  1.0000
  Pd  Pd1       1.0  0.72127507  0.14804003  0.43769336429695144  1.0000
  Pd  Pd2       1.0  0.22127507  0.6480400300000001  0.46483231428732713  1.0000
  Pd  Pd3       1.0  0.22127507  0.6480400300000001  0.43769336429695144  1.0000
  Pd  Pd4       1.0  0.72127507  0.14804003  0.46483231428732713  1.0000
  Pd  Pd5       1.0  0.22127506999999996  0.14804003  0.45126283766380215  1.0000
  Pd  Pd6       1.0  0.72127507  0.6480400300000001  0.47840179091085194  1.0000
  Pd  Pd7       1.0  0.72127507  0.14804003  0.4919712642777028  1.0000
  Pd  Pd8       1.0  0.26928151999999994  0.68609549  0.5194014749188156  1.0000
  Pd  Pd9       1.0  0.22127507  0.6480400300000001  0.4919712642777028  1.0000
  Pd  Pd10      1.0  0.74613828  0.20433160999999997  0.519414674219061  1.0000
  Pd  Pd11      1.0  0.22802685999999994  0.15985426  0.505482179387038  1.0000
  Pd  Pd12      1.0  0.77872493  0.7111112400000001  0.5336991015408463  1.0000
  Zn  Zn1       1.0  0.72127507  0.6480400300000001  0.45126283766380215  1.0000
  Zn  Zn2       1.0  0.22127506999999996  0.14804003  0.47840179091085194  1.0000
  Zn  Zn3       1.0  0.73767804  0.66777533  0.5052077557415483  1.0000
  Zn  Zn4       1.0  0.25696694000000003  0.19817463000000002  0.5308222858821539  1.0000
