data_image0
_chemical_formula_structural       COPb8Pt4
_chemical_formula_sum              "C1 O1 Pb8 Pt4"
_cell_length_a       5.855725851469197
_cell_length_b       5.855725848764639
_cell_length_c       106.40695832
_cell_angle_alpha    87.46863344167264
_cell_angle_beta     87.46863344284255
_cell_angle_gamma    75.41049913263662

_space_group_name_H-M_alt    "P 1"
_space_group_IT_number       1

loop_
  _space_group_symop_operation_xyz
  'x, y, z'

loop_
  _atom_site_type_symbol
  _atom_site_label
  _atom_site_symmetry_multiplicity
  _atom_site_fract_x
  _atom_site_fract_y
  _atom_site_fract_z
  _atom_site_occupancy
  C   C1        1.0  0.379395455  0.22301784000000002  0.5375458388090708  1.0000
  O   O1        1.0  0.449693415  0.20715816  0.5477890878566063  1.0000
  Pb  Pb1       1.0  0.36500455499999995  0.05687371000000002  0.4735951799669042  1.0000
  Pb  Pb2       1.0  0.7573835449999999  0.40329479000000007  0.5163712702480618  1.0000
  Pb  Pb3       1.0  0.8556645450000001  0.19121372000000003  0.45221091214339365  1.0000
  Pb  Pb4       1.0  0.23066454499999994  0.56621372  0.4949794477904147  1.0000
  Pb  Pb5       1.0  0.753654565  0.4455237200000001  0.48121482227777745  1.0000
  Pb  Pb6       1.0  0.10890568500000002  0.7986885499999999  0.5236256418926468  1.0000
  Pb  Pb7       1.0  0.6402802749999998  0.94312629  0.5023942938237128  1.0000
  Pb  Pb8       1.0  0.244314555  0.57986373  0.45983055445426685  1.0000
  Pt  Pt1       1.0  0.7109095550000001  0.7246187199999999  0.45602073329883036  1.0000
  Pt  Pt2       1.0  0.10159044500000002  0.09147283000000002  0.4996271319310393  1.0000
  Pt  Pt3       1.0  0.898409555  0.91211872  0.47740500112234086  1.0000
  Pt  Pt4       1.0  0.278393725  0.21686395000000003  0.521243058093994  1.0000
