data_image0
_chemical_formula_structural       COCo6Ga12Ru6
_chemical_formula_sum              "C1 O1 Co6 Ga12 Ru6"
_cell_length_a       5.95851591
_cell_length_b       7.297661802159569
_cell_length_c       102.08759018
_cell_angle_alpha    94.34775312384154
_cell_angle_beta     90.0
_cell_angle_gamma    114.09484259412405

_space_group_name_H-M_alt    "P 1"
_space_group_IT_number       1

loop_
  _space_group_symop_operation_xyz
  'x, y, z'

loop_
  _atom_site_type_symbol
  _atom_site_label
  _atom_site_symmetry_multiplicity
  _atom_site_fract_x
  _atom_site_fract_y
  _atom_site_fract_z
  _atom_site_occupancy
  C   C1        1.0  0.6402978899999999  0.13532331499999997  0.5375422194692362  1.0000
  O   O1        1.0  0.65674814  0.08661590499999999  0.5480948100007791  1.0000
  Co  Co1       1.0  0.06718125000000001  0.10476527499999998  0.4584534036846064  1.0000
  Co  Co2       1.0  0.8984176100000002  0.767721015  0.5098844148910349  1.0000
  Co  Co3       1.0  0.48384791000000005  0.938098615  0.4846462615692913  1.0000
  Co  Co4       1.0  0.7755145800000001  0.521431945  0.4715498341985203  1.0000
  Co  Co5       1.0  0.6308603199999999  0.20965805499999995  0.5217781751419233  1.0000
  Co  Co6       1.0  0.19338404000000003  0.355780745  0.4972330062889541  1.0000
  Ga  Ga1       1.0  0.46301457999999995  0.39643194499999995  0.4519051899992209  1.0000
  Ga  Ga2       1.0  0.29002268000000003  0.06190138499999998  0.5047187629761084  1.0000
  Ga  Ga3       1.0  0.87968125  0.22976527499999996  0.4780980478839058  1.0000
  Ga  Ga4       1.0  0.6713479099999999  0.813098615  0.4650016173699918  1.0000
  Ga  Ga5       1.0  0.5106221000000001  0.493417545  0.5179512978713213  1.0000
  Ga  Ga6       1.0  0.08801457999999995  0.6464319449999999  0.4911944783978198  1.0000
  Ga  Ga7       1.0  0.016152090000000032  0.49935211499999993  0.5177783024197877  1.0000
  Ga  Ga8       1.0  0.5880145799999998  0.6464319449999999  0.4911944783978198  1.0000
  Ga  Ga9       1.0  0.17134791000000002  0.813098615  0.4650016173699918  1.0000
  Ga  Ga10      1.0  0.37968125  0.22976527499999996  0.4780980478839058  1.0000
  Ga  Ga11      1.0  0.9630145800000001  0.39643194499999995  0.4519051899992209  1.0000
  Ga  Ga12      1.0  0.8043218299999999  0.06300058499999998  0.5043588856669496  1.0000
  Ru  Ru1       1.0  0.56718125  0.10476527499999998  0.4584534036846064  1.0000
  Ru  Ru2       1.0  0.40469978000000006  0.774199725  0.510608821361099  1.0000
  Ru  Ru3       1.0  0.9838479099999999  0.938098615  0.4846462615692913  1.0000
  Ru  Ru4       1.0  0.27551458000000006  0.521431945  0.4715498341985203  1.0000
  Ru  Ru5       1.0  0.11491374000000001  0.20595051499999997  0.5228441815441832  1.0000
  Ru  Ru6       1.0  0.68919311  0.35132286499999993  0.4976103689030219  1.0000
