data_image0
_chemical_formula_structural       COCr4Co4Ge4Cr4Co4Ge4
_chemical_formula_sum              "C1 O1 Cr8 Co8 Ge8"
_cell_length_a       7.0885665
_cell_length_b       6.534621745290633
_cell_length_c       102.74068623
_cell_angle_alpha    108.24894630856805
_cell_angle_beta     90.0
_cell_angle_gamma    57.15383040122114

_space_group_name_H-M_alt    "P 1"
_space_group_IT_number       1

loop_
  _space_group_symop_operation_xyz
  'x, y, z'

loop_
  _atom_site_type_symbol
  _atom_site_label
  _atom_site_symmetry_multiplicity
  _atom_site_fract_x
  _atom_site_fract_y
  _atom_site_fract_z
  _atom_site_occupancy
  C   C1        1.0  0.32542081500000003  0.9413022500000001  0.5382756763438052  1.0000
  O   O1        1.0  0.247998975  0.04438959999999998  0.5504663730559418  1.0000
  Cr  Cr1       1.0  0.770833335  0.52784829  0.4545128931054554  1.0000
  Cr  Cr2       1.0  0.270833335  0.52784829  0.4744299577510435  1.0000
  Cr  Cr3       1.0  0.020833335000000026  0.027848289999999977  0.48438849007383755  1.0000
  Cr  Cr4       1.0  0.520833335  0.027848289999999977  0.46447142542824943  1.0000
  Co  Co1       1.0  0.06250000500000001  0.27784829  0.4694506915896465  1.0000
  Co  Co2       1.0  0.562500005  0.27784829  0.4495336269440583  1.0000
  Co  Co3       1.0  0.479166665  0.77784829  0.47940922391244056  1.0000
  Co  Co4       1.0  0.9791666649999998  0.77784829  0.45949215926685233  1.0000
  Ge  Ge1       1.0  0.729166665  0.27784829  0.4694506915896465  1.0000
  Ge  Ge2       1.0  0.22916666500000002  0.27784829  0.4495336269440583  1.0000
  Ge  Ge3       1.0  0.812500005  0.77784829  0.47940922391244056  1.0000
  Ge  Ge4       1.0  0.31250000500000014  0.77784829  0.45949215926685233  1.0000
  Cr  Cr5       1.0  0.763435855  0.55263996  0.4959025387719914  1.0000
  Cr  Cr6       1.0  0.24274054499999997  0.54536453  0.5134460724834784  1.0000
  Cr  Cr7       1.0  0.06932445500000008  0.8982290899999998  0.5227471568426081  1.0000
  Cr  Cr8       1.0  0.5460356249999998  0.9721517100000001  0.5041537452593319  1.0000
  Co  Co5       1.0  0.07852947500000002  0.24146275999999997  0.5088992870571608  1.0000
  Co  Co6       1.0  0.562500005  0.27784829  0.4893677562352346  1.0000
  Co  Co7       1.0  0.46550253499999983  0.7783517900000001  0.5205305182034982  1.0000
  Co  Co8       1.0  0.936079915  0.84678495  0.5012268481613087  1.0000
  Ge  Ge5       1.0  0.700079955  0.30677112  0.5114278651693847  1.0000
  Ge  Ge6       1.0  0.22916666500000002  0.27784829  0.4893677562352346  1.0000
  Ge  Ge7       1.0  0.816750695  0.73280949  0.521563394868906  1.0000
  Ge  Ge8       1.0  0.3177951050000001  0.76178269  0.4985465657510922  1.0000
