data_image0
_chemical_formula_structural       COZn20Cu10Au10
_chemical_formula_sum              "C1 O1 Zn20 Cu10 Au10"
_cell_length_a       10.70143304241471
_cell_length_b       10.26947298443597
_cell_length_c       104.6170502
_cell_angle_alpha    77.72325567328
_cell_angle_beta     83.90140688724354
_cell_angle_gamma    41.02746394742252

_space_group_name_H-M_alt    "P 1"
_space_group_IT_number       1

loop_
  _space_group_symop_operation_xyz
  'x, y, z'

loop_
  _atom_site_type_symbol
  _atom_site_label
  _atom_site_symmetry_multiplicity
  _atom_site_fract_x
  _atom_site_fract_y
  _atom_site_fract_z
  _atom_site_occupancy
  C   C1        1.0  0.9766728400000001  0.9901700299999999  0.5419371677852552  1.0000
  O   O1        1.0  0.9662278999999998  0.91514296  0.5513422157948784  1.0000
  Zn  Zn1       1.0  0.8222432199999999  0.6945190900000001  0.45240097493515424  1.0000
  Zn  Zn2       1.0  0.6154227500000001  0.49308530999999994  0.5189031828396415  1.0000
  Zn  Zn3       1.0  0.4216804699999999  0.2982306599999999  0.500527866994314  1.0000
  Zn  Zn4       1.0  0.022243219999999824  0.8945190900000002  0.4689456252258197  1.0000
  Zn  Zn5       1.0  0.22224322000000002  0.09451908999999993  0.48549027551648516  1.0000
  Zn  Zn6       1.0  0.52270109  0.8942138400000001  0.46892037147161597  1.0000
  Zn  Zn7       1.0  0.3227010899999999  0.6942138400000002  0.45237572118095043  1.0000
  Zn  Zn8       1.0  0.10404069  0.50729038  0.5203602040121392  1.0000
  Zn  Zn9       1.0  0.72270109  0.09421383999999985  0.48546502176228157  1.0000
  Zn  Zn10      1.0  0.9254001499999999  0.28156085000000014  0.5016967663909297  1.0000
  Zn  Zn11      1.0  0.8766322099999998  0.61595055  0.4977460494944414  1.0000
  Zn  Zn12      1.0  0.67729891  0.41193556  0.4817723352317264  1.0000
  Zn  Zn13      1.0  0.47729890999999997  0.21193555999999994  0.4652276849410609  1.0000
  Zn  Zn14      1.0  0.06920932000000009  0.8108444600000001  0.5160435988655429  1.0000
  Zn  Zn15      1.0  0.27729891  0.011935559999999954  0.44868303465039533  1.0000
  Zn  Zn16      1.0  0.17775678000000003  0.41163030999999994  0.48174708478645273  1.0000
  Zn  Zn17      1.0  0.9777567799999999  0.21163031000000002  0.4652024344957873  1.0000
  Zn  Zn18      1.0  0.77775678  0.011630309999999908  0.4486577842051217  1.0000
  Zn  Zn19      1.0  0.37607988000000003  0.61483268  0.49796400209951047  1.0000
  Zn  Zn20      1.0  0.5649353399999997  0.8164488500000001  0.5165091984140228  1.0000
  Cu  Cu1       1.0  0.82559019  0.81468942  0.47332709532834577  1.0000
  Cu  Cu2       1.0  0.6255901899999999  0.6146894200000002  0.4567824450376802  1.0000
  Cu  Cu3       1.0  0.40159269  0.43184142999999997  0.5204311540904459  1.0000
  Cu  Cu4       1.0  0.02559019000000001  0.014689419999999934  0.4898717456190112  1.0000
  Cu  Cu5       1.0  0.22436300999999995  0.19715221999999996  0.5070684966830233  1.0000
  Cu  Cu6       1.0  0.5744098099999998  0.6914599800000001  0.49391026166566215  1.0000
  Cu  Cu7       1.0  0.37440980999999995  0.4914599800000001  0.4773656113749966  1.0000
  Cu  Cu8       1.0  0.17440981  0.29145997999999995  0.4608209610843311  1.0000
  Cu  Cu9       1.0  0.77766623  0.88067589  0.5106701346940988  1.0000
  Cu  Cu10      1.0  0.9664817300000001  0.11137521999999997  0.5253764129319969  1.0000
  Au  Au1       1.0  0.8711701799999999  0.49631943  0.4770976211295885  1.0000
  Au  Au2       1.0  0.6711701799999998  0.2963194299999999  0.460552970838923  1.0000
  Au  Au3       1.0  0.45755851999999997  0.12179475999999992  0.5240908671329716  1.0000
  Au  Au4       1.0  0.07117017999999996  0.6963194299999999  0.4936422714202541  1.0000
  Au  Au5       1.0  0.2790264700000001  0.88055006  0.5108023893195924  1.0000
  Au  Au6       1.0  0.52882982  0.009829969999999836  0.4901397391733496  1.0000
  Au  Au7       1.0  0.32882982  0.80982997  0.473595088882684  1.0000
  Au  Au8       1.0  0.12882982  0.6098299699999999  0.45705043859201844  1.0000
  Au  Au9       1.0  0.72798527  0.19865135999999992  0.507648949193821  1.0000
  Au  Au10      1.0  0.9122357599999998  0.4267010500000001  0.521380132068608  1.0000
