data_image0
_chemical_formula_structural       COAg30Sn10
_chemical_formula_sum              "C1 O1 Ag30 Sn10"
_cell_length_a       11.670400051893996
_cell_length_b       7.921717153725303
_cell_length_c       108.08768663000001
_cell_angle_alpha    79.56316842057508
_cell_angle_beta     73.64997387773758
_cell_angle_gamma    74.60377937608074

_space_group_name_H-M_alt    "P 1"
_space_group_IT_number       1

loop_
  _space_group_symop_operation_xyz
  'x, y, z'

loop_
  _atom_site_type_symbol
  _atom_site_label
  _atom_site_symmetry_multiplicity
  _atom_site_fract_x
  _atom_site_fract_y
  _atom_site_fract_z
  _atom_site_occupancy
  C   C1        1.0  0.09354724999999993  0.196942545  0.5435865958983858  1.0000
  O   O1        1.0  0.08170433999999993  0.09391096500000001  0.5526181059278851  1.0000
  Ag  Ag1       1.0  0.5720891899999999  0.465203575  0.4887658881855461  1.0000
  Ag  Ag2       1.0  0.96597311  0.262276675  0.5077714515466651  1.0000
  Ag  Ag3       1.0  0.17208918999999992  0.665203575  0.47114700493551426  1.0000
  Ag  Ag4       1.0  0.3846121299999999  0.06514149500000001  0.5214289579434097  1.0000
  Ag  Ag5       1.0  0.77208919  0.8652035750000001  0.45352812168548245  1.0000
  Ag  Ag6       1.0  0.43255188999999983  0.034972235000000004  0.4826196605721787  1.0000
  Ag  Ag7       1.0  0.83741256  0.832961935  0.49958821322256863  1.0000
  Ag  Ag8       1.0  0.032551889999999924  0.234972235  0.4650007773221468  1.0000
  Ag  Ag9       1.0  0.23290551999999992  0.638029075  0.516862629686179  1.0000
  Ag  Ag10      1.0  0.6325518899999999  0.434972235  0.4473818940721149  1.0000
  Ag  Ag11      1.0  0.68636199  0.783314865  0.48280930318392873  1.0000
  Ag  Ag12      1.0  0.07942318999999992  0.579293235  0.5010947369775225  1.0000
  Ag  Ag13      1.0  0.2863619899999999  0.983314865  0.4651904199338968  1.0000
  Ag  Ag14      1.0  0.4910167599999999  0.3760092850000001  0.5169906731583104  1.0000
  Ag  Ag15      1.0  0.8863619899999999  0.18331486500000002  0.447571536683865  1.0000
  Ag  Ag16      1.0  0.3182790899999999  0.716860945  0.48857624557379614  1.0000
  Ag  Ag17      1.0  0.7195769299999999  0.510165495  0.5064743810757877  1.0000
  Ag  Ag18      1.0  0.9182790899999999  0.916860945  0.47095736232376423  1.0000
  Ag  Ag19      1.0  0.11840377999999992  0.31860015500000005  0.523674315472347  1.0000
  Ag  Ag20      1.0  0.5182790899999998  0.11686094500000001  0.4533384790737323  1.0000
  Ag  Ag21      1.0  0.5947392599999998  0.08130511500000001  0.4995177235944619  1.0000
  Ag  Ag22      1.0  0.98191906  0.877857405  0.5175964420784362  1.0000
  Ag  Ag23      1.0  0.1865601399999999  0.282720415  0.4827743931286571  1.0000
  Ag  Ag24      1.0  0.3865601399999999  0.6827204150000001  0.4475366266285934  1.0000
  Ag  Ag25      1.0  0.7865601400000001  0.48272041500000007  0.46515550987862525  1.0000
  Ag  Ag26      1.0  0.21123980999999992  0.016685135000000007  0.5070028947166388  1.0000
  Ag  Ag27      1.0  0.6281054199999999  0.818839135  0.522071370616919  1.0000
  Ag  Ag28      1.0  0.81808094  0.217455395  0.48861115562906765  1.0000
  Ag  Ag29      1.0  0.018080939999999938  0.617455395  0.45337338912900405  1.0000
  Ag  Ag30      1.0  0.41808093999999985  0.41745539500000006  0.47099227237903585  1.0000
  Sn  Sn1       1.0  0.53456856  0.733963895  0.46508960468394017  1.0000
  Sn  Sn2       1.0  0.9345685599999999  0.533963895  0.4827084879339721  1.0000
  Sn  Sn3       1.0  0.13456855999999992  0.933963895  0.44747072143390826  1.0000
  Sn  Sn4       1.0  0.3285226099999999  0.33671650500000005  0.5005258937129119  1.0000
  Sn  Sn5       1.0  0.7345280499999998  0.135526485  0.5182353027850825  1.0000
  Sn  Sn6       1.0  0.46662806999999995  0.758694295  0.5073890019717334  1.0000
  Sn  Sn7       1.0  0.8628109199999999  0.569273815  0.5237542382505458  1.0000
  Sn  Sn8       1.0  0.07007251999999996  0.966211915  0.48867706082375284  1.0000
  Sn  Sn9       1.0  0.2700725199999999  0.366211915  0.45343929432368907  1.0000
  Sn  Sn10      1.0  0.6700725199999998  0.166211915  0.47105817757372087  1.0000
