data_image0
_chemical_formula_structural       COMn12Ti6W6
_chemical_formula_sum              "C1 O1 Mn12 Ti6 W6"
_cell_length_a       5.97506442
_cell_length_b       7.317929505587304
_cell_length_c       102.17670663
_cell_angle_alpha    94.347753118958
_cell_angle_beta     90.0
_cell_angle_gamma    114.09484254875649

_space_group_name_H-M_alt    "P 1"
_space_group_IT_number       1

loop_
  _space_group_symop_operation_xyz
  'x, y, z'

loop_
  _atom_site_type_symbol
  _atom_site_label
  _atom_site_symmetry_multiplicity
  _atom_site_fract_x
  _atom_site_fract_y
  _atom_site_fract_z
  _atom_site_occupancy
  C   C1        1.0  0.8767274  0.26347989999999993  0.5401266699249743  1.0000
  O   O1        1.0  0.05143426999999999  0.25477757999999995  0.5464340776918893  1.0000
  Mn  Mn1       1.0  0.51709224  0.47307769000000005  0.5178343428478043  1.0000
  Mn  Mn2       1.0  0.09805621000000006  0.64963904  0.4929299658499983  1.0000
  Mn  Mn3       1.0  0.6813895400000001  0.81630571  0.46668726805599087  1.0000
  Mn  Mn4       1.0  0.47305621000000003  0.39963903999999995  0.45356592230811077  1.0000
  Mn  Mn5       1.0  0.29794815999999996  0.058694289999999955  0.5059855232591878  1.0000
  Mn  Mn6       1.0  0.8897228799999999  0.23297236999999996  0.47980861695299465  1.0000
  Mn  Mn7       1.0  0.9730562099999999  0.39963903999999995  0.45356592230811077  1.0000
  Mn  Mn8       1.0  0.8049070199999999  0.06410727999999997  0.5064659787307958  1.0000
  Mn  Mn9       1.0  0.38972288  0.23297236999999996  0.47980861695299465  1.0000
  Mn  Mn10      1.0  0.006110460000000034  0.48066412999999997  0.5174665882074185  1.0000
  Mn  Mn11      1.0  0.5980562100000001  0.64963904  0.4929299658499983  1.0000
  Mn  Mn12      1.0  0.18138954000000004  0.81630571  0.46668726805599087  1.0000
  Ti  Ti1       1.0  0.70043866  0.35594396  0.49927114796627237  1.0000
  Ti  Ti2       1.0  0.28555621000000003  0.52463904  0.4732479440790545  1.0000
  Ti  Ti3       1.0  0.11693467000000002  0.19637813999999998  0.526298015297116  1.0000
  Ti  Ti4       1.0  0.9938895399999998  0.9413057100000001  0.4863692898269348  1.0000
  Ti  Ti5       1.0  0.57722288  0.10797236999999997  0.4601265951820509  1.0000
  Ti  Ti6       1.0  0.40762447999999996  0.7766396099999999  0.513734423405866  1.0000
  W   W1        1.0  0.20408152000000004  0.35857276  0.49987803129836633  1.0000
  W   W2        1.0  0.7855562100000001  0.52463904  0.4732479440790545  1.0000
  W   W3        1.0  0.6476265  0.21278330999999995  0.5249329112056886  1.0000
  W   W4        1.0  0.49388954  0.9413057100000001  0.4863692898269348  1.0000
  W   W5        1.0  0.07722288000000001  0.10797236999999997  0.4601265951820509  1.0000
  W   W6        1.0  0.9108997799999998  0.7695877499999999  0.5120497777545829  1.0000
