data_image0
_chemical_formula_structural       COAs24Si24
_chemical_formula_sum              "C1 O1 As24 Si24"
_cell_length_a       9.118568962194976
_cell_length_b       19.880251236555893
_cell_length_c       99.30354768000001
_cell_angle_alpha    104.51409184109221
_cell_angle_beta     95.96145588262945
_cell_angle_gamma    96.39415276870761

_space_group_name_H-M_alt    "P 1"
_space_group_IT_number       1

loop_
  _space_group_symop_operation_xyz
  'x, y, z'

loop_
  _atom_site_type_symbol
  _atom_site_label
  _atom_site_symmetry_multiplicity
  _atom_site_fract_x
  _atom_site_fract_y
  _atom_site_fract_z
  _atom_site_occupancy
  C   C1        1.0  0.8055216500000001  0.370556675  0.5405752303905065  1.0000
  O   O1        1.0  0.7936140300000001  0.36054504500000006  0.5513397681628774  1.0000
  As  As1       1.0  0.66011783  0.5241770250000001  0.46237856792204196  1.0000
  As  As2       1.0  0.22261782999999996  0.024177025  0.4808217330736216  1.0000
  As  As3       1.0  0.6953129499999999  0.9697020450000001  0.46830752910965057  1.0000
  As  As4       1.0  0.13281294999999999  0.469702045  0.44986436395807095  1.0000
  As  As5       1.0  0.93879212  0.827919665  0.47482261113487  1.0000
  As  As6       1.0  0.37629212  0.327919665  0.4563794459832903  1.0000
  As  As7       1.0  0.41663866  0.665959415  0.4558634858968225  1.0000
  As  As8       1.0  0.9791386599999999  0.16595941500000003  0.4743066510484022  1.0000
  As  As9       1.0  0.05089919  0.654006865  0.48202586519457  1.0000
  As  As10      1.0  0.48839919000000004  0.15400686500000002  0.46358270004299046  1.0000
  As  As11      1.0  0.30453159  0.8398722050000001  0.4486602318371225  1.0000
  As  As12      1.0  0.8670315900000001  0.33987220500000004  0.4671033969887021  1.0000
  As  As13      1.0  0.83255042  0.5292958150000001  0.5019608404325857  1.0000
  As  As14      1.0  0.45531594999999997  0.13411337499999998  0.5182294649346949  1.0000
  As  As15      1.0  0.8168515700000001  0.9758229750000001  0.5065421492143958  1.0000
  As  As16      1.0  0.25781295  0.469702045  0.4867506942612302  1.0000
  As  As17      1.0  0.08493855  0.8410427550000001  0.51432973881332  1.0000
  As  As18      1.0  0.4674194099999999  0.32984905500000006  0.496628003655366  1.0000
  As  As19      1.0  0.5928451299999999  0.674259125  0.4952699286480771  1.0000
  As  As20      1.0  0.21231198999999998  0.182533865  0.5138157056687472  1.0000
  As  As21      1.0  0.23395139999999998  0.6587905549999999  0.5193867160052812  1.0000
  As  As22      1.0  0.61881078  0.158843815  0.5001403318304586  1.0000
  As  As23      1.0  0.42953158999999996  0.8398722050000001  0.48554656214028175  1.0000
  As  As24      1.0  0.020861339999999975  0.33441402500000006  0.504964042820489  1.0000
  Si  Si1       1.0  0.8703335400000002  0.7018371350000001  0.46872822213311777  1.0000
  Si  Si2       1.0  0.30783354  0.20183713500000003  0.4502850569815381  1.0000
  Si  Si3       1.0  0.48509724  0.792041935  0.46195787489857476  1.0000
  Si  Si4       1.0  0.04759723999999997  0.292041935  0.48040104005015444  1.0000
  Si  Si5       1.0  0.63150408  0.646574505  0.470165148310969  1.0000
  Si  Si6       1.0  0.06900407999999998  0.14657450500000002  0.4517219831593895  1.0000
  Si  Si7       1.0  0.7239267  0.8473045650000002  0.4605209487207235  1.0000
  Si  Si8       1.0  0.2864267  0.347304565  0.47896411387230303  1.0000
  Si  Si9       1.0  0.88867073  0.542848355  0.4786569687771347  1.0000
  Si  Si10      1.0  0.32617073  0.042848355000000005  0.4602138036255551  1.0000
  Si  Si11      1.0  0.4667600500000001  0.9510307150000001  0.45202912825455777  1.0000
  Si  Si12      1.0  0.029260049999999937  0.45103071499999997  0.47047229340613733  1.0000
  Si  Si13      1.0  0.061491529999999975  0.719008495  0.5091563985283313  1.0000
  Si  Si14      1.0  0.43283354  0.20183713500000003  0.4871713872846974  1.0000
  Si  Si15      1.0  0.63738268  0.793730535  0.49513623783252636  1.0000
  Si  Si16      1.0  0.25961999  0.30418208500000005  0.5121835917854638  1.0000
  Si  Si17      1.0  0.8374040500000001  0.6477098350000001  0.5012458476096149  1.0000
  Si  Si18      1.0  0.19400407999999997  0.14657450500000002  0.4886083134625486  1.0000
  Si  Si19      1.0  0.87180145  0.8607651650000002  0.500913985722237  1.0000
  Si  Si20      1.0  0.41967349  0.412055275  0.5211763315680528  1.0000
  Si  Si21      1.0  0.09193179999999997  0.550241575  0.512153581067129  1.0000
  Si  Si22      1.0  0.45854388  0.049176465  0.49567318476548344  1.0000
  Si  Si23      1.0  0.5985986700000001  0.9519402250000002  0.490135056379235  1.0000
  Si  Si24      1.0  0.19604497  0.44179992500000004  0.5084205162387833  1.0000
