data_image0
_chemical_formula_structural       COAl20Pd10Al20Pd10
_chemical_formula_sum              "C1 O1 Al40 Pd20"
_cell_length_a       12.688352783583385
_cell_length_b       8.45890186
_cell_length_c       109.90056025999999
_cell_angle_alpha    90.0
_cell_angle_beta     87.97513171045992
_cell_angle_gamma    90.0

_space_group_name_H-M_alt    "P 1"
_space_group_IT_number       1

loop_
  _space_group_symop_operation_xyz
  'x, y, z'

loop_
  _atom_site_type_symbol
  _atom_site_label
  _atom_site_symmetry_multiplicity
  _atom_site_fract_x
  _atom_site_fract_y
  _atom_site_fract_z
  _atom_site_occupancy
  C   C1        1.0  0.499874055  0.380084405  0.5426906625076183  1.0000
  O   O1        1.0  0.47888549499999994  0.38008068500000003  0.553467233347246  1.0000
  Al  Al1       1.0  0.967837145  0.130099845  0.4919153381401106  1.0000
  Al  Al2       1.0  0.521212055  0.14049686499999997  0.5100672993369718  1.0000
  Al  Al3       1.0  0.41783714499999997  0.130099845  0.4737623095451679  1.0000
  Al  Al4       1.0  0.087943115  0.11990015499999998  0.5247405702499442  1.0000
  Al  Al5       1.0  0.8678371450000001  0.130099845  0.45560928095022524  1.0000
  Al  Al6       1.0  0.19283714500000004  0.130099845  0.4828388238426392  1.0000
  Al  Al7       1.0  0.742837145  0.130099845  0.5009918524375819  1.0000
  Al  Al8       1.0  0.642837145  0.130099845  0.46468579524769654  1.0000
  Al  Al9       1.0  0.30428294499999997  0.14817186499999999  0.5191985631686855  1.0000
  Al  Al10      1.0  0.09283714500000001  0.130099845  0.44653276665275393  1.0000
  Al  Al11      1.0  0.24283714500000006  0.380099845  0.5009918524375819  1.0000
  Al  Al12      1.0  0.7998404149999999  0.380093985  0.5177496138404772  1.0000
  Al  Al13      1.0  0.692837145  0.380099845  0.4828388238426392  1.0000
  Al  Al14      1.0  0.592837145  0.380099845  0.44653276665275393  1.0000
  Al  Al15      1.0  0.14283714500000003  0.380099845  0.46468579524769654  1.0000
  Al  Al16      1.0  0.019662855000000014  0.380096005  0.5103724590088643  1.0000
  Al  Al17      1.0  0.5917111549999999  0.38008723499999997  0.5271100415051735  1.0000
  Al  Al18      1.0  0.467837145  0.380099845  0.4919153381401106  1.0000
  Al  Al19      1.0  0.367837145  0.380099845  0.45560928095022524  1.0000
  Al  Al20      1.0  0.917837145  0.380099845  0.4737623095451679  1.0000
  Pd  Pd1       1.0  0.255337145  0.130099845  0.4601475380989609  1.0000
  Pd  Pd2       1.0  0.8053371450000001  0.130099845  0.4783005666939036  1.0000
  Pd  Pd3       1.0  0.45906897499999993  0.157583005  0.5321248192851321  1.0000
  Pd  Pd4       1.0  0.35533714499999997  0.130099845  0.4964535952888462  1.0000
  Pd  Pd5       1.0  0.911248165  0.128716055  0.514411663987285  1.0000
  Pd  Pd6       1.0  0.08033714500000003  0.380099845  0.4873770809913749  1.0000
  Pd  Pd7       1.0  0.6325026850000001  0.380102615  0.5048204677618784  1.0000
  Pd  Pd8       1.0  0.530337145  0.380099845  0.4692240523964323  1.0000
  Pd  Pd9       1.0  0.18264578500000003  0.38008596499999997  0.5236973411108329  1.0000
  Pd  Pd10      1.0  0.980337145  0.380099845  0.45107102380148956  1.0000
  Al  Al21      1.0  0.967837145  0.630099845  0.4919153381401106  1.0000
  Al  Al22      1.0  0.5212186350000001  0.619692925  0.5100676151996694  1.0000
  Al  Al23      1.0  0.41783714499999997  0.630099845  0.4737623095451679  1.0000
  Al  Al24      1.0  0.08794021500000002  0.6402885450000001  0.5247401345772579  1.0000
  Al  Al25      1.0  0.8678371450000001  0.630099845  0.45560928095022524  1.0000
  Al  Al26      1.0  0.19283714500000004  0.630099845  0.4828388238426392  1.0000
  Al  Al27      1.0  0.742837145  0.630099845  0.5009918524375819  1.0000
  Al  Al28      1.0  0.642837145  0.630099845  0.46468579524769654  1.0000
  Al  Al29      1.0  0.304279695  0.6120027250000001  0.519199085975909  1.0000
  Al  Al30      1.0  0.09283714500000001  0.630099845  0.44653276665275393  1.0000
  Al  Al31      1.0  0.24283714500000006  0.880099845  0.5009918524375819  1.0000
  Al  Al32      1.0  0.802360295  0.8800944850000001  0.5156725842453068  1.0000
  Al  Al33      1.0  0.692837145  0.880099845  0.4828388238426392  1.0000
  Al  Al34      1.0  0.592837145  0.880099845  0.44653276665275393  1.0000
  Al  Al35      1.0  0.14283714500000003  0.880099845  0.46468579524769654  1.0000
  Al  Al36      1.0  0.025422935000000015  0.8800944549999999  0.5102623427374074  1.0000
  Al  Al37      1.0  0.43807129499999997  0.880093045  0.5228715634706547  1.0000
  Al  Al38      1.0  0.467837145  0.880099845  0.4919153381401106  1.0000
  Al  Al39      1.0  0.367837145  0.880099845  0.45560928095022524  1.0000
  Al  Al40      1.0  0.917837145  0.880099845  0.4737623095451679  1.0000
  Pd  Pd11      1.0  0.255337145  0.630099845  0.4601475380989609  1.0000
  Pd  Pd12      1.0  0.8053371450000001  0.630099845  0.4783005666939036  1.0000
  Pd  Pd13      1.0  0.45907180499999994  0.602573785  0.532126060952288  1.0000
  Pd  Pd14      1.0  0.35533714499999997  0.630099845  0.4964535952888462  1.0000
  Pd  Pd15      1.0  0.9112445650000001  0.6314689349999999  0.5144115841139592  1.0000
  Pd  Pd16      1.0  0.08033714500000003  0.880099845  0.4873770809913749  1.0000
  Pd  Pd17      1.0  0.621609675  0.880093505  0.506180732284189  1.0000
  Pd  Pd18      1.0  0.530337145  0.880099845  0.4692240523964323  1.0000
  Pd  Pd19      1.0  0.21088743499999998  0.8800804750000001  0.5235091377715719  1.0000
  Pd  Pd20      1.0  0.980337145  0.880099845  0.45107102380148956  1.0000
