data_image0
_chemical_formula_structural       COGa24
_chemical_formula_sum              "C1 O1 Ga24"
_cell_length_a       6.524406777365198
_cell_length_b       6.524406775238413
_cell_length_c       107.42971757000001
_cell_angle_alpha    87.18866469433017
_cell_angle_beta     87.18866469524733
_cell_angle_gamma    73.98361631365167

_space_group_name_H-M_alt    "P 1"
_space_group_IT_number       1

loop_
  _space_group_symop_operation_xyz
  'x, y, z'

loop_
  _atom_site_type_symbol
  _atom_site_label
  _atom_site_symmetry_multiplicity
  _atom_site_fract_x
  _atom_site_fract_y
  _atom_site_fract_z
  _atom_site_occupancy
  C   C1        1.0  0.9062028849999998  0.17790434  0.5539194337727251  1.0000
  O   O1        1.0  0.8819697849999998  0.15833064  0.5648415990123518  1.0000
  Ga  Ga1       1.0  0.025733454999999923  0.70539253  0.4351584009876482  1.0000
  Ga  Ga2       1.0  0.4146223449999999  0.09428141999999998  0.4545145772206452  1.0000
  Ga  Ga3       1.0  0.803511235  0.48317030999999994  0.4738707569377544  1.0000
  Ga  Ga4       1.0  0.40766218499999984  0.7123527000000001  0.44483648736209075  1.0000
  Ga  Ga5       1.0  0.7965510749999999  0.10124158999999996  0.46419266707919976  1.0000
  Ga  Ga6       1.0  0.1854399549999998  0.49013047000000004  0.48354884331219683  1.0000
  Ga  Ga7       1.0  0.03848120499999989  0.3431717199999999  0.45134774930009314  1.0000
  Ga  Ga8       1.0  0.42737009499999984  0.7320606099999999  0.4707039255330902  1.0000
  Ga  Ga9       1.0  0.8162589849999998  0.12094949999999999  0.4900601052501992  1.0000
  Ga  Ga10      1.0  0.6565524849999997  0.33621155999999996  0.44166965944153863  1.0000
  Ga  Ga11      1.0  0.0454413749999999  0.7251004499999999  0.46102583567453564  1.0000
  Ga  Ga12      1.0  0.4343302649999998  0.11398933999999998  0.4803820153916446  1.0000
  Ga  Ga13      1.0  0.19240012499999987  0.8720591999999999  0.4932269331707513  1.0000
  Ga  Ga14      1.0  0.5812890149999999  0.26094808999999997  0.5125831128878603  1.0000
  Ga  Ga15      1.0  0.974266545  0.63126564  0.5333856067552771  1.0000
  Ga  Ga16      1.0  0.574328845  0.8790193599999999  0.5029050230293058  1.0000
  Ga  Ga17      1.0  0.9614802449999998  0.26917506999999996  0.520820428334299  1.0000
  Ga  Ga18      1.0  0.35049362499999986  0.65422856  0.5403855223793704  1.0000
  Ga  Ga19      1.0  0.2051478749999999  0.50983839  0.5094162814831962  1.0000
  Ga  Ga20      1.0  0.5948412649999999  0.90571858  0.5300920825833988  1.0000
  Ga  Ga21      1.0  0.20944328499999987  0.18852657999999997  0.5417749688524659  1.0000
  Ga  Ga22      1.0  0.8232191549999999  0.50287823  0.49973819510875367  1.0000
  Ga  Ga23      1.0  0.21858436499999986  0.8898442999999999  0.5184995985702211  1.0000
  Ga  Ga24      1.0  0.6489975949999998  0.28149548999999996  0.5388763583314256  1.0000
