data_image0
_chemical_formula_structural       COTi2Al6Ti2Al6Ti2Al6Ti2Al6
_chemical_formula_sum              "C1 O1 Ti8 Al24"
_cell_length_a       5.66245329
_cell_length_b       8.00791824
_cell_length_c       103.97471974
_cell_angle_alpha    90.0
_cell_angle_beta     90.0
_cell_angle_gamma    90.0

_space_group_name_H-M_alt    "P 1"
_space_group_IT_number       1

loop_
  _space_group_symop_operation_xyz
  'x, y, z'

loop_
  _atom_site_type_symbol
  _atom_site_label
  _atom_site_symmetry_multiplicity
  _atom_site_fract_x
  _atom_site_fract_y
  _atom_site_fract_z
  _atom_site_occupancy
  C   C1        1.0  0.8748624099999999  0.61668247  0.5458385817967119  1.0000
  O   O1        1.0  0.8747071999999998  0.61668248  0.5574293954231212  1.0000
  Ti  Ti1       1.0  0.8748674399999999  0.11668247999999996  0.5236412258220573  1.0000
  Ti  Ti2       1.0  0.37499999999999994  0.11668246999999997  0.4970305099982027  1.0000
  Al  Al1       1.0  0.875  0.11668246999999997  0.4970305099982027  1.0000
  Al  Al2       1.0  0.3750447299999999  0.11668247999999996  0.524250785728464  1.0000
  Al  Al3       1.0  0.13304754999999996  0.35004739999999995  0.538222891347738  1.0000
  Al  Al4       1.0  0.6220011  0.3702682299999999  0.511165603219162  1.0000
  Al  Al5       1.0  0.61703988  0.35008915  0.5382159084988045  1.0000
  Al  Al6       1.0  0.12812506999999995  0.37034883999999996  0.5111683545335288  1.0000
  Ti  Ti3       1.0  0.875  0.11668246999999997  0.46980055892133793  1.0000
  Ti  Ti4       1.0  0.37499999999999994  0.11668246999999997  0.4425706045768788  1.0000
  Al  Al7       1.0  0.875  0.11668246999999997  0.4425706045768788  1.0000
  Al  Al8       1.0  0.37499999999999994  0.11668246999999997  0.46980055892133793  1.0000
  Al  Al9       1.0  0.12499999999999996  0.36668247  0.48341553282597316  1.0000
  Al  Al10      1.0  0.625  0.36668247  0.4561855817491084  1.0000
  Al  Al11      1.0  0.625  0.36668247  0.48341553282597316  1.0000
  Al  Al12      1.0  0.12499999999999996  0.36668247  0.4561855817491084  1.0000
  Ti  Ti5       1.0  0.8749726499999998  0.61668245  0.5260730413573691  1.0000
  Ti  Ti6       1.0  0.37499999999999994  0.61668247  0.4970305099982027  1.0000
  Al  Al13      1.0  0.875  0.61668247  0.4970305099982027  1.0000
  Al  Al14      1.0  0.37494249999999996  0.61668246  0.5262898919828349  1.0000
  Al  Al15      1.0  0.13304753999999996  0.88331753  0.5382228848125495  1.0000
  Al  Al16      1.0  0.6220011  0.86309671  0.511165603219162  1.0000
  Al  Al17      1.0  0.61703988  0.88327578  0.5382159052312103  1.0000
  Al  Al18      1.0  0.12812506999999995  0.86301609  0.5111683545335288  1.0000
  Ti  Ti7       1.0  0.875  0.61668247  0.46980055892133793  1.0000
  Ti  Ti8       1.0  0.37499999999999994  0.61668247  0.4425706045768788  1.0000
  Al  Al19      1.0  0.875  0.61668247  0.4425706045768788  1.0000
  Al  Al20      1.0  0.37499999999999994  0.61668247  0.46980055892133793  1.0000
  Al  Al21      1.0  0.12499999999999996  0.8666824699999999  0.48341553282597316  1.0000
  Al  Al22      1.0  0.625  0.8666824699999999  0.4561855817491084  1.0000
  Al  Al23      1.0  0.625  0.8666824699999999  0.48341553282597316  1.0000
  Al  Al24      1.0  0.12499999999999996  0.8666824699999999  0.4561855817491084  1.0000
