data_image0
_chemical_formula_structural       COCu3Pt3Zn6Cu3Pt3Zn6Cu3Pt3Zn6Cu3Pt3Zn6
_chemical_formula_sum              "C1 O1 Cu12 Pt12 Zn24"
_cell_length_a       8.67423832
_cell_length_b       8.674238316881919
_cell_length_c       101.8711867
_cell_angle_alpha    90.0
_cell_angle_beta     90.0
_cell_angle_gamma    120.00000001189099

_space_group_name_H-M_alt    "P 1"
_space_group_IT_number       1

loop_
  _space_group_symop_operation_xyz
  'x, y, z'

loop_
  _atom_site_type_symbol
  _atom_site_label
  _atom_site_symmetry_multiplicity
  _atom_site_fract_x
  _atom_site_fract_y
  _atom_site_fract_z
  _atom_site_occupancy
  C   C1        1.0  0.08352022499999998  0.582415615  0.550674050599769  1.0000
  O   O1        1.0  0.083231765  0.581818355  0.5620622153419973  1.0000
  Cu  Cu1       1.0  0.41660548499999994  0.248613045  0.49877123098840487  1.0000
  Cu  Cu2       1.0  0.249938825  0.41527970500000005  0.4640092629975654  1.0000
  Cu  Cu3       1.0  0.08223300499999998  0.082062205  0.5301052044811754  1.0000
  Pt  Pt1       1.0  0.251281785  0.415911445  0.5171290678346875  1.0000
  Pt  Pt2       1.0  0.08327215499999997  0.081946375  0.4813902454286965  1.0000
  Pt  Pt3       1.0  0.41660548499999994  0.248613045  0.44662827743785705  1.0000
  Zn  Zn1       1.0  0.249938825  0.41527970500000005  0.4900807382085507  1.0000
  Zn  Zn2       1.0  0.08327215499999997  0.081946375  0.4553187702177112  1.0000
  Zn  Zn3       1.0  0.417031035  0.24945212500000002  0.5258587992291628  1.0000
  Zn  Zn4       1.0  0.08337268499999997  0.082127385  0.5064038079191392  1.0000
  Zn  Zn5       1.0  0.41660548499999994  0.248613045  0.4726997526488424  1.0000
  Zn  Zn6       1.0  0.249938825  0.41527970500000005  0.4379377846580029  1.0000
  Cu  Cu4       1.0  0.41660548499999994  0.748613045  0.49877123098840487  1.0000
  Cu  Cu5       1.0  0.249938825  0.915279705  0.4640092629975654  1.0000
  Cu  Cu6       1.0  0.08352864499999996  0.582443785  0.532315519209359  1.0000
  Pt  Pt4       1.0  0.25133140500000006  0.9180536250000001  0.5171319242256259  1.0000
  Pt  Pt5       1.0  0.08327215499999997  0.581946375  0.4813902454286965  1.0000
  Pt  Pt6       1.0  0.41660548499999994  0.748613045  0.44662827743785705  1.0000
  Zn  Zn7       1.0  0.249938825  0.915279705  0.4900807382085507  1.0000
  Zn  Zn8       1.0  0.08327215499999997  0.581946375  0.4553187702177112  1.0000
  Zn  Zn9       1.0  0.415571335  0.748736665  0.5253243725517438  1.0000
  Zn  Zn10      1.0  0.08348621500000002  0.582374135  0.5074396297564224  1.0000
  Zn  Zn11      1.0  0.41660548499999994  0.748613045  0.4726997526488424  1.0000
  Zn  Zn12      1.0  0.249938825  0.915279705  0.4379377846580029  1.0000
  Cu  Cu7       1.0  0.9166054849999998  0.248613045  0.49877123098840487  1.0000
  Cu  Cu8       1.0  0.749938825  0.41527970500000005  0.4640092629975654  1.0000
  Cu  Cu9       1.0  0.5844460849999998  0.08205875500000001  0.5301085770873435  1.0000
  Pt  Pt7       1.0  0.749227205  0.415905095  0.5171288676057499  1.0000
  Pt  Pt8       1.0  0.583272155  0.081946375  0.4813902454286965  1.0000
  Pt  Pt9       1.0  0.9166054849999998  0.248613045  0.44662827743785705  1.0000
  Zn  Zn13      1.0  0.749938825  0.41527970500000005  0.4900807382085507  1.0000
  Zn  Zn14      1.0  0.583272155  0.081946375  0.4553187702177112  1.0000
  Zn  Zn15      1.0  0.9177266249999999  0.250862845  0.5253305952916961  1.0000
  Zn  Zn16      1.0  0.5833529749999999  0.082124835  0.5064049123068733  1.0000
  Zn  Zn17      1.0  0.9166054849999998  0.248613045  0.4726997526488424  1.0000
  Zn  Zn18      1.0  0.749938825  0.41527970500000005  0.4379377846580029  1.0000
  Cu  Cu10      1.0  0.9166054849999998  0.748613045  0.49877123098840487  1.0000
  Cu  Cu11      1.0  0.7499388250000001  0.915279705  0.4640092629975654  1.0000
  Cu  Cu12      1.0  0.584405155  0.584194075  0.5301125628946332  1.0000
  Pt  Pt10      1.0  0.7506360449999998  0.916667915  0.5172292886751254  1.0000
  Pt  Pt11      1.0  0.5832721550000001  0.581946375  0.4813902454286965  1.0000
  Pt  Pt12      1.0  0.9166054849999998  0.748613045  0.44662827743785705  1.0000
  Zn  Zn19      1.0  0.7499388250000001  0.915279705  0.4900807382085507  1.0000
  Zn  Zn20      1.0  0.5832721550000001  0.581946375  0.4553187702177112  1.0000
  Zn  Zn21      1.0  0.9177669949999999  0.7487304850000001  0.5253250358100997  1.0000
  Zn  Zn22      1.0  0.5834750049999999  0.5823510250000001  0.5064029819747714  1.0000
  Zn  Zn23      1.0  0.9166054849999998  0.748613045  0.4726997526488424  1.0000
  Zn  Zn24      1.0  0.7499388250000001  0.915279705  0.4379377846580029  1.0000
