data_image0
_chemical_formula_structural       COCu18Ge6
_chemical_formula_sum              "C1 O1 Cu18 Ge6"
_cell_length_a       6.30660862345722
_cell_length_b       6.892485589921616
_cell_length_c       103.19284652
_cell_angle_alpha    79.25066142071495
_cell_angle_beta     86.7854531894558
_cell_angle_gamma    64.92886833642841

_space_group_name_H-M_alt    "P 1"
_space_group_IT_number       1

loop_
  _space_group_symop_operation_xyz
  'x, y, z'

loop_
  _atom_site_type_symbol
  _atom_site_label
  _atom_site_symmetry_multiplicity
  _atom_site_fract_x
  _atom_site_fract_y
  _atom_site_fract_z
  _atom_site_occupancy
  C   C1        1.0  0.5107742  0.13036737000000004  0.537591029378889  1.0000
  O   O1        1.0  0.5333741900000001  0.12306085000000003  0.5489310514494818  1.0000
  Cu  Cu1       1.0  0.61222747  0.87506184  0.4868985427241368  1.0000
  Cu  Cu2       1.0  0.9455608100000001  0.20839518  0.4600936766314624  1.0000
  Cu  Cu3       1.0  0.2677453300000001  0.54614771  0.5142579704248065  1.0000
  Cu  Cu4       1.0  0.04435342000000004  0.15860208  0.5043476620702749  1.0000
  Cu  Cu5       1.0  0.38777253  0.4872893200000001  0.4778738146431928  1.0000
  Cu  Cu6       1.0  0.7211058599999999  0.8206226500000001  0.4510689485505182  1.0000
  Cu  Cu7       1.0  0.6367268200000001  0.48348419000000004  0.4990772054571328  1.0000
  Cu  Cu8       1.0  0.97364312  0.81885336  0.4712343541215339  1.0000
  Cu  Cu9       1.0  0.29533357  0.14789630000000006  0.5240224324248994  1.0000
  Cu  Cu10      1.0  0.47015444000000006  0.8134616300000002  0.5114038664393034  1.0000
  Cu  Cu11      1.0  0.8063089  0.15352180000000004  0.48469047034753704  1.0000
  Cu  Cu12      1.0  0.13964223000000006  0.4868551300000001  0.4578856010382784  1.0000
  Cu  Cu13      1.0  0.026356879999999965  0.5434978000000001  0.49353800324579566  1.0000
  Cu  Cu14      1.0  0.35969021999999995  0.8768311400000001  0.46673313715312115  1.0000
  Cu  Cu15      1.0  0.69441725  0.18711369000000003  0.5211861965638485  1.0000
  Cu  Cu16      1.0  0.8558626099999999  0.8687074000000001  0.5070718257095149  1.0000
  Cu  Cu17      1.0  0.1936911000000001  0.20882936000000005  0.48008189023637676  1.0000
  Cu  Cu18      1.0  0.52702444  0.5421627  0.4532770209271181  1.0000
  Ge  Ge1       1.0  0.87971936  0.48410319  0.5188670040743193  1.0000
  Ge  Ge2       1.0  0.21766893000000004  0.82234111  0.4911380584134456  1.0000
  Ge  Ge3       1.0  0.5510022700000001  0.15567445000000002  0.4643331923207711  1.0000
  Ge  Ge4       1.0  0.78233107  0.54001005  0.47363429895388404  1.0000
  Ge  Ge5       1.0  0.11024358000000006  0.87693915  0.5262396591997335  1.0000
  Ge  Ge6       1.0  0.44645415  0.20771230000000007  0.50020197413799  1.0000
