data_image0
_chemical_formula_structural       COGa2Sb2Ga2Sb2Ga2Sb2Ga2Sb2
_chemical_formula_sum              "C1 O1 Ga8 Sb8"
_cell_length_a       8.87320540918224
_cell_length_b       7.29360226
_cell_length_c       105.49282163000001
_cell_angle_alpha    90.0
_cell_angle_beta     119.99999996576817
_cell_angle_gamma    90.0

_space_group_name_H-M_alt    "P 1"
_space_group_IT_number       1

loop_
  _space_group_symop_operation_xyz
  'x, y, z'

loop_
  _atom_site_type_symbol
  _atom_site_label
  _atom_site_symmetry_multiplicity
  _atom_site_fract_x
  _atom_site_fract_y
  _atom_site_fract_z
  _atom_site_occupancy
  C   C1        1.0  0.27259883  0.51381882  0.5319016990051371  1.0000
  O   O1        1.0  0.31578663  0.49767962  0.5441299258313087  1.0000
  Ga  Ga1       1.0  0.17812018999999996  0.54450817  0.4698887278405474  1.0000
  Ga  Ga2       1.0  0.3447868499999999  0.044508169999999965  0.45587007416869135  1.0000
  Sb  Sb1       1.0  0.17812018999999996  0.9191538699999999  0.4698887278405474  1.0000
  Sb  Sb2       1.0  0.3447868499999999  0.41915386999999993  0.45587007416869135  1.0000
  Ga  Ga3       1.0  0.15233568  0.5964017699999998  0.5081310301497003  1.0000
  Ga  Ga4       1.0  0.3495608599999999  0.04587397999999997  0.4990140668080168  1.0000
  Sb  Sb3       1.0  0.19045790999999995  0.9554918299999999  0.5145156071735899  1.0000
  Sb  Sb4       1.0  0.34600476999999996  0.4242303  0.49850276381008857  1.0000
  Ga  Ga5       1.0  0.67812019  0.54450817  0.4698887278405474  1.0000
  Ga  Ga6       1.0  0.8447868499999999  0.044508169999999965  0.45587007416869135  1.0000
  Sb  Sb5       1.0  0.67812019  0.9191538699999999  0.4698887278405474  1.0000
  Sb  Sb6       1.0  0.8447868499999999  0.41915386999999993  0.45587007416869135  1.0000
  Ga  Ga7       1.0  0.64443172  0.6028911299999998  0.5068340813005754  1.0000
  Ga  Ga8       1.0  0.84766432  0.045645269999999974  0.4989746855998208  1.0000
  Sb  Sb7       1.0  0.69275761  0.9518063099999999  0.5147907709593488  1.0000
  Sb  Sb8       1.0  0.84349485  0.42415518  0.4984214914935416  1.0000
