data_image0
_chemical_formula_structural       COCu6Rh12Se24
_chemical_formula_sum              "C1 O1 Cu6 Rh12 Se24"
_cell_length_a       7.403847499354026
_cell_length_b       7.4038475
_cell_length_c       124.40694552
_cell_angle_alpha    90.0
_cell_angle_beta     90.0
_cell_angle_gamma    120.00000000288615

_space_group_name_H-M_alt    "P 1"
_space_group_IT_number       1

loop_
  _space_group_symop_operation_xyz
  'x, y, z'

loop_
  _atom_site_type_symbol
  _atom_site_label
  _atom_site_symmetry_multiplicity
  _atom_site_fract_x
  _atom_site_fract_y
  _atom_site_fract_z
  _atom_site_occupancy
  C   C1        1.0  0.42216053  0.2431712  0.5705356332645741  1.0000
  O   O1        1.0  0.4218425999999999  0.24287840999999996  0.5798429961231737  1.0000
  Cu  Cu1       1.0  0.7563305200000001  0.91033614  0.42015700387682625  1.0000
  Cu  Cu2       1.0  0.08966384999999998  0.5770028100000001  0.46874927566011565  1.0000
  Cu  Cu3       1.0  0.42299718999999997  0.24366946999999997  0.5173415474434052  1.0000
  Cu  Cu4       1.0  0.08966384999999998  0.5770028100000001  0.5051934784042567  1.0000
  Cu  Cu5       1.0  0.4222759999999999  0.24330120999999993  0.5555159650218588  1.0000
  Cu  Cu6       1.0  0.7563305200000001  0.91033614  0.45660120662096726  1.0000
  Rh  Rh1       1.0  0.25633052  0.91033614  0.438379107435549  1.0000
  Rh  Rh2       1.0  0.5896638499999999  0.57700281  0.48697137921883843  1.0000
  Rh  Rh3       1.0  0.9216099299999999  0.24124493999999996  0.5353283847130184  1.0000
  Rh  Rh4       1.0  0.7563305200000001  0.41033614  0.438379107435549  1.0000
  Rh  Rh5       1.0  0.08966384999999998  0.07700280999999998  0.48697137921883843  1.0000
  Rh  Rh6       1.0  0.42533038999999995  0.7448350399999999  0.5353418544908914  1.0000
  Rh  Rh7       1.0  0.25633052  0.41033614000000007  0.438379107435549  1.0000
  Rh  Rh8       1.0  0.5896638499999999  0.07700280999999992  0.48697137921883843  1.0000
  Rh  Rh9       1.0  0.92160592  0.74470796  0.5353282316473608  1.0000
  Rh  Rh10      1.0  0.42299718999999997  0.24366946999999997  0.4626752411405414  1.0000
  Rh  Rh11      1.0  0.7563305200000001  0.91033614  0.511267512923831  1.0000
  Rh  Rh12      1.0  0.08799567999999999  0.5761741999999999  0.5579880759788779  1.0000
  Se  Se1       1.0  0.42299718999999997  0.24366946999999997  0.4276153029779061  1.0000
  Se  Se2       1.0  0.7563305200000001  0.91033614  0.4762075747611956  1.0000
  Se  Se3       1.0  0.08966384999999998  0.5770028100000001  0.5247998465444851  1.0000
  Se  Se4       1.0  0.93565824  0.26899157  0.42669245700803266  1.0000
  Se  Se5       1.0  0.26899156999999996  0.9356582400000001  0.47528473316462666  1.0000
  Se  Se6       1.0  0.6023248999999998  0.6023248999999998  0.5238770049479161  1.0000
  Se  Se7       1.0  0.08966384999999998  0.5770028100000001  0.44914290751988734  1.0000
  Se  Se8       1.0  0.42299718999999997  0.24366946999999997  0.49773517930317684  1.0000
  Se  Se9       1.0  0.7566845299999999  0.91051454  0.5461700864704906  1.0000
  Se  Se10      1.0  0.11498594999999998  0.08966385999999998  0.45006575348976074  1.0000
  Se  Se11      1.0  0.44831929  0.7563305199999998  0.49865802527305025  1.0000
  Se  Se12      1.0  0.7798110400000001  0.42207874999999995  0.547088795294303  1.0000
  Se  Se13      1.0  0.5770028099999999  0.5516807099999999  0.45006575348976074  1.0000
  Se  Se14      1.0  0.91033614  0.2183473799999999  0.49865802527305025  1.0000
  Se  Se15      1.0  0.24330788  0.8849401600000001  0.5471385328864297  1.0000
  Se  Se16      1.0  0.26899156999999996  0.39767509  0.47528473316462666  1.0000
  Se  Se17      1.0  0.6023248999999998  0.0643417599999999  0.5238770049479161  1.0000
  Se  Se18      1.0  0.93565824  0.73100842  0.42669245700803266  1.0000
  Se  Se19      1.0  0.7310084200000001  0.39767509  0.47528473316462666  1.0000
  Se  Se20      1.0  0.06434175999999997  0.06434175999999997  0.5238770049479161  1.0000
  Se  Se21      1.0  0.3976750899999999  0.7310084199999999  0.42669245700803266  1.0000
  Se  Se22      1.0  0.5770028099999999  0.08966385999999989  0.45006575348976074  1.0000
  Se  Se23      1.0  0.91033614  0.7563305199999998  0.49865802527305025  1.0000
  Se  Se24      1.0  0.24331099999999994  0.42271521999999995  0.5471388215245269  1.0000
