data_image0
_chemical_formula_structural       COAl48Mo18
_chemical_formula_sum              "C1 O1 Al48 Mo18"
_cell_length_a       20.584927326980747
_cell_length_b       4.985341714067203
_cell_length_c       104.15006345
_cell_angle_alpha    92.43604018227252
_cell_angle_beta     103.73968372274547
_cell_angle_gamma    83.97483775166494

_space_group_name_H-M_alt    "P 1"
_space_group_IT_number       1

loop_
  _space_group_symop_operation_xyz
  'x, y, z'

loop_
  _atom_site_type_symbol
  _atom_site_label
  _atom_site_symmetry_multiplicity
  _atom_site_fract_x
  _atom_site_fract_y
  _atom_site_fract_z
  _atom_site_occupancy
  C   C1        1.0  0.27521528500000003  0.7164546249999999  0.5509525030177351  1.0000
  O   O1        1.0  0.26909103500000003  0.8265394949999997  0.5609317324069032  1.0000
  Al  Al1       1.0  0.571746385  0.6551482649999999  0.5247976165495577  1.0000
  Al  Al2       1.0  0.06954954500000002  0.48817859499999994  0.5082267960966232  1.0000
  Al  Al3       1.0  0.15923981500000003  0.7550124249999999  0.5273135451162159  1.0000
  Al  Al4       1.0  0.659512065  0.5917018249999998  0.5092300597546433  1.0000
  Al  Al5       1.0  0.20274389500000004  0.21470053499999983  0.5191882712106998  1.0000
  Al  Al6       1.0  0.706525355  0.3858069749999999  0.5342465841435748  1.0000
  Al  Al7       1.0  0.521059175  0.20078996499999996  0.5307495410824172  1.0000
  Al  Al8       1.0  0.024062985000000023  0.008757374999999873  0.516849362168985  1.0000
  Al  Al9       1.0  0.24547739500000004  0.6928563349999999  0.5105253972675518  1.0000
  Al  Al10      1.0  0.756741655  0.8414785549999999  0.5271824371512454  1.0000
  Al  Al11      1.0  0.478795125  0.39108141499999993  0.5059096525837686  1.0000
  Al  Al12      1.0  0.9759370150000001  0.5368326949999999  0.523545036267191  1.0000
  Al  Al13      1.0  0.38494407500000005  0.42157573499999995  0.5201048596668684  1.0000
  Al  Al14      1.0  0.8855630550000001  0.27009917499999997  0.5046468420437875  1.0000
  Al  Al15      1.0  0.339362335  0.9405292949999999  0.5269264216755185  1.0000
  Al  Al16      1.0  0.8445658950000002  0.7880894249999997  0.5111401111508802  1.0000
  Al  Al17      1.0  0.569621315  0.3383088249999999  0.49114357417328947  1.0000
  Al  Al18      1.0  0.06962131500000002  0.18830882499999985  0.4747489305606168  1.0000
  Al  Al19      1.0  0.15980175500000005  0.4412426249999999  0.4926369753756828  1.0000
  Al  Al20      1.0  0.6598017549999999  0.291242625  0.4762423317630101  1.0000
  Al  Al21      1.0  0.204285085  0.9093704749999999  0.4853237839100907  1.0000
  Al  Al22      1.0  0.704285085  0.059370474999999874  0.5017184275227633  1.0000
  Al  Al23      1.0  0.525137975  0.8701809749999998  0.4984567656388817  1.0000
  Al  Al24      1.0  0.025137975000000024  0.7201809749999999  0.48206212202620896  1.0000
  Al  Al25      1.0  0.253652215  0.3893401149999999  0.4779705862351548  1.0000
  Al  Al26      1.0  0.753652215  0.5393401149999998  0.49436522984782755  1.0000
  Al  Al27      1.0  0.47577085500000005  0.09021133499999986  0.47302067608847204  1.0000
  Al  Al28      1.0  0.975770855  0.2402113349999999  0.4894153197011447  1.0000
  Al  Al29      1.0  0.38556305500000004  0.12009917499999989  0.488252198431115  1.0000
  Al  Al30      1.0  0.8855630550000001  0.9700991749999998  0.47185755481844227  1.0000
  Al  Al31      1.0  0.343860015  0.6594522749999999  0.49552835111785726  1.0000
  Al  Al32      1.0  0.8438600150000001  0.5094522749999999  0.4791337075051846  1.0000
  Al  Al33      1.0  0.569621315  0.03830882499999988  0.4583542869479441  1.0000
  Al  Al34      1.0  0.06962131500000002  0.8883088249999999  0.4419596433352714  1.0000
  Al  Al35      1.0  0.15980175500000005  0.14124262499999984  0.45984768815033733  1.0000
  Al  Al36      1.0  0.6598017549999999  0.991242625  0.4434530445376646  1.0000
  Al  Al37      1.0  0.204285085  0.6093704749999999  0.4525344966847452  1.0000
  Al  Al38      1.0  0.704285085  0.7593704749999999  0.4689291402974179  1.0000
  Al  Al39      1.0  0.525137975  0.570180975  0.4656674784135363  1.0000
  Al  Al40      1.0  0.025137975000000024  0.4201809749999999  0.44927283480086355  1.0000
  Al  Al41      1.0  0.253652215  0.08934011499999986  0.44518129900980946  1.0000
  Al  Al42      1.0  0.753652215  0.23934011499999988  0.4615759426224822  1.0000
  Al  Al43      1.0  0.47577085500000005  0.7902113349999997  0.4402313888631265  1.0000
  Al  Al44      1.0  0.975770855  0.9402113349999999  0.4566260324757993  1.0000
  Al  Al45      1.0  0.38556305500000004  0.8200991749999997  0.4554629112057696  1.0000
  Al  Al46      1.0  0.8855630550000001  0.6700991749999997  0.4390682675930968  1.0000
  Al  Al47      1.0  0.343860015  0.3594522749999999  0.4627390638925119  1.0000
  Al  Al48      1.0  0.8438600150000001  0.2094522749999999  0.44634442027983917  1.0000
  Mo  Mo1       1.0  0.616576775  0.11770178499999988  0.5167995519627611  1.0000
  Mo  Mo2       1.0  0.11021858500000002  0.2821579949999999  0.5316775992312573  1.0000
  Mo  Mo3       1.0  0.445746655  0.9040760149999999  0.5141360617668026  1.0000
  Mo  Mo4       1.0  0.918309175  0.09333891499999997  0.5282618014659868  1.0000
  Mo  Mo5       1.0  0.287593825  0.5083338249999999  0.5344975763004988  1.0000
  Mo  Mo6       1.0  0.792235265  0.30296636499999996  0.5187803757565452  1.0000
  Mo  Mo7       1.0  0.614711535  0.8147757249999998  0.4836929529681498  1.0000
  Mo  Mo8       1.0  0.11471153500000003  0.9647757249999999  0.5000875965808225  1.0000
  Mo  Mo9       1.0  0.444442025  0.6028935349999999  0.481211443316292  1.0000
  Mo  Mo10      1.0  0.9444420250000001  0.7528935349999999  0.4976060869289647  1.0000
  Mo  Mo11      1.0  0.28498103500000005  0.1766579149999999  0.5025691062326803  1.0000
  Mo  Mo12      1.0  0.7849810349999999  0.026657914999999876  0.4861744626200075  1.0000
  Mo  Mo13      1.0  0.614711535  0.5147757249999998  0.4509036657428044  1.0000
  Mo  Mo14      1.0  0.11471153500000003  0.6647757249999999  0.46729830935547706  1.0000
  Mo  Mo15      1.0  0.444442025  0.3028935349999998  0.4484221560909466  1.0000
  Mo  Mo16      1.0  0.9444420250000001  0.45289353499999985  0.46481679970361933  1.0000
  Mo  Mo17      1.0  0.28498103500000005  0.8766579149999998  0.4697798190073349  1.0000
  Mo  Mo18      1.0  0.7849810349999999  0.7266579149999999  0.4533851753946622  1.0000
