data_image0
_chemical_formula_structural       COCu18Si6Cu18Si6
_chemical_formula_sum              "C1 O1 Cu36 Si12"
_cell_length_a       9.06731758
_cell_length_b       6.712711693786464
_cell_length_c       110.27627014000001
_cell_angle_alpha    84.96797079143369
_cell_angle_beta     90.0
_cell_angle_gamma    47.5160146085294

_space_group_name_H-M_alt    "P 1"
_space_group_IT_number       1

loop_
  _space_group_symop_operation_xyz
  'x, y, z'

loop_
  _atom_site_type_symbol
  _atom_site_label
  _atom_site_symmetry_multiplicity
  _atom_site_fract_x
  _atom_site_fract_y
  _atom_site_fract_z
  _atom_site_occupancy
  C   C1        1.0  0.22983935999999996  0.91636189  0.558988778553675  1.0000
  O   O1        1.0  0.21649309999999994  0.91769854  0.569457829298742  1.0000
  Cu  Cu1       1.0  0.7510530799999999  0.75030478  0.46110626110415276  1.0000
  Cu  Cu2       1.0  0.08438640999999986  0.0836381100000001  0.440815669669583  1.0000
  Cu  Cu3       1.0  0.4177197399999999  0.41697144999999997  0.4813968488864163  1.0000
  Cu  Cu4       1.0  0.9166666699999999  0.4190776  0.481268645635376  1.0000
  Cu  Cu5       1.0  0.24999999999999983  0.7524109300000001  0.4609780542008063  1.0000
  Cu  Cu6       1.0  0.58333333  0.08574426999999998  0.4406874664185428  1.0000
  Cu  Cu7       1.0  0.08228025999999997  0.58469119  0.47118745154361136  1.0000
  Cu  Cu8       1.0  0.4156135899999999  0.9180245199999999  0.4508968637613478  1.0000
  Cu  Cu9       1.0  0.7489469199999998  0.25135786  0.43060627232677806  1.0000
  Cu  Cu10      1.0  0.5822802599999999  0.7524109300000001  0.43054217070125794  1.0000
  Cu  Cu11      1.0  0.9156135899999999  0.08574426999999998  0.4711233499180912  1.0000
  Cu  Cu12      1.0  0.2489469199999999  0.4190776  0.45083275848352145  1.0000
  Cu  Cu13      1.0  0.41666666999999985  0.0836381100000001  0.4712515568214376  1.0000
  Cu  Cu14      1.0  0.7499999999999999  0.41697144999999997  0.4509609653868679  1.0000
  Cu  Cu15      1.0  0.08333332999999991  0.75030478  0.43067037760460436  1.0000
  Cu  Cu16      1.0  0.25105308  0.9180245199999999  0.4813327472608962  1.0000
  Cu  Cu17      1.0  0.58438641  0.25135786  0.4610421594786326  1.0000
  Cu  Cu18      1.0  0.91771974  0.58469119  0.44075156804406296  1.0000
  Si  Si1       1.0  0.7499999999999998  0.9180245199999999  0.4813327472608962  1.0000
  Si  Si2       1.0  0.08333332999999994  0.25135786  0.4610421594786326  1.0000
  Si  Si3       1.0  0.41666666999999996  0.58469119  0.44075156804406296  1.0000
  Si  Si4       1.0  0.5833333299999999  0.58469119  0.47118745154361136  1.0000
  Si  Si5       1.0  0.9166666699999999  0.9180245199999999  0.4508968637613478  1.0000
  Si  Si6       1.0  0.24999999999999994  0.25135786  0.43060627232677806  1.0000
  Cu  Cu19      1.0  0.75093307  0.7526913000000001  0.5210358682477398  1.0000
  Cu  Cu20      1.0  0.08438640999999986  0.0836381100000001  0.501687440320986  1.0000
  Cu  Cu21      1.0  0.4606057099999999  0.39187236000000003  0.5411530007055659  1.0000
  Cu  Cu22      1.0  0.90165273  0.44478732  0.5412055281728458  1.0000
  Cu  Cu23      1.0  0.23912124999999992  0.76229038  0.5220681231917533  1.0000
  Cu  Cu24      1.0  0.58333333  0.08574426999999998  0.5015592334176395  1.0000
  Cu  Cu25      1.0  0.08489986999999995  0.59153666  0.5327729996936553  1.0000
  Cu  Cu26      1.0  0.4156135899999999  0.9180245199999999  0.5117686307604445  1.0000
  Cu  Cu27      1.0  0.7489469199999998  0.25135786  0.49147804297818104  1.0000
  Cu  Cu28      1.0  0.5822802599999999  0.7524109300000001  0.4914139413526608  1.0000
  Cu  Cu29      1.0  0.8964285799999999  0.10201081999999999  0.5332274123222215  1.0000
  Cu  Cu30      1.0  0.2489469199999999  0.4190776  0.5117045291349244  1.0000
  Cu  Cu31      1.0  0.42433561999999997  0.08246496999999998  0.5325101833942534  1.0000
  Cu  Cu32      1.0  0.7499999999999999  0.41697144999999997  0.5118327360382708  1.0000
  Cu  Cu33      1.0  0.08333332999999991  0.75030478  0.49154214460370116  1.0000
  Cu  Cu34      1.0  0.24933203000000007  0.9141269699999999  0.5421697150868429  1.0000
  Cu  Cu35      1.0  0.5866436799999998  0.25248076999999997  0.5208194508458712  1.0000
  Cu  Cu36      1.0  0.91771974  0.58469119  0.5016233386954659  1.0000
  Si  Si7       1.0  0.7509093399999999  0.9112450599999999  0.5409972882844831  1.0000
  Si  Si8       1.0  0.09555837999999997  0.24360228999999997  0.5231077704034469  1.0000
  Si  Si9       1.0  0.41666666999999996  0.58469119  0.5016233386954659  1.0000
  Si  Si10      1.0  0.58584531  0.59788414  0.5325806546417272  1.0000
  Si  Si11      1.0  0.9166666699999999  0.9180245199999999  0.5117686307604445  1.0000
  Si  Si12      1.0  0.24999999999999994  0.25135786  0.49147804297818104  1.0000
