data_image0
_chemical_formula_structural       Ir12Sn12CO
_chemical_formula_sum              "Ir12 Sn12 C1 O1"
_cell_length_a       6.984967637287321
_cell_length_b       9.029536974339111
_cell_length_c       101.07389896000001
_cell_angle_alpha    91.60551184854685
_cell_angle_beta     94.41161716441833
_cell_angle_gamma    97.16009858140055

_space_group_name_H-M_alt    "P 1"
_space_group_IT_number       1

loop_
  _space_group_symop_operation_xyz
  'x, y, z'

loop_
  _atom_site_type_symbol
  _atom_site_label
  _atom_site_symmetry_multiplicity
  _atom_site_fract_x
  _atom_site_fract_y
  _atom_site_fract_z
  _atom_site_occupancy
  Ir  Ir1       1.0  0.9290124849999999  0.89653062  0.4601644739025234  1.0000
  Ir  Ir2       1.0  0.5540124849999999  0.56319729  0.4729743675239425  1.0000
  Ir  Ir3       1.0  0.17901248499999992  0.22986396  0.4857842580709874  1.0000
  Ir  Ir4       1.0  0.4915124849999999  0.06319729  0.49218920641888403  1.0000
  Ir  Ir5       1.0  0.2415124849999999  0.7298639600000001  0.4665694191760459  1.0000
  Ir  Ir6       1.0  0.8665124849999998  0.39653062  0.47937931279746493  1.0000
  Ir  Ir7       1.0  0.8040124849999999  0.89653062  0.49859415169240645  1.0000
  Ir  Ir8       1.0  0.44107399499999983  0.58408237  0.513335256523362  1.0000
  Ir  Ir9       1.0  0.048801804999999907  0.2373625  0.5228209799415819  1.0000
  Ir  Ir10      1.0  0.3556238949999999  0.08453265  0.5299465862023882  1.0000
  Ir  Ir11      1.0  0.12096534499999988  0.7281663500000001  0.5053520474242481  1.0000
  Ir  Ir12      1.0  0.7459435149999999  0.40716595  0.5188734588440114  1.0000
  Sn  Sn1       1.0  0.1269291549999999  0.9243084  0.4847167677044627  1.0000
  Sn  Sn2       1.0  0.8769291549999997  0.5909750699999999  0.45909698353599865  1.0000
  Sn  Sn3       1.0  0.5019291549999999  0.25764173  0.47190687408304355  1.0000
  Sn  Sn4       1.0  0.6060958249999998  0.8687528499999999  0.4740418578904672  1.0000
  Sn  Sn5       1.0  0.2310958249999999  0.53541951  0.48685175151188637  1.0000
  Sn  Sn6       1.0  0.9810958249999999  0.20208618  0.4612319642690481  1.0000
  Sn  Sn7       1.0  0.018904174999999846  0.9368027099999999  0.5224864326873627  1.0000
  Sn  Sn8       1.0  0.7519291549999997  0.5909750699999999  0.49752666132588175  1.0000
  Sn  Sn9       1.0  0.38041108499999987  0.26591669  0.5102015468776637  1.0000
  Sn  Sn10      1.0  0.4781638149999998  0.8889875600000001  0.5134894548369003  1.0000
  Sn  Sn11      1.0  0.10789047499999989  0.52948172  0.5245842934260413  1.0000
  Sn  Sn12      1.0  0.8560958249999998  0.20208618  0.4996616420589312  1.0000
  C   C1        1.0  0.618248475  0.5523256400000001  0.5295258273462023  1.0000
  O   O1        1.0  0.6393305349999999  0.5986718099999999  0.5409030164640013  1.0000
