data_image0
_chemical_formula_structural       COSb16Rh8
_chemical_formula_sum              "C1 O1 Sb16 Rh8"
_cell_length_a       9.494629561283002
_cell_length_b       6.821044685222605
_cell_length_c       107.97851824
_cell_angle_alpha    71.61793236185025
_cell_angle_beta     89.52212485108855
_cell_angle_gamma    71.6179323906291

_space_group_name_H-M_alt    "P 1"
_space_group_IT_number       1

loop_
  _space_group_symop_operation_xyz
  'x, y, z'

loop_
  _atom_site_type_symbol
  _atom_site_label
  _atom_site_symmetry_multiplicity
  _atom_site_fract_x
  _atom_site_fract_y
  _atom_site_fract_z
  _atom_site_occupancy
  C   C1        1.0  0.35092804000000005  0.51870527  0.5413897738091659  1.0000
  O   O1        1.0  0.34348919000000006  0.3789584900000001  0.550753995222001  1.0000
  Sb  Sb1       1.0  0.35948758000000003  0.33002727000000004  0.44924600477799914  1.0000
  Sb  Sb2       1.0  0.8594875800000001  0.3300272700000002  0.49321136805005583  1.0000
  Sb  Sb3       1.0  0.7682897600000002  0.1662177500000001  0.5299557756448124  1.0000
  Sb  Sb4       1.0  0.26478540000000006  0.18073381000000002  0.4848841383159589  1.0000
  Sb  Sb5       1.0  0.65332958  0.6807338100000001  0.4507191645154577  1.0000
  Sb  Sb6       1.0  0.15332958000000002  0.6807338100000001  0.49468452778751437  1.0000
  Sb  Sb7       1.0  0.24803176000000005  0.83002727  0.4590463977667836  1.0000
  Sb  Sb8       1.0  0.74304211  0.8279838400000001  0.5027864895518924  1.0000
  Sb  Sb9       1.0  0.4118417200000001  0.11663985000000006  0.5173040846414435  1.0000
  Sb  Sb10      1.0  0.90015224  0.13226347000000013  0.4725783738252727  1.0000
  Sb  Sb11      1.0  0.4994359700000001  0.37849761000000015  0.48130846345887507  1.0000
  Sb  Sb12      1.0  0.98661881  0.39469550000000014  0.5245796523343857  1.0000
  Sb  Sb13      1.0  0.61266492  0.8784976100000002  0.4713521587402408  1.0000
  Sb  Sb14      1.0  0.10230819000000003  0.88336015  0.5153277008732021  1.0000
  Sb  Sb15      1.0  0.5055040800000001  0.6326600500000001  0.506976195224121  1.0000
  Sb  Sb16      1.0  0.01338119000000004  0.6322634700000002  0.4626220691066384  1.0000
  Rh  Rh1       1.0  0.64365873  0.21750459000000008  0.5063040738537922  1.0000
  Rh  Rh2       1.0  0.14189701000000002  0.21808532000000005  0.4619424454867208  1.0000
  Rh  Rh3       1.0  0.6203940000000001  0.2926757600000001  0.4600516710738427  1.0000
  Rh  Rh4       1.0  0.12738525000000003  0.28566584  0.5046849948342482  1.0000
  Rh  Rh5       1.0  0.37092015000000006  0.7926757600000002  0.48198808707879265  1.0000
  Rh  Rh6       1.0  0.8699569300000001  0.8030862100000002  0.5241063634401474  1.0000
  Rh  Rh7       1.0  0.37013390000000007  0.7421079400000002  0.5263593737568676  1.0000
  Rh  Rh8       1.0  0.89242316  0.71808532  0.48387886149167075  1.0000
