data_image0
_chemical_formula_structural       COMnSbRh2MnSbRh2MnSbRh2MnSbRh2MnSbRh2MnSbRh2MnSbRh2MnSbRh2
_chemical_formula_sum              "C1 O1 Mn8 Sb8 Rh16"
_cell_length_a       7.22416074
_cell_length_b       8.2109521
_cell_length_c       98.73833235000001
_cell_angle_alpha    90.0
_cell_angle_beta     90.0
_cell_angle_gamma    90.0

_space_group_name_H-M_alt    "P 1"
_space_group_IT_number       1

loop_
  _space_group_symop_operation_xyz
  'x, y, z'

loop_
  _atom_site_type_symbol
  _atom_site_label
  _atom_site_symmetry_multiplicity
  _atom_site_fract_x
  _atom_site_fract_y
  _atom_site_fract_z
  _atom_site_occupancy
  C   C1        1.0  0.50255948  0.60830656  0.5354124287444698  1.0000
  O   O1        1.0  0.49568054999999994  0.6083068200000001  0.5472623537155281  1.0000
  Mn  Mn1       1.0  0.23340261999999995  0.10830563000000004  0.49229440522414036  1.0000
  Sb  Sb1       1.0  0.22737256999999997  0.3849784200000001  0.5147785222629122  1.0000
  Rh  Rh1       1.0  0.4822433  0.36968835000000005  0.4938695014135032  1.0000
  Rh  Rh2       1.0  0.44010627999999996  0.10830639000000003  0.5118020405240996  1.0000
  Mn  Mn2       1.0  0.22869560999999997  0.10830646000000003  0.45273764628447183  1.0000
  Sb  Sb2       1.0  0.22869560999999997  0.35830646000000005  0.47352732565693856  1.0000
  Rh  Rh3       1.0  0.47869560999999994  0.35830646000000005  0.45273764628447183  1.0000
  Rh  Rh4       1.0  0.47869560999999994  0.10830646000000003  0.47352732565693856  1.0000
  Mn  Mn3       1.0  0.23000276999999997  0.6083064400000001  0.49500200118229404  1.0000
  Sb  Sb3       1.0  0.22737250999999997  0.83163406  0.5147784698729265  1.0000
  Rh  Rh5       1.0  0.48224219999999995  0.8469245100000001  0.4938694955923937  1.0000
  Rh  Rh6       1.0  0.52384751  0.6083064300000001  0.5163850553542689  1.0000
  Mn  Mn4       1.0  0.22869560999999997  0.6083064600000001  0.45273764628447183  1.0000
  Sb  Sb4       1.0  0.22869560999999997  0.8583064600000001  0.47352732565693856  1.0000
  Rh  Rh7       1.0  0.47869560999999994  0.8583064600000001  0.45273764628447183  1.0000
  Rh  Rh8       1.0  0.47869560999999994  0.6083064600000001  0.47352732565693856  1.0000
  Mn  Mn5       1.0  0.7285416899999999  0.10830655000000004  0.49444815462702063  1.0000
  Sb  Sb5       1.0  0.73199059  0.3249180300000001  0.5149237007344847  1.0000
  Rh  Rh9       1.0  0.98066389  0.3540741400000001  0.4932285827019435  1.0000
  Rh  Rh10      1.0  0.019336109999999962  0.10830623000000004  0.5121976518591342  1.0000
  Mn  Mn6       1.0  0.7286956099999999  0.10830646000000003  0.45273764628447183  1.0000
  Sb  Sb6       1.0  0.7286956099999999  0.35830646000000005  0.47352732565693856  1.0000
  Rh  Rh11      1.0  0.9786956099999999  0.35830646000000005  0.45273764628447183  1.0000
  Rh  Rh12      1.0  0.9786956099999999  0.10830646000000003  0.47352732565693856  1.0000
  Mn  Mn7       1.0  0.7259382000000001  0.60830675  0.49290094737339574  1.0000
  Sb  Sb7       1.0  0.73198679  0.89169437  0.5149236192389514  1.0000
  Rh  Rh13      1.0  0.98066296  0.86253778  0.4932286088969363  1.0000
  Rh  Rh14      1.0  0.9383825699999999  0.6083058800000001  0.5115163113630277  1.0000
  Mn  Mn8       1.0  0.7286956099999999  0.6083064600000001  0.45273764628447183  1.0000
  Sb  Sb8       1.0  0.7286956099999999  0.8583064600000001  0.47352732565693856  1.0000
  Rh  Rh15      1.0  0.9786956099999999  0.8583064600000001  0.45273764628447183  1.0000
  Rh  Rh16      1.0  0.9786956099999999  0.6083064600000001  0.47352732565693856  1.0000
