data_image0
_chemical_formula_structural       COIn2As2Pd10In2As2Pd10
_chemical_formula_sum              "C1 O1 In4 As4 Pd20"
_cell_length_a       5.76687048
_cell_length_b       7.16542719
_cell_length_c       104.60122286000001
_cell_angle_alpha    90.0
_cell_angle_beta     90.0
_cell_angle_gamma    90.0

_space_group_name_H-M_alt    "P 1"
_space_group_IT_number       1

loop_
  _space_group_symop_operation_xyz
  'x, y, z'

loop_
  _atom_site_type_symbol
  _atom_site_label
  _atom_site_symmetry_multiplicity
  _atom_site_fract_x
  _atom_site_fract_y
  _atom_site_fract_z
  _atom_site_occupancy
  C   C1        1.0  0.024800039999999992  0.6430658250000001  0.549792266294698  1.0000
  O   O1        1.0  0.05541303999999999  0.6430801850000001  0.56095507248726  1.0000
  In  In1       1.0  0.7079362699999999  0.14305059500000003  0.49417688570896784  1.0000
  In  In2       1.0  0.21493210999999998  0.143066765  0.5226086361630822  1.0000
  As  As1       1.0  0.70526852  0.6430621150000001  0.5212946717402762  1.0000
  As  As2       1.0  0.20793626999999998  0.6430505950000001  0.49417688570896784  1.0000
  Pd  Pd1       1.0  0.46810842999999996  0.853173665  0.5345747271477252  1.0000
  Pd  Pd2       1.0  0.9587773799999999  0.855298705  0.5080175339161715  1.0000
  Pd  Pd3       1.0  0.46812563  0.43297724500000007  0.5345738902445665  1.0000
  Pd  Pd4       1.0  0.95881153  0.43079504500000004  0.5080187677694453  1.0000
  Pd  Pd5       1.0  0.97515767  0.8358530350000001  0.5355418762551512  1.0000
  Pd  Pd6       1.0  0.45678582  0.8569494049999999  0.5078254001368115  1.0000
  Pd  Pd7       1.0  0.97519996  0.45027648500000006  0.5355410922786743  1.0000
  Pd  Pd8       1.0  0.45683452  0.4291701050000001  0.5078245103069706  1.0000
  Pd  Pd9       1.0  0.72565836  0.14305735500000002  0.5222356717588836  1.0000
  Pd  Pd10      1.0  0.20793626999999998  0.14305059500000003  0.49417688570896784  1.0000
  In  In3       1.0  0.7079362699999999  0.14305059500000003  0.4390449275127399  1.0000
  In  In4       1.0  0.20793626999999998  0.14305059500000003  0.46661090661085386  1.0000
  As  As3       1.0  0.7079362699999999  0.6430505950000001  0.46661090661085386  1.0000
  As  As4       1.0  0.20793626999999998  0.6430505950000001  0.4390449275127399  1.0000
  Pd  Pd11      1.0  0.45793627000000003  0.8551248149999999  0.4803938978138697  1.0000
  Pd  Pd12      1.0  0.95793627  0.8551248149999999  0.45282791540783807  1.0000
  Pd  Pd13      1.0  0.45793627000000003  0.430976375  0.4803938978138697  1.0000
  Pd  Pd14      1.0  0.95793627  0.430976375  0.45282791540783807  1.0000
  Pd  Pd15      1.0  0.95793627  0.8551248149999999  0.4803938978138697  1.0000
  Pd  Pd16      1.0  0.45793627000000003  0.8551248149999999  0.45282791540783807  1.0000
  Pd  Pd17      1.0  0.95793627  0.430976375  0.4803938978138697  1.0000
  Pd  Pd18      1.0  0.45793627000000003  0.430976375  0.45282791540783807  1.0000
  Pd  Pd19      1.0  0.7079362699999999  0.14305059500000003  0.46661090661085386  1.0000
  Pd  Pd20      1.0  0.20793626999999998  0.14305059500000003  0.4390449275127399  1.0000
