data_image0
_chemical_formula_structural       COAl8Ni24
_chemical_formula_sum              "C1 O1 Al8 Ni24"
_cell_length_a       5.08674224
_cell_length_b       6.22996147
_cell_length_c       105.24198403
_cell_angle_alpha    90.0
_cell_angle_beta     90.0
_cell_angle_gamma    90.0

_space_group_name_H-M_alt    "P 1"
_space_group_IT_number       1

loop_
  _space_group_symop_operation_xyz
  'x, y, z'

loop_
  _atom_site_type_symbol
  _atom_site_label
  _atom_site_symmetry_multiplicity
  _atom_site_fract_x
  _atom_site_fract_y
  _atom_site_fract_z
  _atom_site_occupancy
  C   C1        1.0  0.500000065  0.544213715  0.5507546781465257  1.0000
  O   O1        1.0  0.500000425  0.48827065500000005  0.5616939434107641  1.0000
  Al  Al1       1.0  9.250000000010705e-07  0.165776475  0.48714071068922593  1.0000
  Al  Al2       1.0  0.5000009249999999  0.165776475  0.4452824347896167  1.0000
  Al  Al3       1.0  9.250000000010705e-07  0.8324431449999999  0.4592351945390405  1.0000
  Al  Al4       1.0  0.5000009249999999  0.49910981500000007  0.4731879542884643  1.0000
  Al  Al5       1.0  0.9999997949999999  0.8309567950000001  0.5413606396007491  1.0000
  Al  Al6       1.0  0.5000009249999999  0.8324431449999999  0.5010934704386497  1.0000
  Al  Al7       1.0  6.750000000010705e-07  0.49975502500000013  0.5151231556531907  1.0000
  Al  Al8       1.0  0.500001265  0.16443701500000002  0.5290192995729636  1.0000
  Ni  Ni1       1.0  9.250000000010705e-07  0.165776475  0.4452824347896167  1.0000
  Ni  Ni2       1.0  0.5000009249999999  0.8324431449999999  0.4592351945390405  1.0000
  Ni  Ni3       1.0  9.250000000010705e-07  0.49910981500000007  0.4731879542884643  1.0000
  Ni  Ni4       1.0  0.5000009249999999  0.165776475  0.48714071068922593  1.0000
  Ni  Ni5       1.0  0.250000925  0.49910981500000007  0.45225881633865966  1.0000
  Ni  Ni6       1.0  0.750000925  0.165776475  0.4662115727394213  1.0000
  Ni  Ni7       1.0  0.250000925  0.8324431449999999  0.480164332488845  1.0000
  Ni  Ni8       1.0  0.750000925  0.8324431449999999  0.4383060565892359  1.0000
  Ni  Ni9       1.0  0.750000925  0.49910981500000007  0.45225881633865966  1.0000
  Ni  Ni10      1.0  0.250000925  0.165776475  0.4662115727394213  1.0000
  Ni  Ni11      1.0  0.750000925  0.8324431449999999  0.480164332488845  1.0000
  Ni  Ni12      1.0  0.250000925  0.8324431449999999  0.4383060565892359  1.0000
  Ni  Ni13      1.0  9.250000000010705e-07  0.8324431449999999  0.5010934704386497  1.0000
  Ni  Ni14      1.0  0.5000010249999999  0.49822065500000007  0.515362193197874  1.0000
  Ni  Ni15      1.0  2.050000000010706e-07  0.16759447500000002  0.5292437135103787  1.0000
  Ni  Ni16      1.0  0.499999545  0.8195716049999999  0.542092449512633  1.0000
  Ni  Ni17      1.0  0.250000925  0.165776475  0.5080698486390304  1.0000
  Ni  Ni18      1.0  0.7492018049999999  0.835562985  0.5216969242126587  1.0000
  Ni  Ni19      1.0  0.247787755  0.490913815  0.5370178367788404  1.0000
  Ni  Ni20      1.0  0.750000925  0.49910981500000007  0.4941170922382688  1.0000
  Ni  Ni21      1.0  0.750000925  0.165776475  0.5080698486390304  1.0000
  Ni  Ni22      1.0  0.25079836499999997  0.835562745  0.5216969744425898  1.0000
  Ni  Ni23      1.0  0.7522125049999999  0.49091370500000003  0.5370180075606061  1.0000
  Ni  Ni24      1.0  0.250000925  0.49910981500000007  0.4941170922382688  1.0000
