data_image0
_chemical_formula_structural       COAl4Cu4Se8
_chemical_formula_sum              "C1 O1 Al4 Cu4 Se8"
_cell_length_a       6.93176817
_cell_length_b       6.931768176659688
_cell_length_c       102.28779510999999
_cell_angle_alpha    90.0
_cell_angle_beta     90.0
_cell_angle_gamma    108.78306494180951

_space_group_name_H-M_alt    "P 1"
_space_group_IT_number       1

loop_
  _space_group_symop_operation_xyz
  'x, y, z'

loop_
  _atom_site_type_symbol
  _atom_site_label
  _atom_site_symmetry_multiplicity
  _atom_site_fract_x
  _atom_site_fract_y
  _atom_site_fract_z
  _atom_site_occupancy
  C   C1        1.0  0.52563812  0.42921487499999994  0.5321043292741657  1.0000
  O   O1        1.0  0.5394832500000001  0.39702019499999996  0.5430348342046456  1.0000
  Al  Al1       1.0  0.003386030000000036  0.011366964999999982  0.4767661737121639  1.0000
  Al  Al2       1.0  0.47740933  0.5382857050000001  0.5132278631111963  1.0000
  Al  Al3       1.0  0.50338603  0.011366964999999982  0.45703764996986546  1.0000
  Al  Al4       1.0  0.9966139700000001  0.5078594049999999  0.4964241419404324  1.0000
  Cu  Cu1       1.0  0.9393869200000001  0.02732264499999998  0.5104271608454102  1.0000
  Cu  Cu2       1.0  0.50338603  0.511366965  0.4767661737121639  1.0000
  Cu  Cu3       1.0  0.0033860300000000437  0.511366965  0.45703764996986546  1.0000
  Cu  Cu4       1.0  0.5115622400000001  0.988633035  0.4984864797417935  1.0000
  Se  Se1       1.0  0.12829651000000009  0.8794886350000001  0.49620382641353356  1.0000
  Se  Se2       1.0  0.6274675099999999  0.385448445  0.45696516579535434  1.0000
  Se  Se3       1.0  0.11206869000000001  0.38799222499999997  0.5162690450334276  1.0000
  Se  Se4       1.0  0.6293045500000001  0.887285485  0.47669368953765284  1.0000
  Se  Se5       1.0  0.6091589500000001  0.8824598249999999  0.5194657161318226  1.0000
  Se  Se6       1.0  0.12746751000000003  0.385448445  0.476838657886675  1.0000
  Se  Se7       1.0  0.12930455000000005  0.887285485  0.4571101341443765  1.0000
  Se  Se8       1.0  0.6239134000000001  0.373599075  0.4968592111288166  1.0000
