data_image0
_chemical_formula_structural       CORe12Ni4Re12Ni4
_chemical_formula_sum              "C1 O1 Re24 Ni8"
_cell_length_a       6.978945955099716
_cell_length_b       5.4307578555348694
_cell_length_c       111.87367573
_cell_angle_alpha    67.10263882360614
_cell_angle_beta     77.81461576274306
_cell_angle_gamma    67.10263880792434

_space_group_name_H-M_alt    "P 1"
_space_group_IT_number       1

loop_
  _space_group_symop_operation_xyz
  'x, y, z'

loop_
  _atom_site_type_symbol
  _atom_site_label
  _atom_site_symmetry_multiplicity
  _atom_site_fract_x
  _atom_site_fract_y
  _atom_site_fract_z
  _atom_site_occupancy
  C   C1        1.0  0.6651188600000001  0.9055483599999999  0.556997864476405  1.0000
  O   O1        1.0  0.7952637900000001  0.77089769  0.5652280452494183  1.0000
  Re  Re1       1.0  0.9582522400000001  0.61808724  0.5127448658501323  1.0000
  Re  Re2       1.0  0.45394143  0.6344532500000002  0.5428315038496893  1.0000
  Re  Re3       1.0  0.20377468000000004  0.62358692  0.5285046046678563  1.0000
  Re  Re4       1.0  0.7084955300000001  0.6180872400000003  0.4971644476739674  1.0000
  Re  Re5       1.0  0.9582522400000001  0.11857382999999999  0.5127448658501322  1.0000
  Re  Re6       1.0  0.45496242  0.09445164000000005  0.5443847015508703  1.0000
  Re  Re7       1.0  0.06238410000000002  0.29274959  0.5481641641374168  1.0000
  Re  Re8       1.0  0.54174776  0.28507829999999995  0.5179535149604998  1.0000
  Re  Re9       1.0  0.80345713  0.2765046700000001  0.5340287052455884  1.0000
  Re  Re10      1.0  0.29150447  0.28507829999999995  0.5023427452620239  1.0000
  Re  Re11      1.0  0.05213447000000002  0.7905247500000002  0.5486273832394244  1.0000
  Re  Re12      1.0  0.54174776  0.7845917100000002  0.5179535149604999  1.0000
  Ni  Ni1       1.0  0.79525482  0.7842758700000001  0.5331733717239441  1.0000
  Ni  Ni2       1.0  0.29166667  0.7849161000000002  0.5023528624361276  1.0000
  Ni  Ni3       1.0  0.20673843000000003  0.12179010000000004  0.5280466406573922  1.0000
  Ni  Ni4       1.0  0.7083333300000001  0.11824944000000001  0.49715433049986374  1.0000
  Re  Re13      1.0  0.9582522400000001  0.61808724  0.45036249010085055  1.0000
  Re  Re14      1.0  0.45825224000000003  0.6180872400000003  0.48155367797549137  1.0000
  Re  Re15      1.0  0.20849553000000004  0.61808724  0.4659732597993266  1.0000
  Re  Re16      1.0  0.7084955300000001  0.6180872400000003  0.4347820719246856  1.0000
  Re  Re17      1.0  0.9582522400000001  0.11857382999999999  0.45036249010085055  1.0000
  Re  Re18      1.0  0.45825224000000003  0.11857383000000003  0.4815536779754913  1.0000
  Re  Re19      1.0  0.04174776000000002  0.28507829999999995  0.4867623270858589  1.0000
  Re  Re20      1.0  0.54174776  0.28507829999999995  0.4555711392112181  1.0000
  Re  Re21      1.0  0.79150447  0.2850783  0.4711515536444403  1.0000
  Re  Re22      1.0  0.29150447  0.28507829999999995  0.43996036576979947  1.0000
  Re  Re23      1.0  0.04174776000000002  0.78459171  0.486762327085859  1.0000
  Re  Re24      1.0  0.54174777  0.78459171  0.4555711392112181  1.0000
  Ni  Ni5       1.0  0.7916666700000001  0.7849161000000002  0.4711616745614868  1.0000
  Ni  Ni6       1.0  0.29166667  0.7849161000000002  0.4399704829439032  1.0000
  Ni  Ni7       1.0  0.20833333000000004  0.11824944000000001  0.46596314262522276  1.0000
  Ni  Ni8       1.0  0.7083333300000001  0.11824944000000001  0.43477195475058195  1.0000
