data_image0
_chemical_formula_structural       COCu4Se8Sn2
_chemical_formula_sum              "C1 O1 Cu4 Se8 Sn2"
_cell_length_a       6.76041807
_cell_length_b       6.7604180736218185
_cell_length_c       102.28172757
_cell_angle_alpha    90.0
_cell_angle_beta     90.0
_cell_angle_gamma    106.70524413825763

_space_group_name_H-M_alt    "P 1"
_space_group_IT_number       1

loop_
  _space_group_symop_operation_xyz
  'x, y, z'

loop_
  _atom_site_type_symbol
  _atom_site_label
  _atom_site_symmetry_multiplicity
  _atom_site_fract_x
  _atom_site_fract_y
  _atom_site_fract_z
  _atom_site_occupancy
  C   C1        1.0  0.8636675499999998  0.291398105  0.5365489815523103  1.0000
  O   O1        1.0  0.86127611  0.272756585  0.5477109515055821  1.0000
  Cu  Cu1       1.0  0.5038129299999999  0.180308935  0.45458026127369  1.0000
  Cu  Cu2       1.0  0.9961870699999998  0.682521935  0.4949313856860641  1.0000
  Cu  Cu3       1.0  0.0038129300000000056  0.680308935  0.45458026127369  1.0000
  Cu  Cu4       1.0  0.50208217  0.189349195  0.4949139731632963  1.0000
  Se  Se1       1.0  0.3546754999999999  0.277709025  0.5145808006006076  1.0000
  Se  Se2       1.0  0.8529863199999999  0.773059605  0.47430624773343355  1.0000
  Se  Se3       1.0  0.8773987399999998  0.307045255  0.49567718578213404  1.0000
  Se  Se4       1.0  0.37560157  0.808520295  0.4568714708968043  1.0000
  Se  Se5       1.0  0.8756015699999999  0.308520295  0.45228904849441787  1.0000
  Se  Se6       1.0  0.36970928  0.815640975  0.4906537218840861  1.0000
  Se  Se7       1.0  0.9058445099999999  0.819691065  0.5149754497322737  1.0000
  Se  Se8       1.0  0.41106226  0.33113554500000003  0.47430624773343355  1.0000
  Sn  Sn1       1.0  0.0038129299999999974  0.180308935  0.47430624773343355  1.0000
  Sn  Sn2       1.0  0.5464290399999999  0.6369838549999999  0.5075938120103568  1.0000
