data_image0
_chemical_formula_structural       COSi16Se32
_chemical_formula_sum              "C1 O1 Si16 Se32"
_cell_length_a       8.944263040787808
_cell_length_b       22.76870902130989
_cell_length_c       105.77705218
_cell_angle_alpha    100.09310764798323
_cell_angle_beta     83.81331515868786
_cell_angle_gamma    79.90689235235317

_space_group_name_H-M_alt    "P 1"
_space_group_IT_number       1

loop_
  _space_group_symop_operation_xyz
  'x, y, z'

loop_
  _atom_site_type_symbol
  _atom_site_label
  _atom_site_symmetry_multiplicity
  _atom_site_fract_x
  _atom_site_fract_y
  _atom_site_fract_z
  _atom_site_occupancy
  C   C1        1.0  0.19204323500000006  0.11082776500000001  0.5438542656828987  1.0000
  O   O1        1.0  0.163839225  0.119068125  0.5549503821996272  1.0000
  Si  Si1       1.0  0.37518143499999995  0.502915435  0.4931114098068633  1.0000
  Si  Si2       1.0  0.6251814349999999  0.0029154350000000096  0.47197198764330267  1.0000
  Si  Si3       1.0  0.12266342499999999  0.997084565  0.5130755815673563  1.0000
  Si  Si4       1.0  0.875181435  0.502915435  0.450832565479742  1.0000
  Si  Si5       1.0  0.515122225  0.7570082149999999  0.5270463956783404  1.0000
  Si  Si6       1.0  0.7565802249999999  0.251699915  0.503699906224755  1.0000
  Si  Si7       1.0  0.250181435  0.252915435  0.46140227656152233  1.0000
  Si  Si8       1.0  0.0001814350000000258  0.752915435  0.4825416987250829  1.0000
  Si  Si9       1.0  0.753272215  0.7562878350000001  0.5042704135677977  1.0000
  Si  Si10      1.0  0.00018143500000000084  0.252915435  0.4825416987250829  1.0000
  Si  Si11      1.0  0.5076190849999999  0.256203545  0.5249215387555328  1.0000
  Si  Si12      1.0  0.25018143499999995  0.752915435  0.4614022765615224  1.0000
  Si  Si13      1.0  0.625181435  0.502915435  0.47197198764330267  1.0000
  Si  Si14      1.0  0.8751814349999999  0.0029154350000000096  0.45083256547974204  1.0000
  Si  Si15      1.0  0.375181435  0.0029154350000000096  0.4931114098068633  1.0000
  Si  Si16      1.0  0.11824153500000005  0.506731345  0.513515359341432  1.0000
  Se  Se1       1.0  0.7079870350000002  0.8140669049999999  0.5249109588975285  1.0000
  Se  Se2       1.0  0.9483641949999999  0.308391595  0.5034895841946115  1.0000
  Se  Se3       1.0  0.443572005  0.308797745  0.4613407929749481  1.0000
  Se  Se4       1.0  0.193572005  0.808797745  0.48248021513850875  1.0000
  Se  Se5       1.0  0.9391788249999999  0.987241875  0.5261103454472456  1.0000
  Se  Se6       1.0  0.181790865  0.447033125  0.4931728933934376  1.0000
  Se  Se7       1.0  0.6817908649999999  0.447033125  0.45089404906631636  1.0000
  Se  Se8       1.0  0.431790865  0.947033125  0.47203347122987693  1.0000
  Se  Se9       1.0  0.373710455  0.9482069550000001  0.5096582671380837  1.0000
  Se  Se10      1.0  0.624454315  0.447033125  0.4883246497867599  1.0000
  Se  Se11      1.0  0.12445431500000005  0.447033125  0.4460458054596386  1.0000
  Se  Se12      1.0  0.874454315  0.947033125  0.4671852276231992  1.0000
  Se  Se13      1.0  0.750908555  0.808797745  0.487328462127494  1.0000
  Se  Se14      1.0  0.0009085550000000182  0.308797745  0.4661890399639334  1.0000
  Se  Se15      1.0  0.5094156049999999  0.310157155  0.5086583657051322  1.0000
  Se  Se16      1.0  0.25090855500000003  0.808797745  0.4450496178003728  1.0000
  Se  Se17      1.0  0.818572005  0.558797745  0.4719105040567284  1.0000
  Se  Se18      1.0  0.068572005  0.058797745000000005  0.4507710818931678  1.0000
  Se  Se19      1.0  0.568572005  0.058797745000000005  0.49304992622028904  1.0000
  Se  Se20      1.0  0.316368525  0.5580661149999999  0.514272086391044  1.0000
  Se  Se21      1.0  0.5617602550000002  0.701468925  0.5055863003186349  1.0000
  Se  Se22      1.0  0.806790865  0.197033125  0.4826031823116573  1.0000
  Se  Se23      1.0  0.3295817149999999  0.258937295  0.5397427089536221  1.0000
  Se  Se24      1.0  0.056790865000000045  0.697033125  0.46146376014809665  1.0000
  Se  Se25      1.0  0.9998185649999999  0.698202745  0.498989809587493  1.0000
  Se  Se26      1.0  0.249454315  0.197033125  0.47775493870497954  1.0000
  Se  Se27      1.0  0.750716775  0.198067895  0.5204272130458711  1.0000
  Se  Se28      1.0  0.49945431499999987  0.697033125  0.45661551654141885  1.0000
  Se  Se29      1.0  0.9283039150000002  0.513641695  0.5275420660846164  1.0000
  Se  Se30      1.0  0.12348608500000004  0.05617258500000001  0.4976638165017077  1.0000
  Se  Se31      1.0  0.625908555  0.058797745000000005  0.4556193288821531  1.0000
  Se  Se32      1.0  0.3759085549999999  0.558797745  0.4767587510457137  1.0000
