data_image0
_chemical_formula_structural       CONi4Zn12
_chemical_formula_sum              "C1 O1 Ni4 Zn12"
_cell_length_a       4.77772806
_cell_length_b       4.777728063927295
_cell_length_c       101.41804846
_cell_angle_alpha    90.0
_cell_angle_beta     90.0
_cell_angle_gamma    113.54087090863142

_space_group_name_H-M_alt    "P 1"
_space_group_IT_number       1

loop_
  _space_group_symop_operation_xyz
  'x, y, z'

loop_
  _atom_site_type_symbol
  _atom_site_label
  _atom_site_symmetry_multiplicity
  _atom_site_fract_x
  _atom_site_fract_y
  _atom_site_fract_z
  _atom_site_occupancy
  C   C1        1.0  0.2499961050000001  0.24999609500000003  0.5474604373339379  1.0000
  O   O1        1.0  0.2499963650000001  0.24999632500000002  0.5589972942336201  1.0000
  Ni  Ni1       1.0  0.749996515  0.749996525  0.4539105181619483  1.0000
  Ni  Ni2       1.0  0.24999651500000009  0.24999652500000002  0.479726149148836  1.0000
  Ni  Ni3       1.0  0.7500038950000001  0.750003905  0.5050533350123992  1.0000
  Ni  Ni4       1.0  0.2499970750000001  0.24999705500000002  0.5300228184889991  1.0000
  Zn  Zn1       1.0  0.7499965150000002  0.24999652500000002  0.44100270576637984  1.0000
  Zn  Zn2       1.0  0.24999651500000009  0.749996525  0.4668183336553921  1.0000
  Zn  Zn3       1.0  0.24999651500000009  0.749996525  0.44100270576637984  1.0000
  Zn  Zn4       1.0  0.7499965150000002  0.24999652500000002  0.4668183336553921  1.0000
  Zn  Zn5       1.0  0.749996515  0.749996525  0.479726149148836  1.0000
  Zn  Zn6       1.0  0.24999651500000009  0.24999652500000002  0.4539105181619483  1.0000
  Zn  Zn7       1.0  0.7499965150000002  0.24999652500000002  0.49263396154440436  1.0000
  Zn  Zn8       1.0  0.24999654500000013  0.7499973050000001  0.5200742857133482  1.0000
  Zn  Zn9       1.0  0.24999651500000009  0.749996525  0.49263396154440436  1.0000
  Zn  Zn10      1.0  0.7499971950000001  0.249996515  0.5200742857133482  1.0000
  Zn  Zn11      1.0  0.7499957150000001  0.7499957250000001  0.5307535453550035  1.0000
  Zn  Zn12      1.0  0.2500012250000001  0.250001215  0.5054624094682915  1.0000
