data_image0
_chemical_formula_structural       COSi16Rh16
_chemical_formula_sum              "C1 O1 Si16 Rh16"
_cell_length_a       6.417975411154229
_cell_length_b       8.975349617584838
_cell_length_c       106.40836634
_cell_angle_alpha    74.22605026165226
_cell_angle_beta     68.15077135842193
_cell_angle_gamma    70.26647655194584

_space_group_name_H-M_alt    "P 1"
_space_group_IT_number       1

loop_
  _space_group_symop_operation_xyz
  'x, y, z'

loop_
  _atom_site_type_symbol
  _atom_site_label
  _atom_site_symmetry_multiplicity
  _atom_site_fract_x
  _atom_site_fract_y
  _atom_site_fract_z
  _atom_site_occupancy
  C   C1        1.0  0.0009073299999999156  0.15556445500000002  0.5440495115866271  1.0000
  O   O1        1.0  0.9538431099999999  0.147232175  0.5558859331072157  1.0000
  Si  Si1       1.0  0.25580397999999993  0.550211135  0.481000119858848  1.0000
  Si  Si2       1.0  0.017155049999999727  0.30157238500000005  0.5021913701043669  1.0000
  Si  Si3       1.0  0.5058039799999999  0.800211135  0.459615307982504  1.0000
  Si  Si4       1.0  0.7952592599999999  0.060412675  0.5218551425856125  1.0000
  Si  Si5       1.0  0.4073397300000001  0.939587325  0.5207659645039868  1.0000
  Si  Si6       1.0  0.15984613999999991  0.7113851550000001  0.45759574687832144  1.0000
  Si  Si7       1.0  0.6526060799999999  0.212196205  0.5004895770399572  1.0000
  Si  Si8       1.0  0.9098461400000001  0.461385155  0.47898055875466544  1.0000
  Si  Si9       1.0  0.6870218600000001  0.868993255  0.48688369064547243  1.0000
  Si  Si10      1.0  0.43769405999999994  0.608438505  0.5090162489862395  1.0000
  Si  Si11      1.0  0.9370218600000001  0.118993255  0.46549887876912843  1.0000
  Si  Si12      1.0  0.18702185999999996  0.36899325499999996  0.4441140668927843  1.0000
  Si  Si13      1.0  0.9925180599999999  0.6265544749999999  0.5157276138651028  1.0000
  Si  Si14      1.0  0.7286282599999999  0.39260303500000004  0.45171217609169695  1.0000
  Si  Si15      1.0  0.2286282599999999  0.892603035  0.494481799844385  1.0000
  Si  Si16      1.0  0.47862825999999986  0.14260303500000004  0.47309698796804095  1.0000
  Rh  Rh1       1.0  0.7961914099999999  0.921398415  0.5048838924196637  1.0000
  Rh  Rh2       1.0  0.5874093400000001  0.6699158749999999  0.5236950131033454  1.0000
  Rh  Rh3       1.0  0.046156890000000006  0.168905195  0.48337306754546455  1.0000
  Rh  Rh4       1.0  0.2961568899999999  0.418905195  0.4619882556691204  1.0000
  Rh  Rh5       1.0  0.8722788700000002  0.598093765  0.4971876423313032  1.0000
  Rh  Rh6       1.0  0.6468623899999998  0.33662496500000005  0.5175980697961737  1.0000
  Rh  Rh7       1.0  0.11949322999999988  0.842691095  0.4766076110680489  1.0000
  Rh  Rh8       1.0  0.36949322999999984  0.092691095  0.45522279919170483  1.0000
  Rh  Rh9       1.0  0.3790822299999999  0.09207915500000001  0.4976915506167875  1.0000
  Rh  Rh10      1.0  0.12302645999999993  0.829397995  0.5189151381194334  1.0000
  Rh  Rh11      1.0  0.62380987  0.341252215  0.4767306917804994  1.0000
  Rh  Rh12      1.0  0.8738098700000001  0.591252215  0.45534587990415537  1.0000
  Rh  Rh13      1.0  0.29085350999999987  0.42083428500000003  0.503955250976186  1.0000
  Rh  Rh14      1.0  0.0789063799999999  0.153143515  0.5249946006259849  1.0000
  Rh  Rh15      1.0  0.5418402499999998  0.6703440749999999  0.483249986833014  1.0000
  Rh  Rh16      1.0  0.79184025  0.920344075  0.46186517495667  1.0000
