data_image0
_chemical_formula_structural       COZn9Co3Zn9Co3
_chemical_formula_sum              "C1 O1 Zn18 Co6"
_cell_length_a       5.33755881
_cell_length_b       5.33755880933603
_cell_length_c       109.22288667000001
_cell_angle_alpha    90.0
_cell_angle_beta     90.0
_cell_angle_gamma    59.99999993390962

_space_group_name_H-M_alt    "P 1"
_space_group_IT_number       1

loop_
  _space_group_symop_operation_xyz
  'x, y, z'

loop_
  _atom_site_type_symbol
  _atom_site_label
  _atom_site_symmetry_multiplicity
  _atom_site_fract_x
  _atom_site_fract_y
  _atom_site_fract_z
  _atom_site_occupancy
  C   C1        1.0  0.105454955  0.10545494000000001  0.5524912497429281  1.0000
  O   O1        1.0  0.11147353500000001  0.11147351  0.5632681874191487  1.0000
  Zn  Zn1       1.0  0.9132853850000002  0.91328538  0.4566822964052904  1.0000
  Zn  Zn2       1.0  0.24661872500000004  0.24661871999999999  0.43673181258085125  1.0000
  Zn  Zn3       1.0  0.5799520550000001  0.57995205  0.47663277663864273  1.0000
  Zn  Zn4       1.0  0.41328538500000006  0.91328538  0.4566822964052904  1.0000
  Zn  Zn5       1.0  0.7466187250000001  0.24661871999999999  0.43673181258085125  1.0000
  Zn  Zn6       1.0  0.07995205499999997  0.57995205  0.47663277663864273  1.0000
  Zn  Zn7       1.0  0.9132853850000001  0.41328538  0.4566822964052904  1.0000
  Zn  Zn8       1.0  0.24661872499999996  0.7466187200000001  0.43673181258085125  1.0000
  Zn  Zn9       1.0  0.579952055  0.07995205  0.47663277663864273  1.0000
  Co  Co1       1.0  0.7466187250000001  0.7466187200000001  0.43673181258085125  1.0000
  Co  Co2       1.0  0.07995205500000002  0.07995205  0.47663277663864273  1.0000
  Co  Co3       1.0  0.413285385  0.41328538  0.4566822964052904  1.0000
  Zn  Zn10      1.0  0.9200479450000002  0.92004795  0.5165944156990259  1.0000
  Zn  Zn11      1.0  0.24661872500000004  0.24661871999999999  0.4965832604630819  1.0000
  Zn  Zn12      1.0  0.5920730750000001  0.5920730500000001  0.5368847348407146  1.0000
  Zn  Zn13      1.0  0.4221976250000001  0.9180549699999999  0.5163555581515367  1.0000
  Zn  Zn14      1.0  0.7466187250000001  0.24661871999999999  0.4965832604630819  1.0000
  Zn  Zn15      1.0  0.09269424500000005  0.5943202399999999  0.5369603020802705  1.0000
  Zn  Zn16      1.0  0.9180549850000002  0.42219763  0.5163555617426234  1.0000
  Zn  Zn17      1.0  0.24661872499999996  0.7466187200000001  0.4965832604630819  1.0000
  Zn  Zn18      1.0  0.594320215  0.09269425  0.5369603020802705  1.0000
  Co  Co4       1.0  0.7466187250000001  0.7466187200000001  0.4965832604630819  1.0000
  Co  Co5       1.0  0.09618088500000001  0.09618086  0.5366422538866431  1.0000
  Co  Co6       1.0  0.41874154500000005  0.41874155  0.5165184749864427  1.0000
