data_image0
_chemical_formula_structural       COZn12Co4Zn12Co4
_chemical_formula_sum              "C1 O1 Zn24 Co8"
_cell_length_a       8.797570957091015
_cell_length_b       5.19882552
_cell_length_c       106.39177864999999
_cell_angle_alpha    90.0
_cell_angle_beta     72.81431494144327
_cell_angle_gamma    72.81431494144327

_space_group_name_H-M_alt    "P 1"
_space_group_IT_number       1

loop_
  _space_group_symop_operation_xyz
  'x, y, z'

loop_
  _atom_site_type_symbol
  _atom_site_label
  _atom_site_symmetry_multiplicity
  _atom_site_fract_x
  _atom_site_fract_y
  _atom_site_fract_z
  _atom_site_occupancy
  C   C1        1.0  0.833492375  0.767459335  0.5504809444304699  1.0000
  O   O1        1.0  0.7715726450000001  0.8099725550000001  0.5618235136240458  1.0000
  Zn  Zn1       1.0  0.37046197500000005  0.9961911350000001  0.5184934991390037  1.0000
  Zn  Zn2       1.0  0.372289775  0.503808865  0.493149520399687  1.0000
  Zn  Zn3       1.0  0.3715920550000001  0.5169786350000001  0.5186437944327184  1.0000
  Zn  Zn4       1.0  0.372289775  0.0038088649999999656  0.493149520399687  1.0000
  Zn  Zn5       1.0  0.6128142050000002  0.1271901749999999  0.5243819215949294  1.0000
  Zn  Zn6       1.0  0.6222897750000002  0.6288088649999999  0.49925763415103136  1.0000
  Zn  Zn7       1.0  0.8777102250000001  0.2523039149999999  0.5044817219236469  1.0000
  Zn  Zn8       1.0  0.8681340450000001  0.7558522649999999  0.5300713333659598  1.0000
  Zn  Zn9       1.0  0.8775230250000001  0.7534295449999998  0.5052982126767426  1.0000
  Zn  Zn10      1.0  0.8669789950000001  0.25253480500000003  0.5286566988812977  1.0000
  Zn  Zn11      1.0  0.12979893500000003  0.38005221499999997  0.5122239356991518  1.0000
  Zn  Zn12      1.0  0.12228977500000004  0.8788088649999999  0.4870414032277983  1.0000
  Co  Co1       1.0  0.12228977500000004  0.378808865  0.4870414032277983  1.0000
  Co  Co2       1.0  0.12291322500000006  0.8820291449999998  0.511505614565975  1.0000
  Co  Co3       1.0  0.6222897750000002  0.1288088649999999  0.49925763415103136  1.0000
  Co  Co4       1.0  0.6397621950000001  0.6158416649999998  0.5218423590412375  1.0000
  Zn  Zn13      1.0  0.372289775  0.0038088649999999656  0.46871706197376495  1.0000
  Zn  Zn14      1.0  0.372289775  0.503808865  0.44428460012729853  1.0000
  Zn  Zn15      1.0  0.372289775  0.503808865  0.46871706197376495  1.0000
  Zn  Zn16      1.0  0.372289775  0.0038088649999999656  0.44428460012729853  1.0000
  Zn  Zn17      1.0  0.6222897750000002  0.1288088649999999  0.47482517572510935  1.0000
  Zn  Zn18      1.0  0.6222897750000002  0.6288088649999999  0.45039271729918723  1.0000
  Zn  Zn19      1.0  0.872289775  0.253808865  0.4565008310505317  1.0000
  Zn  Zn20      1.0  0.872289775  0.753808865  0.48093328947645386  1.0000
  Zn  Zn21      1.0  0.872289775  0.753808865  0.4565008310505317  1.0000
  Zn  Zn22      1.0  0.872289775  0.253808865  0.48093328947645386  1.0000
  Zn  Zn23      1.0  0.12228977500000004  0.378808865  0.4626089448018762  1.0000
  Zn  Zn24      1.0  0.12228977500000004  0.8788088649999999  0.43817648637595413  1.0000
  Co  Co5       1.0  0.12228977500000004  0.378808865  0.43817648637595413  1.0000
  Co  Co6       1.0  0.12228977500000004  0.8788088649999999  0.4626089448018762  1.0000
  Co  Co7       1.0  0.6222897750000002  0.1288088649999999  0.45039271729918723  1.0000
  Co  Co8       1.0  0.6222897750000002  0.6288088649999999  0.47482517572510935  1.0000
