data_image0
_chemical_formula_structural       COIn6Pt3
_chemical_formula_sum              "C1 O1 In6 Pt3"
_cell_length_a       4.61667784
_cell_length_b       4.616677839542159
_cell_length_c       103.92551507
_cell_angle_alpha    90.0
_cell_angle_beta     90.0
_cell_angle_gamma    120.00000000328056

_space_group_name_H-M_alt    "P 1"
_space_group_IT_number       1

loop_
  _space_group_symop_operation_xyz
  'x, y, z'

loop_
  _atom_site_type_symbol
  _atom_site_label
  _atom_site_symmetry_multiplicity
  _atom_site_fract_x
  _atom_site_fract_y
  _atom_site_fract_z
  _atom_site_occupancy
  C   C1        1.0  0.99315386  0.189593445  0.5531243185469776  1.0000
  O   O1        1.0  0.98149913  0.201246445  0.5643085709934393  1.0000
  In  In1       1.0  0.3494164599999999  0.833333335  0.49009820890987155  1.0000
  In  In2       1.0  0.01608312999999992  0.166666665  0.4538270233957998  1.0000
  In  In3       1.0  0.67394407  0.508806485  0.5280391352013744  1.0000
  In  In4       1.0  0.014573489999999915  0.168176115  0.5084565860007321  1.0000
  In  In5       1.0  0.6827498  0.499999995  0.4719626145206323  1.0000
  In  In6       1.0  0.3494164599999999  0.833333335  0.4356914290065606  1.0000
  Pt  Pt1       1.0  0.3494164599999999  0.833333335  0.4628948205904194  1.0000
  Pt  Pt2       1.0  0.006846139999999919  0.175903705  0.5347990686556022  1.0000
  Pt  Pt3       1.0  0.6827498  0.499999995  0.4991660061044912  1.0000
