data_image0
_chemical_formula_structural       COAl6Cu18
_chemical_formula_sum              "C1 O1 Al6 Cu18"
_cell_length_a       6.277811032922196
_cell_length_b       6.786584115309228
_cell_length_c       102.74077593999999
_cell_angle_alpha    80.55548318503448
_cell_angle_beta     87.24656078133624
_cell_angle_gamma    64.30710979649375

_space_group_name_H-M_alt    "P 1"
_space_group_IT_number       1

loop_
  _space_group_symop_operation_xyz
  'x, y, z'

loop_
  _atom_site_type_symbol
  _atom_site_label
  _atom_site_symmetry_multiplicity
  _atom_site_fract_x
  _atom_site_fract_y
  _atom_site_fract_z
  _atom_site_occupancy
  C   C1        1.0  0.34066344499999995  0.13651359499999996  0.5373774148045689  1.0000
  O   O1        1.0  0.320626835  0.13956362499999997  0.5486492324914539  1.0000
  Al  Al1       1.0  0.10955035499999997  0.530425215  0.4867536231450748  1.0000
  Al  Al2       1.0  0.4428836850000001  0.8637585449999999  0.460197488437104  1.0000
  Al  Al3       1.0  0.776522775  0.19848109499999997  0.5136495021826536  1.0000
  Al  Al4       1.0  0.549667455  0.813938535  0.5039725695284568  1.0000
  Al  Al5       1.0  0.887461755  0.14146951499999996  0.4779069022165171  1.0000
  Al  Al6       1.0  0.22079508499999995  0.474802845  0.45135076750854625  1.0000
  Cu  Cu1       1.0  0.9477413249999999  0.862237585  0.4994460241363973  1.0000
  Cu  Cu2       1.0  0.27687796499999995  0.19676141499999997  0.47350188301296925  1.0000
  Cu  Cu3       1.0  0.6066789250000001  0.5460003449999999  0.5244275637616539  1.0000
  Cu  Cu4       1.0  0.7201341450000001  0.475133315  0.4911586423486225  1.0000
  Cu  Cu5       1.0  0.053467484999999974  0.808466655  0.46460250764065186  1.0000
  Cu  Cu6       1.0  0.38921176499999993  0.13529687499999996  0.5191411411006653  1.0000
  Cu  Cu7       1.0  0.691984185  0.864703125  0.48011818171656767  1.0000
  Cu  Cu8       1.0  0.025317525000000018  0.19803646499999997  0.45356204700859704  1.0000
  Cu  Cu9       1.0  0.3568371450000001  0.5223583949999999  0.5066439914419798  1.0000
  Cu  Cu10      1.0  0.525977295  0.19671691499999994  0.49334368544877766  1.0000
  Cu  Cu11      1.0  0.8593106250000001  0.530050245  0.46678755074080697  1.0000
  Cu  Cu12      1.0  0.18833969499999997  0.859966745  0.5187934586109528  1.0000
  Cu  Cu13      1.0  0.9746824750000003  0.4713679749999999  0.5109628890972246  1.0000
  Cu  Cu14      1.0  0.30502792500000003  0.8071916049999999  0.4845423436450241  1.0000
  Cu  Cu15      1.0  0.6383612550000001  0.14052493499999996  0.4579862089370534  1.0000
  Cu  Cu16      1.0  0.8104138150000001  0.806065355  0.5226490557970598  1.0000
  Cu  Cu17      1.0  0.138529245  0.14621038499999997  0.498046639001777  1.0000
  Cu  Cu18      1.0  0.47103481500000005  0.475177815  0.4713168399128141  1.0000
