data_image0
_chemical_formula_structural       COCo4Sn8
_chemical_formula_sum              "C1 O1 Co4 Sn8"
_cell_length_a       5.318878809740936
_cell_length_b       5.318878801341055
_cell_length_c       103.63759877
_cell_angle_alpha    85.5828616657997
_cell_angle_beta     85.58286167278936
_cell_angle_gamma    74.44065722587652

_space_group_name_H-M_alt    "P 1"
_space_group_IT_number       1

loop_
  _space_group_symop_operation_xyz
  'x, y, z'

loop_
  _atom_site_type_symbol
  _atom_site_label
  _atom_site_symmetry_multiplicity
  _atom_site_fract_x
  _atom_site_fract_y
  _atom_site_fract_z
  _atom_site_occupancy
  C   C1        1.0  0.23616727000000004  0.32323162499999997  0.535044466561392  1.0000
  O   O1        1.0  0.21254946000000008  0.34474336499999997  0.5463056341865735  1.0000
  Co  Co1       1.0  0.9083809500000002  0.9024453050000001  0.47740346005838513  1.0000
  Co  Co2       1.0  0.27610144000000003  0.283023135  0.5183235344040233  1.0000
  Co  Co3       1.0  0.09870247000000004  0.09755469499999998  0.4970270363104287  1.0000
  Co  Co4       1.0  0.7208809500000001  0.7149453050000001  0.45711786922960995  1.0000
  Sn  Sn1       1.0  0.58375922  0.24658878499999998  0.46054137264579365  1.0000
  Sn  Sn2       1.0  0.95449732  0.631022865  0.5018144811857432  1.0000
  Sn  Sn3       1.0  0.4400244300000001  0.765323575  0.4808269634745688  1.0000
  Sn  Sn4       1.0  0.81398467  0.17407690499999998  0.5210082982704192  1.0000
  Sn  Sn5       1.0  0.04550268000000006  0.370801825  0.47397995664220155  1.0000
  Sn  Sn6       1.0  0.3997685900000001  0.7687169250000001  0.5151063403151102  1.0000
  Sn  Sn7       1.0  0.18923747000000002  0.8520670350000001  0.45369436581342626  1.0000
  Sn  Sn8       1.0  0.5657229400000002  0.22789277499999996  0.49387392521436724  1.0000
