data_image0
_chemical_formula_structural       COGa6Pd14
_chemical_formula_sum              "C1 O1 Ga6 Pd14"
_cell_length_a       5.570363889051266
_cell_length_b       7.227116739621853
_cell_length_c       38.17922515
_cell_angle_alpha    85.91963845933027
_cell_angle_beta     86.76536195273263
_cell_angle_gamma    104.3851000638607

_space_group_name_H-M_alt    "P 1"
_space_group_IT_number       1

loop_
  _space_group_symop_operation_xyz
  'x, y, z'

loop_
  _atom_site_type_symbol
  _atom_site_label
  _atom_site_symmetry_multiplicity
  _atom_site_fract_x
  _atom_site_fract_y
  _atom_site_fract_z
  _atom_site_occupancy
  C   C1        1.0  0.5901575000000001  0.6378175249999999  0.5971653452658919  1.0000
  O   O1        1.0  0.58446686  0.6798190749999999  0.6259798000258172  1.0000
  Ga  Ga1       1.0  0.06387017000000002  0.44308788500000007  0.4391981622911832  1.0000
  Ga  Ga2       1.0  0.40159198000000007  0.08494614500000003  0.4590979018963381  1.0000
  Ga  Ga3       1.0  0.7261483599999999  0.8012296250000001  0.41929842268602824  1.0000
  Ga  Ga4       1.0  0.10086358000000002  0.5726248150000001  0.5388002340939042  1.0000
  Ga  Ga5       1.0  0.40538251000000003  0.21060169500000006  0.5592485473203476  1.0000
  Ga  Ga6       1.0  0.7242746299999999  0.9316872650000001  0.5229355723126257  1.0000
  Pd  Pd1       1.0  0.56387017  0.44308788500000007  0.4391981622911832  1.0000
  Pd  Pd2       1.0  0.9254164099999999  0.056628155000000034  0.46067135363016204  1.0000
  Pd  Pd3       1.0  0.20232393000000004  0.8295476150000001  0.41772497095220434  1.0000
  Pd  Pd4       1.0  0.4489548  0.6161160050000001  0.3740201999741829  1.0000
  Pd  Pd5       1.0  0.67878554  0.14505976500000006  0.40019389354868284  1.0000
  Pd  Pd6       1.0  0.9193168399999999  0.534661475  0.37854612612876215  1.0000
  Pd  Pd7       1.0  0.20842350000000004  0.22651429500000006  0.3956679673941036  1.0000
  Pd  Pd8       1.0  0.61007086  0.5747029450000001  0.5487804500967448  1.0000
  Pd  Pd9       1.0  0.9361298299999999  0.20485332500000006  0.5616062828895876  1.0000
  Pd  Pd10      1.0  0.19474014000000003  0.9433718449999999  0.52394186431514  1.0000
  Pd  Pd11      1.0  0.4489548  0.7411160050000001  0.47820243103368354  1.0000
  Pd  Pd12      1.0  0.6923627  0.27523235500000004  0.5030242559779553  1.0000
  Pd  Pd13      1.0  0.9193168399999999  0.659661475  0.4827283571882628  1.0000
  Pd  Pd14      1.0  0.22770647000000005  0.3462115050000001  0.4988084928271079  1.0000
