data_image0
_chemical_formula_structural       COSb4Rh4Sb4Rh4
_chemical_formula_sum              "C1 O1 Sb8 Rh8"
_cell_length_a       6.08393784
_cell_length_b       6.45197129
_cell_length_c       101.47174536
_cell_angle_alpha    90.0
_cell_angle_beta     90.0
_cell_angle_gamma    90.0

_space_group_name_H-M_alt    "P 1"
_space_group_IT_number       1

loop_
  _space_group_symop_operation_xyz
  'x, y, z'

loop_
  _atom_site_type_symbol
  _atom_site_label
  _atom_site_symmetry_multiplicity
  _atom_site_fract_x
  _atom_site_fract_y
  _atom_site_fract_z
  _atom_site_occupancy
  C   C1        1.0  0.21386574  0.31742012000000003  0.5296328539835771  1.0000
  O   O1        1.0  0.21197171999999997  0.35084333000000006  0.5411639223702721  1.0000
  Sb  Sb1       1.0  0.8034215599999999  0.59498362  0.4782206272698425  1.0000
  Sb  Sb2       1.0  0.19657844  0.41191454000000005  0.45883607762972783  1.0000
  Sb  Sb3       1.0  0.30342156  0.91191454  0.4782206272698425  1.0000
  Sb  Sb4       1.0  0.69657844  0.09498362000000003  0.45883607762972783  1.0000
  Rh  Rh1       1.0  0.99346682  0.19773209000000005  0.4782206272698425  1.0000
  Rh  Rh2       1.0  0.006533179999999986  0.8091660700000001  0.45883607762972783  1.0000
  Rh  Rh3       1.0  0.4934668199999999  0.30916607000000007  0.4782206272698425  1.0000
  Rh  Rh4       1.0  0.50653318  0.6977320900000001  0.45883607762972783  1.0000
  Sb  Sb5       1.0  0.79070663  0.5840846100000001  0.518340718004982  1.0000
  Sb  Sb6       1.0  0.20051229  0.42241563000000004  0.4967562204785026  1.0000
  Sb  Sb7       1.0  0.31444826  0.8978117400000001  0.5181739674566859  1.0000
  Sb  Sb8       1.0  0.6965131799999998  0.08808546000000003  0.4980807465954801  1.0000
  Rh  Rh5       1.0  0.012544939999999984  0.21170283  0.5151594466776361  1.0000
  Rh  Rh6       1.0  0.012660629999999985  0.8010497100000002  0.49878340395389076  1.0000
  Rh  Rh7       1.0  0.46395638999999994  0.3061039400000001  0.5160649718772325  1.0000
  Rh  Rh8       1.0  0.51371944  0.7036432000000001  0.4976849389040524  1.0000
