data_image0
_chemical_formula_structural       COAl12Fe2
_chemical_formula_sum              "C1 O1 Al12 Fe2"
_cell_length_a       4.94773449
_cell_length_b       4.947734484112444
_cell_length_c       105.4606768
_cell_angle_alpha    90.0
_cell_angle_beta     90.0
_cell_angle_gamma    98.04740442184671

_space_group_name_H-M_alt    "P 1"
_space_group_IT_number       1

loop_
  _space_group_symop_operation_xyz
  'x, y, z'

loop_
  _atom_site_type_symbol
  _atom_site_label
  _atom_site_symmetry_multiplicity
  _atom_site_fract_x
  _atom_site_fract_y
  _atom_site_fract_z
  _atom_site_occupancy
  C   C1        1.0  0.5687554300000001  0.5552873500000001  0.5381468203549059  1.0000
  O   O1        1.0  0.5887678199999999  0.56552263  0.549287030162308  1.0000
  Al  Al1       1.0  0.33133768999999996  0.68304527  0.5008088872784526  1.0000
  Al  Al2       1.0  0.8484957000000002  0.8507005400000001  0.450712969837692  1.0000
  Al  Al3       1.0  0.31786822  0.67442502  0.45891714120026456  1.0000
  Al  Al4       1.0  0.1415927  0.14379754000000003  0.4671213092003822  1.0000
  Al  Al5       1.0  0.9661937599999999  0.6047141  0.47993248423853335  1.0000
  Al  Al6       1.0  0.6722201800000001  0.32007306  0.45891714120026456  1.0000
  Al  Al7       1.0  0.8787118  0.8784504499999999  0.5123882336939826  1.0000
  Al  Al8       1.0  0.03380623999999999  0.40743663999999996  0.5217870348407713  1.0000
  Al  Al9       1.0  0.40824548000000005  0.03160140000000005  0.5219475786117641  1.0000
  Al  Al10      1.0  0.6025092599999999  0.9683985999999999  0.47993248423853335  1.0000
  Al  Al11      1.0  0.1415927  0.14379754000000003  0.49274365591422964  1.0000
  Al  Al12      1.0  0.6815205999999999  0.33096667  0.5008399933486043  1.0000
  Fe  Fe1       1.0  0.5411275299999999  0.53964725  0.5213869598710558  1.0000
  Fe  Fe2       1.0  0.45521000999999994  0.45741485000000004  0.47993248423853335  1.0000
