data_image0
_chemical_formula_structural       CORe12
_chemical_formula_sum              "C1 O1 Re12"
_cell_length_a       4.8191268
_cell_length_b       5.290000060149997
_cell_length_c       100.60556568999999
_cell_angle_alpha    105.24693457447746
_cell_angle_beta     90.0
_cell_angle_gamma    62.90327506792224

_space_group_name_H-M_alt    "P 1"
_space_group_IT_number       1

loop_
  _space_group_symop_operation_xyz
  'x, y, z'

loop_
  _atom_site_type_symbol
  _atom_site_label
  _atom_site_symmetry_multiplicity
  _atom_site_fract_x
  _atom_site_fract_y
  _atom_site_fract_z
  _atom_site_occupancy
  C   C1        1.0  0.3387073500000001  0.14312301500000002  0.5375360071116305  1.0000
  O   O1        1.0  0.2277099800000001  0.252644515  0.5496101444238118  1.0000
  Re  Re1       1.0  0.04166667000000008  0.334088515  0.4573037966704878  1.0000
  Re  Re2       1.0  0.54166667  0.334088515  0.4711316819012218  1.0000
  Re  Re3       1.0  0.45833333000000026  0.834088515  0.464217740806922  1.0000
  Re  Re4       1.0  0.9583333300000002  0.834088515  0.45038985557618805  1.0000
  Re  Re5       1.0  0.04166667000000008  0.334088515  0.4849595640898213  1.0000
  Re  Re6       1.0  0.53950502  0.330377315  0.4980208010186808  1.0000
  Re  Re7       1.0  0.45833333000000026  0.834088515  0.4918735082262556  1.0000
  Re  Re8       1.0  0.9583333300000002  0.834088515  0.47804562299552167  1.0000
  Re  Re9       1.0  0.049727340000000037  0.33032631500000004  0.5121885474255143  1.0000
  Re  Re10      1.0  0.5048140400000001  0.33537539499999997  0.5238525046238642  1.0000
  Re  Re11      1.0  0.49430407000000026  0.8042588049999999  0.518983282481526  1.0000
  Re  Re12      1.0  0.9434938600000004  0.8568769849999999  0.5061940306249947  1.0000
