data_image0
_chemical_formula_structural       COFe30Co2
_chemical_formula_sum              "C1 O1 Fe30 Co2"
_cell_length_a       5.55220846
_cell_length_b       7.85200851
_cell_length_c       101.40803402
_cell_angle_alpha    90.0
_cell_angle_beta     90.0
_cell_angle_gamma    90.0

_space_group_name_H-M_alt    "P 1"
_space_group_IT_number       1

loop_
  _space_group_symop_operation_xyz
  'x, y, z'

loop_
  _atom_site_type_symbol
  _atom_site_label
  _atom_site_symmetry_multiplicity
  _atom_site_fract_x
  _atom_site_fract_y
  _atom_site_fract_z
  _atom_site_occupancy
  C   C1        1.0  0.767250425  0.7995288349999999  0.5324478598635317  1.0000
  O   O1        1.0  0.753332355  0.7807999350000001  0.543905823239581  1.0000
  Fe  Fe1       1.0  0.48700009499999997  0.6113165050000001  0.5119674672517918  1.0000
  Fe  Fe2       1.0  0.5133128149999999  0.08345877500000001  0.4754921651595783  1.0000
  Fe  Fe3       1.0  0.5133128149999999  0.8334587749999999  0.4561347035420614  1.0000
  Fe  Fe4       1.0  0.48282195499999997  0.416085465  0.49446195721617664  1.0000
  Fe  Fe5       1.0  0.053425805  0.582369375  0.5134895367157924  1.0000
  Fe  Fe6       1.0  0.013312815000000004  0.08345877500000001  0.4754921651595783  1.0000
  Fe  Fe7       1.0  0.5133128149999999  0.333458775  0.4561347035420614  1.0000
  Fe  Fe8       1.0  0.536532195  0.894306815  0.4948827791401599  1.0000
  Fe  Fe9       1.0  0.013312815000000004  0.8334587749999999  0.4561347035420614  1.0000
  Fe  Fe10      1.0  0.037454725  0.39457765499999997  0.4952675992827284  1.0000
  Fe  Fe11      1.0  0.5133128149999999  0.583458775  0.4754921651595783  1.0000
  Fe  Fe12      1.0  0.5519702049999999  0.083119705  0.513731470916879  1.0000
  Fe  Fe13      1.0  0.013312815000000004  0.333458775  0.4561347035420614  1.0000
  Fe  Fe14      1.0  0.9846277549999999  0.9168802949999999  0.49441128402745277  1.0000
  Fe  Fe15      1.0  0.763836195  0.583458775  0.45617523032370383  1.0000
  Fe  Fe16      1.0  0.7365048649999999  0.16607455499999998  0.49454643317867547  1.0000
  Fe  Fe17      1.0  0.7383777450000001  0.35972975500000004  0.5121048061190727  1.0000
  Fe  Fe18      1.0  0.763836195  0.8329353950000001  0.4754921651595783  1.0000
  Fe  Fe19      1.0  0.262789435  0.583458775  0.45617523032370383  1.0000
  Fe  Fe20      1.0  0.286629545  0.144133745  0.4955694239214626  1.0000
  Fe  Fe21      1.0  0.7911695249999999  0.828871605  0.5150011283729689  1.0000
  Fe  Fe22      1.0  0.763836195  0.333982155  0.4754921651595783  1.0000
  Fe  Fe23      1.0  0.7873628249999999  0.6440378549999999  0.4950024082529561  1.0000
  Fe  Fe24      1.0  0.763836195  0.08345877500000001  0.45609417676041897  1.0000
  Fe  Fe25      1.0  0.30236935499999995  0.333510745  0.5137032492864376  1.0000
  Fe  Fe26      1.0  0.262789435  0.8329353950000001  0.4754921651595783  1.0000
  Fe  Fe27      1.0  0.24077408499999997  0.8617270749999999  0.5119837832690399  1.0000
  Fe  Fe28      1.0  0.262789435  0.333982155  0.4754921651595783  1.0000
  Fe  Fe29      1.0  0.23510032499999997  0.666075235  0.4943441430589816  1.0000
  Fe  Fe30      1.0  0.262789435  0.08345877500000001  0.45609417676041897  1.0000
  Co  Co1       1.0  0.013312815000000004  0.583458775  0.4754921651595783  1.0000
  Co  Co2       1.0  0.986687185  0.10884070500000001  0.5127486074177265  1.0000
