data_image0
_chemical_formula_structural       COV6Si12V6Si12
_chemical_formula_sum              "C1 O1 V12 Si24"
_cell_length_a       6.39700944
_cell_length_b       7.93755908
_cell_length_c       102.07926309999999
_cell_angle_alpha    90.0
_cell_angle_beta     90.0
_cell_angle_gamma    90.0

_space_group_name_H-M_alt    "P 1"
_space_group_IT_number       1

loop_
  _space_group_symop_operation_xyz
  'x, y, z'

loop_
  _atom_site_type_symbol
  _atom_site_label
  _atom_site_symmetry_multiplicity
  _atom_site_fract_x
  _atom_site_fract_y
  _atom_site_fract_z
  _atom_site_occupancy
  C   C1        1.0  0.374011865  0.041426379999999985  0.5402225104895544  1.0000
  O   O1        1.0  0.40884272499999996  0.04052134999999999  0.551824263378915  1.0000
  V   V1        1.0  0.668665495  0.29089959000000004  0.44843330278328386  1.0000
  V   V2        1.0  0.668665495  0.7908995900000001  0.47088032895001924  1.0000
  V   V3        1.0  0.33533215499999997  0.5408995900000001  0.48210384360467884  1.0000
  V   V4        1.0  0.33533215499999997  0.040899589999999986  0.45965681743794345  1.0000
  V   V5        1.0  0.001998824999999999  0.7908995900000001  0.44843330278328386  1.0000
  V   V6        1.0  0.001998824999999999  0.29089959000000004  0.47088032895001924  1.0000
  Si  Si1       1.0  0.001998824999999999  0.62232053  0.47062276278782034  1.0000
  Si  Si2       1.0  0.001998824999999999  0.12232053  0.44817573662108495  1.0000
  Si  Si3       1.0  0.33533215499999997  0.20374145999999999  0.48210384360467884  1.0000
  Si  Si4       1.0  0.33533215499999997  0.7037414600000002  0.45965681743794345  1.0000
  Si  Si5       1.0  0.668665495  0.45947865000000004  0.47062276278782034  1.0000
  Si  Si6       1.0  0.668665495  0.9594786500000001  0.44817573662108495  1.0000
  Si  Si7       1.0  0.001998824999999999  0.45947865000000004  0.44869086894548277  1.0000
  Si  Si8       1.0  0.001998824999999999  0.9594786500000001  0.47113789511221815  1.0000
  Si  Si9       1.0  0.33533215499999997  0.87805772  0.48210384360467884  1.0000
  Si  Si10      1.0  0.33533215499999997  0.37805772  0.45965681743794345  1.0000
  Si  Si11      1.0  0.668665495  0.62232053  0.44869086894548277  1.0000
  Si  Si12      1.0  0.668665495  0.12232053  0.47113789511221815  1.0000
  V   V7        1.0  0.668665495  0.29089959000000004  0.49332735511675463  1.0000
  V   V8        1.0  0.666787545  0.7913298000000001  0.5147903880374789  1.0000
  V   V9        1.0  0.33389964499999997  0.54107477  0.5258064513126212  1.0000
  V   V10       1.0  0.33511080499999996  0.041802819999999984  0.505257617995933  1.0000
  V   V11       1.0  0.001998824999999999  0.7908995900000001  0.49332735511675463  1.0000
  V   V12       1.0  0.007806854999999999  0.28998494  0.5147805988891718  1.0000
  Si  Si13      1.0  0.998001175  0.6176363300000001  0.5161390655545801  1.0000
  Si  Si14      1.0  0.001998824999999999  0.12232053  0.49306979209713947  1.0000
  Si  Si15      1.0  0.350006265  0.23122911999999998  0.5272087695913447  1.0000
  Si  Si16      1.0  0.332785495  0.7015025300000001  0.5044455963591704  1.0000
  Si  Si17      1.0  0.671407695  0.46104410000000007  0.5162773423811163  1.0000
  Si  Si18      1.0  0.668665495  0.9594786500000001  0.49306979209713947  1.0000
  Si  Si19      1.0  0.001998824999999999  0.45947865000000004  0.49358492127895354  1.0000
  Si  Si20      1.0  0.0032012949999999994  0.953702  0.5163811544919275  1.0000
  Si  Si21      1.0  0.33253074499999996  0.8512173500000001  0.5273157085729634  1.0000
  Si  Si22      1.0  0.33846031499999996  0.38121773000000003  0.5043178754713705  1.0000
  Si  Si23      1.0  0.668665495  0.62232053  0.49358492127895354  1.0000
  Si  Si24      1.0  0.6733341749999999  0.12430005  0.5161618775698485  1.0000
