data_image0
_chemical_formula_structural       COSn14Sb11Pt8
_chemical_formula_sum              "C1 O1 Sn14 Sb11 Pt8"
_cell_length_a       9.521460376364507
_cell_length_b       9.5806726262068
_cell_length_c       31.994697289999998
_cell_angle_alpha    89.70550454021134
_cell_angle_beta     89.77403665256595
_cell_angle_gamma    90.26914535505674

_space_group_name_H-M_alt    "P 1"
_space_group_IT_number       1

loop_
  _space_group_symop_operation_xyz
  'x, y, z'

loop_
  _atom_site_type_symbol
  _atom_site_label
  _atom_site_symmetry_multiplicity
  _atom_site_fract_x
  _atom_site_fract_y
  _atom_site_fract_z
  _atom_site_occupancy
  C   C1        1.0  0.11217600999999999  0.7268627049999999  0.6240585710515815  1.0000
  O   O1        1.0  0.07629837999999999  0.711096105  0.6587068229922025  1.0000
  Sn  Sn1       1.0  0.29622071999999994  0.006967695000000022  0.5856221898030719  1.0000
  Sn  Sn2       1.0  0.08783838  0.490961905  0.445003294340155  1.0000
  Sn  Sn3       1.0  0.76596753  0.495807675  0.5463627861081559  1.0000
  Sn  Sn4       1.0  0.9224093599999998  0.852165025  0.5382423557795892  1.0000
  Sn  Sn5       1.0  0.9237016199999999  0.14748534500000005  0.441357565994763  1.0000
  Sn  Sn6       1.0  0.59055244  0.8545828650000001  0.49095169459773674  1.0000
  Sn  Sn7       1.0  0.5787419699999999  0.162174375  0.4898179985799982  1.0000
  Sn  Sn8       1.0  0.43034068999999997  0.634789775  0.5796772584631129  1.0000
  Sn  Sn9       1.0  0.7775273199999998  0.487108025  0.44096217406636334  1.0000
  Sn  Sn10      1.0  0.42148357999999997  0.649406845  0.38891780574558793  1.0000
  Sn  Sn11      1.0  0.49437934  0.554291345  0.4838798736924509  1.0000
  Sn  Sn12      1.0  0.26347413000000003  0.993032305  0.38696714538044796  1.0000
  Sn  Sn13      1.0  0.7743143399999999  0.331700285  0.34129317700779727  1.0000
  Sn  Sn14      1.0  0.08005846000000001  0.331076695  0.3418970744496017  1.0000
  Sb  Sb1       1.0  0.77206318  0.6442238849999999  0.34217587766871677  1.0000
  Sb  Sb2       1.0  0.59614148  0.992577825  0.6007205405023452  1.0000
  Sb  Sb3       1.0  0.4248313799999999  0.339704525  0.3870395218456206  1.0000
  Sb  Sb4       1.0  0.27010024999999993  0.837718155  0.4904272532819032  1.0000
  Sb  Sb5       1.0  0.57659087  0.990189845  0.38741668008387736  1.0000
  Sb  Sb6       1.0  0.9231651200000001  0.840485305  0.44485569053968976  1.0000
  Sb  Sb7       1.0  0.92294248  0.15800967500000002  0.5379381085446527  1.0000
  Sb  Sb8       1.0  0.2716488  0.14948643500000003  0.48982235803555674  1.0000
  Sb  Sb9       1.0  0.42289747999999994  0.339192595  0.5952958454447929  1.0000
  Sb  Sb10      1.0  0.07800915000000001  0.497247145  0.5388275919007329  1.0000
  Sb  Sb11      1.0  0.08272227  0.645489265  0.34241263055356114  1.0000
  Pt  Pt1       1.0  0.18233992  0.250831515  0.5618144308870558  1.0000
  Pt  Pt2       1.0  0.6741474599999999  0.755290895  0.5644534219640557  1.0000
  Pt  Pt3       1.0  0.1735506  0.752505765  0.5678072330877806  1.0000
  Pt  Pt4       1.0  0.6663526999999999  0.23901753499999998  0.5656651961872068  1.0000
  Pt  Pt5       1.0  0.17109159  0.744789845  0.4167266658460855  1.0000
  Pt  Pt6       1.0  0.6718538  0.23955997499999998  0.41424940225527096  1.0000
  Pt  Pt7       1.0  0.17822081  0.24239095500000002  0.4162022601661284  1.0000
  Pt  Pt8       1.0  0.67508094  0.742162785  0.41612751985448115  1.0000
