data_image0
_chemical_formula_structural       COV3Ir3V3Ir3V3Ir3V3Ir3
_chemical_formula_sum              "C1 O1 V12 Ir12"
_cell_length_a       7.3853115
_cell_length_b       6.159288396883816
_cell_length_c       101.16380816
_cell_angle_alpha    71.56505117707799
_cell_angle_beta     90.0
_cell_angle_gamma    90.0

_space_group_name_H-M_alt    "P 1"
_space_group_IT_number       1

loop_
  _space_group_symop_operation_xyz
  'x, y, z'

loop_
  _atom_site_type_symbol
  _atom_site_label
  _atom_site_symmetry_multiplicity
  _atom_site_fract_x
  _atom_site_fract_y
  _atom_site_fract_z
  _atom_site_occupancy
  C   C1        1.0  0.38089126000000006  0.17019051  0.5360835666071563  1.0000
  O   O1        1.0  0.38088923  0.14771847  0.5483147283527253  1.0000
  V   V1        1.0  0.38088254000000005  0.8522815300000001  0.45168527164727484  1.0000
  V   V2        1.0  0.38088254000000005  0.51894819  0.47735634865286364  1.0000
  V   V3        1.0  0.38088254000000005  0.18561486  0.4645208086098045  1.0000
  Ir  Ir1       1.0  0.13088254  0.8522815300000001  0.47093858017159873  1.0000
  Ir  Ir2       1.0  0.13088254  0.51894819  0.4581030401285397  1.0000
  Ir  Ir3       1.0  0.13088254  0.18561486  0.48377411713412843  1.0000
  V   V4        1.0  0.38088254000000005  0.8522815300000001  0.4901918886959227  1.0000
  V   V5        1.0  0.3808832  0.58335021  0.5137719485772421  1.0000
  V   V6        1.0  0.38088116  0.19547698000000002  0.5013929306637944  1.0000
  Ir  Ir4       1.0  0.1191112  0.84689196  0.509844221269281  1.0000
  Ir  Ir5       1.0  0.12404993  0.51933011  0.496491592808787  1.0000
  Ir  Ir6       1.0  0.18627777  0.18758966000000002  0.5209263794479413  1.0000
  V   V7        1.0  0.8808825400000001  0.8522815300000001  0.45168527164727484  1.0000
  V   V8        1.0  0.8808825400000001  0.51894819  0.47735634865286364  1.0000
  V   V9        1.0  0.8808825400000001  0.18561486  0.4645208086098045  1.0000
  Ir  Ir7       1.0  0.63088254  0.8522815300000001  0.47093858017159873  1.0000
  Ir  Ir8       1.0  0.63088254  0.51894819  0.4581030401285397  1.0000
  Ir  Ir9       1.0  0.63088254  0.18561486  0.48377411713412843  1.0000
  V   V10       1.0  0.8808825400000001  0.8522815300000001  0.4901918886959227  1.0000
  V   V11       1.0  0.8808825500000002  0.52232709  0.5144076774220685  1.0000
  V   V12       1.0  0.8808888  0.19203033000000003  0.504264529284639  1.0000
  Ir  Ir10      1.0  0.64265944  0.84689128  0.509844332168338  1.0000
  Ir  Ir11      1.0  0.6377138099999999  0.5193329099999999  0.4964914849902593  1.0000
  Ir  Ir12      1.0  0.5754931400000001  0.18758181000000002  0.5209259728180653  1.0000
