data_image0
_chemical_formula_structural       CONi18Sn24
_chemical_formula_sum              "C1 O1 Ni18 Sn24"
_cell_length_a       6.534834553725292
_cell_length_b       9.375447483869701
_cell_length_c       103.68973803
_cell_angle_alpha    84.5896119056235
_cell_angle_beta     89.86663165531178
_cell_angle_gamma    73.91514604641885

_space_group_name_H-M_alt    "P 1"
_space_group_IT_number       1

loop_
  _space_group_symop_operation_xyz
  'x, y, z'

loop_
  _atom_site_type_symbol
  _atom_site_label
  _atom_site_symmetry_multiplicity
  _atom_site_fract_x
  _atom_site_fract_y
  _atom_site_fract_z
  _atom_site_occupancy
  C   C1        1.0  0.007790524999999992  0.991231655  0.5634157180768752  1.0000
  O   O1        1.0  0.999776345  0.977766375  0.5747226225069914  1.0000
  Ni  Ni1       1.0  0.3491985150000001  0.669433175  0.4587948981019477  1.0000
  Ni  Ni2       1.0  0.682531855  0.336099835  0.43713429127330816  1.0000
  Ni  Ni3       1.0  0.015865184999999993  0.0027665050000000306  0.4804555049305871  1.0000
  Ni  Ni4       1.0  0.26347235499999994  0.18688789500000003  0.4705536698436743  1.0000
  Ni  Ni5       1.0  0.596805685  0.853554565  0.44889306626412573  1.0000
  Ni  Ni6       1.0  0.930139015  0.520221235  0.42723245943548616  1.0000
  Ni  Ni7       1.0  0.10159135499999997  0.48531177500000006  0.4686967299397695  1.0000
  Ni  Ni8       1.0  0.4349246849999999  0.15197844500000002  0.4470361231111301  1.0000
  Ni  Ni9       1.0  0.768258015  0.8186451149999999  0.42537551953158137  1.0000
  Ni  Ni10      1.0  0.35456110499999993  0.666915065  0.5233321032470591  1.0000
  Ni  Ni11      1.0  0.682531855  0.336099835  0.5021161085101358  1.0000
  Ni  Ni12      1.0  0.031007674999999995  0.00446810500000003  0.5462652814935561  1.0000
  Ni  Ni13      1.0  0.26883052499999993  0.18988282500000003  0.534004216550043  1.0000
  Ni  Ni14      1.0  0.596805685  0.853554565  0.5138748835009533  1.0000
  Ni  Ni15      1.0  0.930139015  0.520221235  0.4922142766723138  1.0000
  Ni  Ni16      1.0  0.10294376499999999  0.494154915  0.5330458549621617  1.0000
  Ni  Ni17      1.0  0.4349246849999999  0.15197844500000002  0.5120179403479577  1.0000
  Ni  Ni18      1.0  0.768258015  0.8186451149999999  0.4903573367684091  1.0000
  Sn  Sn1       1.0  0.5005031649999999  0.37467112500000005  0.45995127553240384  1.0000
  Sn  Sn2       1.0  0.833836505  0.04133779500000004  0.4382906687037643  1.0000
  Sn  Sn3       1.0  0.16716983500000004  0.708004465  0.48161187911195247  1.0000
  Sn  Sn4       1.0  0.864560535  0.2975285450000001  0.47929912750013093  1.0000
  Sn  Sn5       1.0  0.1978938649999999  0.964195215  0.45763852067149136  1.0000
  Sn  Sn6       1.0  0.531227205  0.630861885  0.43597791384285184  1.0000
  Sn  Sn7       1.0  0.031506715000000005  0.33078139500000003  0.4489912050536076  1.0000
  Sn  Sn8       1.0  0.3648400550000001  0.9974480549999999  0.4273306014740589  1.0000
  Sn  Sn9       1.0  0.698173385  0.664114725  0.4706518118822471  1.0000
  Sn  Sn10      1.0  0.333556985  0.3414182850000001  0.42527737749300853  1.0000
  Sn  Sn11      1.0  0.666890315  0.00808495500000003  0.46859859115028774  1.0000
  Sn  Sn12      1.0  0.0002236550000001003  0.674751615  0.44693798432164816  1.0000
  Sn  Sn13      1.0  0.507391545  0.37064559500000005  0.526165635387671  1.0000
  Sn  Sn14      1.0  0.833836505  0.04133779500000004  0.503272485940592  1.0000
  Sn  Sn15      1.0  0.16890839500000002  0.705647625  0.5458588007321946  1.0000
  Sn  Sn16      1.0  0.909829755  0.30031404500000003  0.5441346674172676  1.0000
  Sn  Sn17      1.0  0.2033513049999999  0.9614054350000001  0.52352177217521  1.0000
  Sn  Sn18      1.0  0.531227205  0.630861885  0.5009597310796796  1.0000
  Sn  Sn19      1.0  0.031506715000000005  0.33078139500000003  0.5139730222904353  1.0000
  Sn  Sn20      1.0  0.3648400550000001  0.9974480549999999  0.49231241871088655  1.0000
  Sn  Sn21      1.0  0.6982888949999999  0.6626337050000001  0.5360151308698904  1.0000
  Sn  Sn22      1.0  0.333556985  0.3414182850000001  0.4902591947298363  1.0000
  Sn  Sn23      1.0  0.660048755  0.0025519450000000303  0.5350363909841237  1.0000
  Sn  Sn24      1.0  0.0002236550000001003  0.674751615  0.5119198015584757  1.0000
