data_image0
_chemical_formula_structural       COV4Pt8V4Pt8
_chemical_formula_sum              "C1 O1 V8 Pt16"
_cell_length_a       8.89078353121319
_cell_length_b       4.720400728571736
_cell_length_c       103.04280510000001
_cell_angle_alpha    108.73026635626658
_cell_angle_beta     79.61734948042243
_cell_angle_gamma    79.61734948660362

_space_group_name_H-M_alt    "P 1"
_space_group_IT_number       1

loop_
  _space_group_symop_operation_xyz
  'x, y, z'

loop_
  _atom_site_type_symbol
  _atom_site_label
  _atom_site_symmetry_multiplicity
  _atom_site_fract_x
  _atom_site_fract_y
  _atom_site_fract_z
  _atom_site_occupancy
  C   C1        1.0  0.19244142  0.18803153500000003  0.5475058746957326  1.0000
  O   O1        1.0  0.1574428  0.386233995  0.558602439437385  1.0000
  V   V1        1.0  0.08027883999999999  0.45640949499999994  0.4872076582206753  1.0000
  V   V2        1.0  0.08003593999999999  0.9634331150000002  0.5093596135902638  1.0000
  V   V3        1.0  0.58027884  0.20640949500000005  0.4986601802301604  1.0000
  V   V4        1.0  0.59017507  0.699067815  0.5198408498013241  1.0000
  Pt  Pt1       1.0  0.23955032999999998  0.389943775  0.5070404207077631  1.0000
  Pt  Pt2       1.0  0.24813419  0.878285005  0.5293729874174488  1.0000
  Pt  Pt3       1.0  0.43389791  0.28979212499999996  0.5242129698842131  1.0000
  Pt  Pt4       1.0  0.41988616999999995  0.788781145  0.502401961188508  1.0000
  Pt  Pt5       1.0  0.7496938799999999  0.1413772549999999  0.5176844485899232  1.0000
  Pt  Pt6       1.0  0.7405936199999998  0.626252105  0.4949881643822499  1.0000
  Pt  Pt7       1.0  0.91996406  0.03656688500000001  0.49087967406858585  1.0000
  Pt  Pt8       1.0  0.91987739  0.5546979449999999  0.5134543022383954  1.0000
  V   V5        1.0  0.08027883999999999  0.45640949499999994  0.4413975605626151  1.0000
  V   V6        1.0  0.08027883999999999  0.956409495  0.4643026077882919  1.0000
  V   V7        1.0  0.58027884  0.20640949500000005  0.45285008577880687  1.0000
  V   V8        1.0  0.58027884  0.706409495  0.4757551330044836  1.0000
  Pt  Pt9       1.0  0.24059362  0.3762521049999999  0.46063059194038136  1.0000
  Pt  Pt10      1.0  0.24059362  0.8762521050000001  0.4835356391660582  1.0000
  Pt  Pt11      1.0  0.41996406  0.286566885  0.4794271520591008  1.0000
  Pt  Pt12      1.0  0.41996406  0.786566885  0.45652210162671736  1.0000
  Pt  Pt13      1.0  0.7405936199999998  0.12625210499999995  0.4720831139498664  1.0000
  Pt  Pt14      1.0  0.7405936199999998  0.626252105  0.44917806672418964  1.0000
  Pt  Pt15      1.0  0.91996406  0.03656688500000001  0.4450695796172323  1.0000
  Pt  Pt16      1.0  0.91996406  0.536566885  0.4679746268429091  1.0000
