data_image0
_chemical_formula_structural       Al6Fe3Ir3Al6Fe3Ir3Al6Fe3Ir3Al6Fe3Ir3CO
_chemical_formula_sum              "Al24 Fe12 Ir12 C1 O1"
_cell_length_a       8.38999388
_cell_length_b       8.38999388201267
_cell_length_c       39.17319406
_cell_angle_alpha    90.0
_cell_angle_beta     90.0
_cell_angle_gamma    119.99999999206453

_space_group_name_H-M_alt    "P 1"
_space_group_IT_number       1

loop_
  _space_group_symop_operation_xyz
  'x, y, z'

loop_
  _atom_site_type_symbol
  _atom_site_label
  _atom_site_symmetry_multiplicity
  _atom_site_fract_x
  _atom_site_fract_y
  _atom_site_fract_z
  _atom_site_occupancy
  Al  Al1       1.0  0.08567846000000004  0.0049222099999999954  0.4462448302430808  1.0000
  Al  Al2       1.0  0.41880638000000003  0.17183729999999997  0.5328278596215968  1.0000
  Al  Al3       1.0  0.25234513000000003  0.33825553999999997  0.35880747140780805  1.0000
  Al  Al4       1.0  0.41901179  0.17158887999999997  0.4025261547601256  1.0000
  Al  Al5       1.0  0.25234513000000003  0.33825553999999997  0.48996351359539836  1.0000
  Al  Al6       1.0  0.08055043999999996  0.99507779  0.5777707718090547  1.0000
  Fe  Fe1       1.0  0.41901179  0.17158887999999997  0.46810417191923953  1.0000
  Fe  Fe2       1.0  0.2524483  0.3383305999999999  0.5638249317603191  1.0000
  Fe  Fe3       1.0  0.08567846000000004  0.0049222099999999954  0.3806668130839669  1.0000
  Ir  Ir1       1.0  0.25234513000000003  0.33825553999999997  0.42438549643628437  1.0000
  Ir  Ir2       1.0  0.08567846000000004  0.0049222099999999954  0.5118228552715571  1.0000
  Ir  Ir3       1.0  0.42195133  0.16849060999999999  0.5948062415662065  1.0000
  Al  Al7       1.0  0.08567846000000003  0.5049222099999999  0.4462448302430808  1.0000
  Al  Al8       1.0  0.41878918000000004  0.67113702  0.5328334940850565  1.0000
  Al  Al9       1.0  0.25234513  0.8382555399999999  0.35880747140780805  1.0000
  Al  Al10      1.0  0.41901178999999994  0.6715888799999999  0.4025261547601256  1.0000
  Al  Al11      1.0  0.25234513  0.8382555399999999  0.48996351359539836  1.0000
  Al  Al12      1.0  0.08058029000000003  0.5096262199999999  0.5777684110003426  1.0000
  Fe  Fe4       1.0  0.41901178999999994  0.6715888799999999  0.46810417191923953  1.0000
  Fe  Fe5       1.0  0.25359852000000005  0.83889277  0.5557579224810688  1.0000
  Fe  Fe6       1.0  0.08567846000000003  0.5049222099999999  0.3806668130839669  1.0000
  Ir  Ir4       1.0  0.25234513  0.8382555399999999  0.42438549643628437  1.0000
  Ir  Ir5       1.0  0.08567846000000003  0.5049222099999999  0.5118228552715571  1.0000
  Ir  Ir6       1.0  0.4220029100000001  0.67771049  0.5948086338523682  1.0000
  Al  Al13      1.0  0.5856784600000001  0.0049222099999999954  0.4462448302430808  1.0000
  Al  Al14      1.0  0.9194495600000001  0.17182513  0.5328639327787187  1.0000
  Al  Al15      1.0  0.75234513  0.33825553999999997  0.35880747140780805  1.0000
  Al  Al16      1.0  0.9190117899999999  0.17158887999999997  0.4025261547601256  1.0000
  Al  Al17      1.0  0.75234513  0.33825553999999997  0.48996351359539836  1.0000
  Al  Al18      1.0  0.5858679800000002  0.0050178599999999955  0.5770190981844652  1.0000
  Fe  Fe7       1.0  0.9190117899999999  0.17158887999999997  0.46810417191923953  1.0000
  Fe  Fe8       1.0  0.7516862900000001  0.33707399  0.5557020736163015  1.0000
  Fe  Fe9       1.0  0.5856784600000001  0.0049222099999999954  0.3806668130839669  1.0000
  Ir  Ir7       1.0  0.75234513  0.33825553999999997  0.42438549643628437  1.0000
  Ir  Ir8       1.0  0.5856784600000001  0.0049222099999999954  0.5118228552715571  1.0000
  Ir  Ir9       1.0  0.9129765700000001  0.16855937  0.5948813782381522  1.0000
  Al  Al19      1.0  0.5856784600000001  0.5049222099999999  0.4462448302430808  1.0000
  Al  Al20      1.0  0.9190401200000001  0.6715850699999999  0.5338308728110454  1.0000
  Al  Al21      1.0  0.7523451300000001  0.8382555399999999  0.35880747140780805  1.0000
  Al  Al22      1.0  0.9190117899999999  0.6715888799999999  0.4025261547601256  1.0000
  Al  Al23      1.0  0.7523451300000001  0.8382555399999999  0.48996351359539836  1.0000
  Al  Al24      1.0  0.5955843100000001  0.5098876199999999  0.5777704176877478  1.0000
  Fe  Fe10      1.0  0.9190117899999999  0.6715888799999999  0.46810417191923953  1.0000
  Fe  Fe11      1.0  0.75169668  0.83878897  0.5556988393083659  1.0000
  Fe  Fe12      1.0  0.5856784600000001  0.5049222099999999  0.3806668130839669  1.0000
  Ir  Ir10      1.0  0.7523451300000001  0.8382555399999999  0.42438549643628437  1.0000
  Ir  Ir11      1.0  0.5856784600000001  0.5049222099999999  0.5118228552715571  1.0000
  Ir  Ir12      1.0  0.91905163  0.67161233  0.5965380914906355  1.0000
  C   C1        1.0  0.25247811000000003  0.33817428  0.6103674020213389  1.0000
  O   O1        1.0  0.25231571  0.33830488999999997  0.6411925285921921  1.0000
