data_image0
_chemical_formula_structural       COV10Pd30
_chemical_formula_sum              "C1 O1 V10 Pd30"
_cell_length_a       14.65903650612444
_cell_length_b       7.137326777345413
_cell_length_c       98.54930711
_cell_angle_alpha    84.4868654848518
_cell_angle_beta     81.56403632028038
_cell_angle_gamma    54.06862796205188

_space_group_name_H-M_alt    "P 1"
_space_group_IT_number       1

loop_
  _space_group_symop_operation_xyz
  'x, y, z'

loop_
  _atom_site_type_symbol
  _atom_site_label
  _atom_site_symmetry_multiplicity
  _atom_site_fract_x
  _atom_site_fract_y
  _atom_site_fract_z
  _atom_site_occupancy
  C   C1        1.0  0.17047312499999998  0.6229753650000001  0.531591623748055  1.0000
  O   O1        1.0  0.13995677499999998  0.616163095  0.5433101002171439  1.0000
  V   V1        1.0  0.44544878499999996  0.987425975  0.5091127117575  1.0000
  V   V2        1.0  0.8550444949999999  0.7719432549999999  0.5201951555990211  1.0000
  V   V3        1.0  0.04922160499999995  0.185792155  0.49507382225584007  1.0000
  V   V4        1.0  0.250913725  0.5814780949999999  0.46634642389823977  1.0000
  V   V5        1.0  0.6509137249999999  0.381478095  0.4808312071743583  1.0000
  V   V6        1.0  0.3520600949999999  0.6138068050000001  0.5007741059271906  1.0000
  V   V7        1.0  0.7563635949999998  0.422536545  0.5120224758580963  1.0000
  V   V8        1.0  0.9509137249999999  0.814811435  0.4856594663350934  1.0000
  V   V9        1.0  0.15091372499999994  0.21481143499999997  0.45668989978285623  1.0000
  V   V10       1.0  0.5509137249999999  0.014811435000000005  0.47117468305897475  1.0000
  Pd  Pd1       1.0  0.4525917849999999  0.812574025  0.4858215105025599  1.0000
  Pd  Pd2       1.0  0.849677165  0.6182399049999999  0.4993688617807014  1.0000
  Pd  Pd3       1.0  0.05259178499999995  0.012574025000000003  0.47133672722644143  1.0000
  Pd  Pd4       1.0  0.25086463499999995  0.40600108500000004  0.5152048870342991  1.0000
  Pd  Pd5       1.0  0.652591775  0.21257402499999997  0.45685194105336624  1.0000
  Pd  Pd6       1.0  0.560539205  0.521167165  0.5088295081718419  1.0000
  Pd  Pd7       1.0  0.9384145949999999  0.328944065  0.5210231087080407  1.0000
  Pd  Pd8       1.0  0.15054662500000002  0.7181060549999999  0.4923882420429648  1.0000
  Pd  Pd9       1.0  0.3509137249999999  0.11760818500000002  0.46372973910853893  1.0000
  Pd  Pd10      1.0  0.750913725  0.917608185  0.4782145223846575  1.0000
  Pd  Pd11      1.0  0.6440529849999999  0.727786725  0.4925397094216831  1.0000
  Pd  Pd12      1.0  0.04740821499999996  0.5149183350000001  0.5074415125052778  1.0000
  Pd  Pd13      1.0  0.24923567499999996  0.9142520749999999  0.4784575857389007  1.0000
  Pd  Pd14      1.0  0.45126583499999995  0.30699642499999996  0.5209585905863721  1.0000
  Pd  Pd15      1.0  0.8492356749999999  0.114252085  0.46397280246278216  1.0000
  Pd  Pd16      1.0  0.35647350499999997  0.7982084949999999  0.522852968482356  1.0000
  Pd  Pd17      1.0  0.7492356749999999  0.5837155049999999  0.46618437973077315  1.0000
  Pd  Pd18      1.0  0.944491715  0.9801079949999999  0.5108537247681562  1.0000
  Pd  Pd19      1.0  0.14923566499999996  0.383715505  0.48066916590384834  1.0000
  Pd  Pd20      1.0  0.5505115049999999  0.19575997500000003  0.49518959912856597  1.0000
  Pd  Pd21      1.0  0.24572870499999994  0.08337027500000001  0.5025008050750136  1.0000
  Pd  Pd22      1.0  0.6574893649999999  0.858361445  0.5175498546714798  1.0000
  Pd  Pd23      1.0  0.8509137249999998  0.278681335  0.48827615112479417  1.0000
  Pd  Pd24      1.0  0.05091372499999994  0.678681335  0.459306584572557  1.0000
  Pd  Pd25      1.0  0.45091372499999993  0.478681345  0.4737913678486755  1.0000
  Pd  Pd26      1.0  0.15502043499999996  0.8689729549999999  0.5175962175657901  1.0000
  Pd  Pd27      1.0  0.5525917749999999  0.682037455  0.4590635212183138  1.0000
  Pd  Pd28      1.0  0.7491850350000001  0.088627065  0.5035826329805135  1.0000
  Pd  Pd29      1.0  0.9525917849999999  0.482037455  0.47354830449443236  1.0000
  Pd  Pd30      1.0  0.352591785  0.282037445  0.48803308777055093  1.0000
