data_image0
_chemical_formula_structural       COCu15Pt5Cu15Pt5
_chemical_formula_sum              "C1 O1 Cu30 Pt10"
_cell_length_a       8.420143006679314
_cell_length_b       5.32536603
_cell_length_c       109.13328838000001
_cell_angle_alpha    90.0
_cell_angle_beta     104.96321746262952
_cell_angle_gamma    71.5650511953289

_space_group_name_H-M_alt    "P 1"
_space_group_IT_number       1

loop_
  _space_group_symop_operation_xyz
  'x, y, z'

loop_
  _atom_site_type_symbol
  _atom_site_label
  _atom_site_symmetry_multiplicity
  _atom_site_fract_x
  _atom_site_fract_y
  _atom_site_fract_z
  _atom_site_occupancy
  C   C1        1.0  0.15385484500000002  0.9462369399999999  0.5510739896985987  1.0000
  O   O1        1.0  0.20578212500000004  0.9208073999999999  0.5624323667847209  1.0000
  Cu  Cu1       1.0  0.646007185  0.44971049000000013  0.5269456718932276  1.0000
  Cu  Cu2       1.0  0.04349219500000004  0.2552814500000001  0.5152605113948592  1.0000
  Cu  Cu3       1.0  0.24759838500000003  0.64254745  0.5393352820741377  1.0000
  Cu  Cu4       1.0  0.44349219500000003  0.05528145000000001  0.5033077622848566  1.0000
  Cu  Cu5       1.0  0.8176583550000001  0.8485904  0.5501851784047981  1.0000
  Cu  Cu6       1.0  0.34349219500000006  0.35528145000000005  0.5212368877427731  1.0000
  Cu  Cu7       1.0  0.743492195  0.15528145000000013  0.5092841350469454  1.0000
  Cu  Cu8       1.0  0.9431328149999999  0.5516411100000003  0.5333644780984163  1.0000
  Cu  Cu9       1.0  0.14349219500000002  0.9552814500000001  0.4973313859369427  1.0000
  Cu  Cu10      1.0  0.5391288049999999  0.75187773  0.5449142485988017  1.0000
  Cu  Cu11      1.0  0.645993685  0.9539669  0.52691738331908  1.0000
  Cu  Cu12      1.0  0.04349219500000004  0.75528145  0.5152605113948592  1.0000
  Cu  Cu13      1.0  0.24751826500000004  0.1564386800000001  0.539353031908341  1.0000
  Cu  Cu14      1.0  0.44349219500000003  0.55528145  0.5033077622848566  1.0000
  Cu  Cu15      1.0  0.817480195  0.37524544000000004  0.55026297288016  1.0000
  Pt  Pt1       1.0  0.5370460749999999  0.25273633000000006  0.5444539434034453  1.0000
  Pt  Pt2       1.0  0.956507805  0.04471855000000005  0.5353505877284922  1.0000
  Pt  Pt3       1.0  0.14349219500000002  0.45528145  0.4973313859369427  1.0000
  Pt  Pt4       1.0  0.34349219500000006  0.85528145  0.5212368877427731  1.0000
  Pt  Pt5       1.0  0.743492195  0.65528145  0.5092841350469454  1.0000
  Cu  Cu16      1.0  0.643492195  0.45528145000000003  0.46744951136902363  1.0000
  Cu  Cu17      1.0  0.04349219500000004  0.2552814500000001  0.4554967586731959  1.0000
  Cu  Cu18      1.0  0.24349219500000002  0.65528145  0.47940226047902623  1.0000
  Cu  Cu19      1.0  0.44349219500000003  0.05528145000000001  0.4435440095631933  1.0000
  Cu  Cu20      1.0  0.8434921950000001  0.85528145  0.49135500958902883  1.0000
  Cu  Cu21      1.0  0.34349219500000006  0.35528145000000005  0.46147313502110976  1.0000
  Cu  Cu22      1.0  0.743492195  0.15528145000000013  0.4495203859111071  1.0000
  Cu  Cu23      1.0  0.943492195  0.5552814500000001  0.4734258841311124  1.0000
  Cu  Cu24      1.0  0.14349219500000002  0.9552814500000001  0.43756763321527936  1.0000
  Cu  Cu25      1.0  0.543492195  0.75528145  0.48537863682694005  1.0000
  Cu  Cu26      1.0  0.643492195  0.9552814499999999  0.46744951136902363  1.0000
  Cu  Cu27      1.0  0.04349219500000004  0.75528145  0.4554967586731959  1.0000
  Cu  Cu28      1.0  0.24349219500000002  0.15528145000000004  0.47940226047902623  1.0000
  Cu  Cu29      1.0  0.44349219500000003  0.55528145  0.4435440095631933  1.0000
  Cu  Cu30      1.0  0.8434921950000001  0.35528145000000005  0.49135500958902883  1.0000
  Pt  Pt6       1.0  0.543492195  0.2552814500000001  0.48537863682694005  1.0000
  Pt  Pt7       1.0  0.943492195  0.05528145000000005  0.4734258841311124  1.0000
  Pt  Pt8       1.0  0.14349219500000002  0.45528145  0.43756763321527936  1.0000
  Pt  Pt9       1.0  0.34349219500000006  0.85528145  0.46147313502110976  1.0000
  Pt  Pt10      1.0  0.743492195  0.65528145  0.4495203859111071  1.0000
