data_image0
_chemical_formula_structural       COV30Au10
_chemical_formula_sum              "C1 O1 V30 Au10"
_cell_length_a       6.90726013
_cell_length_b       10.921337203979828
_cell_length_c       103.83852569999999
_cell_angle_alpha    75.03678257007033
_cell_angle_beta     90.0
_cell_angle_gamma    71.56505115457706

_space_group_name_H-M_alt    "P 1"
_space_group_IT_number       1

loop_
  _space_group_symop_operation_xyz
  'x, y, z'

loop_
  _atom_site_type_symbol
  _atom_site_label
  _atom_site_symmetry_multiplicity
  _atom_site_fract_x
  _atom_site_fract_y
  _atom_site_fract_z
  _atom_site_occupancy
  C   C1        1.0  0.980321245  0.5886032250000001  0.538595273326598  1.0000
  O   O1        1.0  0.04601142499999992  0.6303280350000001  0.5471657446296573  1.0000
  V   V1        1.0  0.7840791049999998  0.278512855  0.4894953511976115  1.0000
  V   V2        1.0  0.5775045749999997  0.6792893250000002  0.5053690451833982  1.0000
  V   V3        1.0  0.9840791049999997  0.878512855  0.4732015308299365  1.0000
  V   V4        1.0  0.360116425  0.08068703500000003  0.5207010967337585  1.0000
  V   V5        1.0  0.18407910499999985  0.4785128550000001  0.45690771046226153  1.0000
  V   V6        1.0  0.08924896499999994  0.17584509500000003  0.5061801483025369  1.0000
  V   V7        1.0  0.9033727849999997  0.563710485  0.5218589323503213  1.0000
  V   V8        1.0  0.28407910499999994  0.7785128550000001  0.48949535119761145  1.0000
  V   V9        1.0  0.6840791049999999  0.9785128550000001  0.4569077104622616  1.0000
  V   V10       1.0  0.4840791049999999  0.37851285500000004  0.4732015308299365  1.0000
  V   V11       1.0  0.6340791049999998  0.5785128550000002  0.481348441013774  1.0000
  V   V12       1.0  0.43407910499999985  0.9785128550000001  0.49764226138144896  1.0000
  V   V13       1.0  0.8340791049999999  0.17851285500000003  0.46505462064609904  1.0000
  V   V14       1.0  0.22525727499999992  0.376586155  0.5141160469950848  1.0000
  V   V15       1.0  0.01125561499999983  0.7766560850000002  0.5283125496163813  1.0000
  V   V16       1.0  0.4340791049999999  0.4785128550000001  0.4976422613814489  1.0000
  V   V17       1.0  0.22929312499999982  0.8782520250000001  0.5132016964538043  1.0000
  V   V18       1.0  0.6340791049999998  0.07851285500000002  0.481348441013774  1.0000
  V   V19       1.0  0.03912494499999998  0.284561625  0.5283617895415323  1.0000
  V   V20       1.0  0.8340791049999997  0.6785128550000001  0.465054620646099  1.0000
  V   V21       1.0  0.08407910499999995  0.4285128550000001  0.48542189610569275  1.0000
  V   V22       1.0  0.8831656649999999  0.825560155  0.5024201765382  1.0000
  V   V23       1.0  0.28407910499999994  0.02851285500000002  0.46912807573801774  1.0000
  V   V24       1.0  0.6679116649999999  0.242667565  0.5190441651055133  1.0000
  V   V25       1.0  0.48407910499999984  0.6285128550000001  0.4528342553703428  1.0000
  V   V26       1.0  0.9840791049999998  0.6285128550000001  0.49356880628953026  1.0000
  V   V27       1.0  0.7782044649999998  0.023663195000000022  0.5097578215458362  1.0000
  V   V28       1.0  0.18407910499999994  0.22851285500000004  0.4772749859218553  1.0000
  V   V29       1.0  0.5975538949999998  0.40676559500000004  0.5248638093736513  1.0000
  V   V30       1.0  0.38407910499999987  0.8285128550000002  0.46098116555418023  1.0000
  Au  Au1       1.0  0.8320936849999999  0.4305534650000001  0.5048383880416636  1.0000
  Au  Au2       1.0  0.6170538649999998  0.8218611950000001  0.5224788633338503  1.0000
  Au  Au3       1.0  0.03407910499999994  0.02851285500000002  0.48949535119761145  1.0000
  Au  Au4       1.0  0.4340791049999999  0.22851285500000004  0.4569077104622616  1.0000
  Au  Au5       1.0  0.23407910499999982  0.6285128550000001  0.4732015308299365  1.0000
  Au  Au6       1.0  0.8340791049999998  0.4285128550000001  0.46505462064609904  1.0000
  Au  Au7       1.0  0.6340791049999998  0.8285128550000002  0.48134844101377394  1.0000
  Au  Au8       1.0  0.019678754999999937  0.02148714500000002  0.5305445683757394  1.0000
  Au  Au9       1.0  0.4340791049999999  0.22851285500000004  0.49764226138144896  1.0000
  Au  Au10      1.0  0.2466988649999999  0.6230817750000001  0.5145127656746329  1.0000
