data_image0
_chemical_formula_structural       COCo8Si4Co8Si4
_chemical_formula_sum              "C1 O1 Co16 Si8"
_cell_length_a       7.46241966
_cell_length_b       4.91013551
_cell_length_c       98.32764956
_cell_angle_alpha    90.0
_cell_angle_beta     90.0
_cell_angle_gamma    90.0

_space_group_name_H-M_alt    "P 1"
_space_group_IT_number       1

loop_
  _space_group_symop_operation_xyz
  'x, y, z'

loop_
  _atom_site_type_symbol
  _atom_site_label
  _atom_site_symmetry_multiplicity
  _atom_site_fract_x
  _atom_site_fract_y
  _atom_site_fract_z
  _atom_site_occupancy
  C   C1        1.0  0.12154126999999998  0.50022917  0.5361916470547592  1.0000
  O   O1        1.0  0.10759901999999998  0.45802841999999994  0.5478680255732435  1.0000
  Co  Co1       1.0  0.38948559999999993  0.3264013  0.4631797020583184  1.0000
  Co  Co2       1.0  0.13948559999999996  0.6735987  0.4724368161235681  1.0000
  Co  Co3       1.0  0.38450541999999993  0.81945883  0.5083494480304328  1.0000
  Co  Co4       1.0  0.13908758  0.17040997999999996  0.4993062095187476  1.0000
  Co  Co5       1.0  0.13948559999999996  0.03708595999999998  0.4521319744267563  1.0000
  Co  Co6       1.0  0.38948559999999993  0.96291404  0.48348454375513006  1.0000
  Co  Co7       1.0  0.13768497  0.55561132  0.5186470123003527  1.0000
  Co  Co8       1.0  0.38796882999999993  0.4619541099999999  0.48774998078826154  1.0000
  Si  Si1       1.0  0.13842173999999996  0.71185153  0.49522152293997435  1.0000
  Si  Si2       1.0  0.38482107  0.30271792  0.5114493240845648  1.0000
  Si  Si3       1.0  0.13948559999999996  0.20285359999999997  0.47547155978573113  1.0000
  Si  Si4       1.0  0.38948559999999993  0.7971464  0.4601449583961552  1.0000
  Co  Co9       1.0  0.8894855999999999  0.3264013  0.4631797020583184  1.0000
  Co  Co10      1.0  0.6394856  0.6735987  0.4724368161235681  1.0000
  Co  Co11      1.0  0.8915467  0.8204312099999999  0.5083126439651726  1.0000
  Co  Co12      1.0  0.6382048199999999  0.17262793999999995  0.49977415268180214  1.0000
  Co  Co13      1.0  0.6394856  0.03708595999999998  0.4521319744267563  1.0000
  Co  Co14      1.0  0.8894855999999999  0.96291404  0.48348454375513006  1.0000
  Co  Co15      1.0  0.6387711299999999  0.55987541  0.5168326050138852  1.0000
  Co  Co16      1.0  0.88925329  0.4621419399999999  0.48773420473649126  1.0000
  Si  Si5       1.0  0.63823825  0.7131657799999999  0.49530286064443557  1.0000
  Si  Si6       1.0  0.8924009799999999  0.30292136999999997  0.5113063341690219  1.0000
  Si  Si7       1.0  0.6394856  0.20285359999999997  0.47547155978573113  1.0000
  Si  Si8       1.0  0.8894855999999999  0.7971464  0.4601449583961552  1.0000
