data_image0
_chemical_formula_structural       COCu3Au3Cu3Au3Cu3Au3Cu3Au3
_chemical_formula_sum              "C1 O1 Cu12 Au12"
_cell_length_a       5.78584364
_cell_length_b       6.867035015697221
_cell_length_c       102.86958808
_cell_angle_alpha    95.44152596514729
_cell_angle_beta     90.0
_cell_angle_gamma    90.0

_space_group_name_H-M_alt    "P 1"
_space_group_IT_number       1

loop_
  _space_group_symop_operation_xyz
  'x, y, z'

loop_
  _atom_site_type_symbol
  _atom_site_label
  _atom_site_symmetry_multiplicity
  _atom_site_fract_x
  _atom_site_fract_y
  _atom_site_fract_z
  _atom_site_occupancy
  C   C1        1.0  0.11737439  0.14597596999999998  0.5469678131177549  1.0000
  O   O1        1.0  0.11737368000000001  0.26101807  0.5559828489822649  1.0000
  Cu  Cu1       1.0  0.36737639  0.67731366  0.47444827110146165  1.0000
  Cu  Cu2       1.0  0.36737639  0.01064699  0.4592327126572322  1.0000
  Cu  Cu3       1.0  0.36737639  0.34398032  0.4440171510177351  1.0000
  Au  Au1       1.0  0.11737639000000001  0.67731366  0.4516249302398498  1.0000
  Au  Au2       1.0  0.11737639000000001  0.01064699  0.4820560535188441  1.0000
  Au  Au3       1.0  0.11737639000000001  0.34398032  0.46684049187934695  1.0000
  Cu  Cu4       1.0  0.35568063  0.68239084  0.5193260755376937  1.0000
  Cu  Cu5       1.0  0.35212692  0.0180879  0.5050381896035437  1.0000
  Cu  Cu6       1.0  0.36737639  0.34398032  0.48966383274095876  1.0000
  Au  Au4       1.0  0.11737887  0.6738738  0.49664264586656304  1.0000
  Au  Au5       1.0  0.11737683  0.0154792  0.5282384921820357  1.0000
  Au  Au6       1.0  0.11737587  0.35245016999999995  0.513033880725236  1.0000
  Cu  Cu7       1.0  0.8673763900000001  0.67731366  0.47444827110146165  1.0000
  Cu  Cu8       1.0  0.8673763900000001  0.01064699  0.4592327126572322  1.0000
  Cu  Cu9       1.0  0.8673763900000001  0.34398032  0.4440171510177351  1.0000
  Au  Au7       1.0  0.61737639  0.67731366  0.4516249302398498  1.0000
  Au  Au8       1.0  0.61737639  0.01064699  0.4820560535188441  1.0000
  Au  Au9       1.0  0.61737639  0.34398032  0.46684049187934695  1.0000
  Cu  Cu10      1.0  0.87907146  0.6823887699999999  0.5193253374308355  1.0000
  Cu  Cu11      1.0  0.88262632  0.0180865  0.5050376304316815  1.0000
  Cu  Cu12      1.0  0.8673763900000001  0.34398032  0.48966383274095876  1.0000
  Au  Au10      1.0  0.61737473  0.67736277  0.4969691702814643  1.0000
  Au  Au11      1.0  0.61737994  0.98935301  0.5258417314026623  1.0000
  Au  Au12      1.0  0.61737487  0.34946784000000003  0.5128834347368693  1.0000
