data_image0
_chemical_formula_structural       COAu24Ga12
_chemical_formula_sum              "C1 O1 Au24 Ga12"
_cell_length_a       7.03444815
_cell_length_b       9.263960837371412
_cell_length_c       100.37522775
_cell_angle_alpha    96.84113640210477
_cell_angle_beta     90.0
_cell_angle_gamma    90.0

_space_group_name_H-M_alt    "P 1"
_space_group_IT_number       1

loop_
  _space_group_symop_operation_xyz
  'x, y, z'

loop_
  _atom_site_type_symbol
  _atom_site_label
  _atom_site_symmetry_multiplicity
  _atom_site_fract_x
  _atom_site_fract_y
  _atom_site_fract_z
  _atom_site_occupancy
  C   C1        1.0  0.895736655  0.07055726  0.5528767617681279  1.0000
  O   O1        1.0  0.885388065  0.15660252  0.56222278431138  1.0000
  Au  Au1       1.0  0.7908192350000001  0.16691299  0.43868417329528037  1.0000
  Au  Au2       1.0  0.29081923499999995  0.6041301899999999  0.46650324926936304  1.0000
  Au  Au3       1.0  0.420606785  0.009648379999999996  0.4414836387179964  1.0000
  Au  Au4       1.0  0.920606785  0.7613948  0.46370378384664707  1.0000
  Au  Au5       1.0  0.06661703500000003  0.050586189999999996  0.4585558912002519  1.0000
  Au  Au6       1.0  0.5666170349999999  0.7204569900000001  0.4466315313643915  1.0000
  Au  Au7       1.0  0.46842274500000003  0.31887333  0.4537801142978738  1.0000
  Au  Au8       1.0  0.9684227449999999  0.45216984000000005  0.45140730524060196  1.0000
  Au  Au9       1.0  0.7908192350000001  0.2780241  0.4723082591126627  1.0000
  Au  Au10      1.0  0.29081923499999995  0.7152413  0.5001273350867455  1.0000
  Au  Au11      1.0  0.420606785  0.12075949000000001  0.47510772453537875  1.0000
  Au  Au12      1.0  0.920606785  0.8725059099999998  0.4973278696640295  1.0000
  Au  Au13      1.0  0.06661703500000003  0.16169730000000002  0.4921799770176343  1.0000
  Au  Au14      1.0  0.5666170349999999  0.8315681  0.4802556171817739  1.0000
  Au  Au15      1.0  0.46842274500000003  0.42998444999999996  0.4874042031414239  1.0000
  Au  Au16      1.0  0.9684227449999999  0.5632809499999999  0.4850313910579844  1.0000
  Au  Au17      1.0  0.814565415  0.39459465  0.5050676568345702  1.0000
  Au  Au18      1.0  0.244086345  0.7303541800000001  0.5342407159159085  1.0000
  Au  Au19      1.0  0.40383366499999995  0.23252446  0.5078140977459036  1.0000
  Au  Au20      1.0  0.919952155  0.9208759299999999  0.536999545958026  1.0000
  Au  Au21      1.0  0.031577255000000026  0.19401469000000002  0.5208687857088377  1.0000
  Au  Au22      1.0  0.577148035  0.96905228  0.5157884794930564  1.0000
  Au  Au23      1.0  0.4903361150000001  0.4903346899999999  0.5294609626291017  1.0000
  Au  Au24      1.0  0.8992675549999999  0.6506082099999999  0.5217938972958532  1.0000
  Ga  Ga1       1.0  0.697437145  0.99035162  0.4596281259849554  1.0000
  Ga  Ga2       1.0  0.197437145  0.7806915600000001  0.4455592965796881  1.0000
  Ga  Ga3       1.0  0.663375345  0.5531803499999999  0.4674102068760235  1.0000
  Ga  Ga4       1.0  0.16337534500000003  0.21786282999999998  0.43777721568861994  1.0000
  Ga  Ga5       1.0  0.697437145  0.10146273  0.49325221180233775  1.0000
  Ga  Ga6       1.0  0.197437145  0.8918026699999999  0.4791833823970705  1.0000
  Ga  Ga7       1.0  0.663375345  0.6642914600000001  0.5010342926934058  1.0000
  Ga  Ga8       1.0  0.16337534500000003  0.32897393999999996  0.4714013015060023  1.0000
  Ga  Ga9       1.0  0.680435155  0.24794465000000002  0.5262374403190422  1.0000
  Ga  Ga10      1.0  0.20406188500000003  0.9434464199999999  0.5178468001188473  1.0000
  Ga  Ga11      1.0  0.5960462049999999  0.77304367  0.5332637902846119  1.0000
  Ga  Ga12      1.0  0.19297378500000004  0.47318229  0.5119850466039956  1.0000
