data_image0
_chemical_formula_structural       COV3Ir3V3Ir3V3Ir3V3Ir3
_chemical_formula_sum              "C1 O1 V12 Ir12"
_cell_length_a       6.159288396883816
_cell_length_b       7.3853115
_cell_length_c       101.16380816
_cell_angle_alpha    90.0
_cell_angle_beta     108.43494882292201
_cell_angle_gamma    90.0

_space_group_name_H-M_alt    "P 1"
_space_group_IT_number       1

loop_
  _space_group_symop_operation_xyz
  'x, y, z'

loop_
  _atom_site_type_symbol
  _atom_site_label
  _atom_site_symmetry_multiplicity
  _atom_site_fract_x
  _atom_site_fract_y
  _atom_site_fract_z
  _atom_site_occupancy
  C   C1        1.0  0.9078792549999999  0.38114116000000003  0.5336105623014996  1.0000
  O   O1        1.0  0.930711285  0.38114117000000003  0.5459829416741682  1.0000
  V   V1        1.0  0.19600494499999999  0.38114152  0.5217691121646977  1.0000
  V   V2        1.0  0.845532165  0.38114151  0.4974055535254954  1.0000
  V   V3        1.0  0.4842085649999999  0.38114173  0.5097789679560303  1.0000
  Ir  Ir1       1.0  0.182423375  0.11885834  0.505958963679395  1.0000
  Ir  Ir2       1.0  0.8495204249999999  0.17639307  0.5184165997827386  1.0000
  Ir  Ir3       1.0  0.5098059549999999  0.13114159  0.4925236753744798  1.0000
  V   V4        1.0  0.17647262499999997  0.38114159000000003  0.48610590689321487  1.0000
  V   V5        1.0  0.8431392950000001  0.38114159000000003  0.4604348268070967  1.0000
  V   V6        1.0  0.5098059549999999  0.38114159000000003  0.4732703668501558  1.0000
  Ir  Ir4       1.0  0.17647262499999997  0.13114159  0.4668525983688909  1.0000
  Ir  Ir5       1.0  0.8431392950000001  0.13114159  0.47968813533142063  1.0000
  Ir  Ir6       1.0  0.5098059549999999  0.13114159  0.45401705832583183  1.0000
  V   V7        1.0  0.06928871499999999  0.8811413300000001  0.5216528221812108  1.0000
  V   V8        1.0  0.8296953850000001  0.8811416400000002  0.49918233509094223  1.0000
  V   V9        1.0  0.5224028949999999  0.88114166  0.5112462364141693  1.0000
  Ir  Ir7       1.0  0.18242338499999997  0.64342435  0.5059589605988656  1.0000
  Ir  Ir8       1.0  0.849520725  0.5858892800000001  0.5184166151853854  1.0000
  Ir  Ir9       1.0  0.5098059549999999  0.6311415900000001  0.4925236753744798  1.0000
  V   V10       1.0  0.17647262499999997  0.8811415900000001  0.48610590689321487  1.0000
  V   V11       1.0  0.8431392950000001  0.8811415900000001  0.4604348268070967  1.0000
  V   V12       1.0  0.5098059549999999  0.8811415900000001  0.4732703668501558  1.0000
  Ir  Ir10      1.0  0.17647262499999997  0.6311415900000001  0.4668525983688909  1.0000
  Ir  Ir11      1.0  0.8431392950000001  0.6311415900000001  0.47968813533142063  1.0000
  Ir  Ir12      1.0  0.5098059549999999  0.6311415900000001  0.45401705832583183  1.0000
