data_image0
_chemical_formula_structural       COSb16Ir8Sb16Ir8
_chemical_formula_sum              "C1 O1 Sb32 Ir16"
_cell_length_a       6.67152594
_cell_length_b       12.25321207496243
_cell_length_c       104.13705429000001
_cell_angle_alpha    84.57745087948615
_cell_angle_beta     90.0
_cell_angle_gamma    90.0

_space_group_name_H-M_alt    "P 1"
_space_group_IT_number       1

loop_
  _space_group_symop_operation_xyz
  'x, y, z'

loop_
  _atom_site_type_symbol
  _atom_site_label
  _atom_site_symmetry_multiplicity
  _atom_site_fract_x
  _atom_site_fract_y
  _atom_site_fract_z
  _atom_site_occupancy
  C   C1        1.0  0.22335753999999994  0.37894945000000013  0.5613751115589146  1.0000
  O   O1        1.0  0.29673398  0.37098270000000005  0.5717311457546683  1.0000
  Sb  Sb1       1.0  0.86502939  0.4250203300000001  0.48671029896700485  1.0000
  Sb  Sb2       1.0  0.86502939  0.9250203300000001  0.453929407935715  1.0000
  Sb  Sb3       1.0  0.36502938999999995  0.07409315000000002  0.46104974527662146  1.0000
  Sb  Sb4       1.0  0.36502938999999995  0.57409315  0.4282688542453317  1.0000
  Sb  Sb5       1.0  0.13497060999999996  0.07409315000000002  0.4282688542453317  1.0000
  Sb  Sb6       1.0  0.13497060999999996  0.57409315  0.46104974527662146  1.0000
  Sb  Sb7       1.0  0.63497061  0.4250203300000001  0.45392940793571507  1.0000
  Sb  Sb8       1.0  0.63497061  0.9250203300000001  0.48671029896700485  1.0000
  Sb  Sb9       1.0  0.36255433  0.32725372  0.47346048900030563  1.0000
  Sb  Sb10      1.0  0.36255433  0.8272537200000001  0.44067959796901573  1.0000
  Sb  Sb11      1.0  0.86255433  0.17185976000000003  0.47429955524332074  1.0000
  Sb  Sb12      1.0  0.86255433  0.67185976  0.4415186642120309  1.0000
  Sb  Sb13      1.0  0.6374456699999999  0.17185976000000003  0.4415186642120309  1.0000
  Sb  Sb14      1.0  0.6374456699999999  0.67185976  0.47429955524332074  1.0000
  Sb  Sb15      1.0  0.13744566999999996  0.32725372  0.4406795979690158  1.0000
  Sb  Sb16      1.0  0.13744566999999996  0.8272537200000001  0.4734604890003056  1.0000
  Ir  Ir1       1.0  0.50098172  0.36371048000000006  0.4309223591973742  1.0000
  Ir  Ir2       1.0  0.50098172  0.8637104800000002  0.463703250228664  1.0000
  Ir  Ir3       1.0  0.0009817199999999774  0.13540300000000005  0.4512759029836725  1.0000
  Ir  Ir4       1.0  0.0009817199999999774  0.635403  0.4840567940149623  1.0000
  Ir  Ir5       1.0  0.49901828  0.13540300000000005  0.48405679401496227  1.0000
  Ir  Ir6       1.0  0.49901828  0.635403  0.4512759029836725  1.0000
  Ir  Ir7       1.0  0.99901828  0.36371048000000006  0.463703250228664  1.0000
  Ir  Ir8       1.0  0.99901828  0.8637104800000002  0.43092235919737415  1.0000
  Sb  Sb17      1.0  0.90986972  0.4215154600000001  0.5528582558106496  1.0000
  Sb  Sb18      1.0  0.86502939  0.9250203300000001  0.5194911899982946  1.0000
  Sb  Sb19      1.0  0.36211658  0.06923121000000003  0.5260462077610101  1.0000
  Sb  Sb20      1.0  0.36502938999999995  0.57409315  0.4938306363079113  1.0000
  Sb  Sb21      1.0  0.13497060999999996  0.07409315000000002  0.49383063630791124  1.0000
  Sb  Sb22      1.0  0.13810453  0.5675514700000001  0.5260194126606811  1.0000
  Sb  Sb23      1.0  0.63497061  0.4250203300000001  0.5194911899982946  1.0000
  Sb  Sb24      1.0  0.6720315099999999  0.93076879  0.5504736557858257  1.0000
  Sb  Sb25      1.0  0.36238490999999995  0.32062359000000007  0.540025661356462  1.0000
  Sb  Sb26      1.0  0.36255433  0.8272537200000001  0.5062413800315954  1.0000
  Sb  Sb27      1.0  0.88145486  0.16629676  0.5405167584411799  1.0000
  Sb  Sb28      1.0  0.86255433  0.67185976  0.5070804462746105  1.0000
  Sb  Sb29      1.0  0.6374456699999999  0.17185976000000003  0.5070804462746105  1.0000
  Sb  Sb30      1.0  0.62391035  0.66801966  0.5406272267658663  1.0000
  Sb  Sb31      1.0  0.13744566999999996  0.32725372  0.5062413800315954  1.0000
  Sb  Sb32      1.0  0.11597048999999998  0.8288419300000001  0.5404043462096554  1.0000
  Ir  Ir9       1.0  0.50098172  0.36371048000000006  0.4964841412599537  1.0000
  Ir  Ir10      1.0  0.49464062999999997  0.8634521300000002  0.5293870788266422  1.0000
  Ir  Ir11      1.0  0.0009817199999999774  0.13540300000000005  0.516837685046252  1.0000
  Ir  Ir12      1.0  0.99162537  0.63106253  0.5467673957964024  1.0000
  Ir  Ir13      1.0  0.51346033  0.12835565000000002  0.5470229589009715  1.0000
  Ir  Ir14      1.0  0.49901828  0.635403  0.516837685046252  1.0000
  Ir  Ir15      1.0  0.005110909999999977  0.36054467000000007  0.5290224143605428  1.0000
  Ir  Ir16      1.0  0.99901828  0.8637104800000002  0.4964841412599538  1.0000
