data_image0
_chemical_formula_structural       COCu18Si6
_chemical_formula_sum              "C1 O1 Cu18 Si6"
_cell_length_a       4.535572805960599
_cell_length_b       6.873161349746431
_cell_length_c       36.49815216
_cell_angle_alpha    89.71647250304518
_cell_angle_beta     89.57034301334201
_cell_angle_gamma    88.9528132305127

_space_group_name_H-M_alt    "P 1"
_space_group_IT_number       1

loop_
  _space_group_symop_operation_xyz
  'x, y, z'

loop_
  _atom_site_type_symbol
  _atom_site_label
  _atom_site_symmetry_multiplicity
  _atom_site_fract_x
  _atom_site_fract_y
  _atom_site_fract_z
  _atom_site_occupancy
  C   C1        1.0  0.36867796  0.5953412249999999  0.6235321240620977  1.0000
  O   O1        1.0  0.32746679  0.621272585  0.6549482595683684  1.0000
  Cu  Cu1       1.0  0.8577929500000001  0.45014031499999996  0.5521904944422236  1.0000
  Cu  Cu2       1.0  0.508603  0.8928571449999999  0.5089634050607151  1.0000
  Cu  Cu3       1.0  0.13931497000000007  0.060244164999999975  0.5919705372796783  1.0000
  Cu  Cu4       1.0  0.4843329200000001  0.751676935  0.5777278502869503  1.0000
  Cu  Cu5       1.0  0.1817869900000001  0.177672785  0.5285053430155743  1.0000
  Cu  Cu6       1.0  0.8419363300000001  0.607142855  0.4871085109360721  1.0000
  Cu  Cu7       1.0  0.991397  0.815634945  0.5436876621416781  1.0000
  Cu  Cu8       1.0  0.6752696700000002  0.24999999499999997  0.49803595340886697  1.0000
  Cu  Cu9       1.0  0.37050669  0.39371759499999986  0.5850556628152495  1.0000
  Cu  Cu10      1.0  0.8419363300000001  0.749999995  0.42154384692024893  1.0000
  Cu  Cu11      1.0  0.508603  0.17857142499999998  0.3778340678500158  1.0000
  Cu  Cu12      1.0  0.17526967000000004  0.32142857499999994  0.465253625990482  1.0000
  Cu  Cu13      1.0  0.508603  0.03571428499999999  0.4433987410448921  1.0000
  Cu  Cu14      1.0  0.17526967000000007  0.4642857149999999  0.399688961974659  1.0000
  Cu  Cu15      1.0  0.84193633  0.8928571449999999  0.3559791829044258  1.0000
  Cu  Cu16      1.0  0.008603000000000055  0.10714285499999998  0.4106164044474539  1.0000
  Cu  Cu17      1.0  0.6752696700000002  0.535714285  0.36690662537722074  1.0000
  Cu  Cu18      1.0  0.34193633000000007  0.678571425  0.45432618351768705  1.0000
  Si  Si1       1.0  0.008603000000000057  0.9642857149999999  0.47618106846327696  1.0000
  Si  Si2       1.0  0.6469185400000002  0.09302590499999998  0.5682132109581437  1.0000
  Si  Si3       1.0  0.34512743000000007  0.5389110049999999  0.5210118852942063  1.0000
  Si  Si4       1.0  0.008603000000000053  0.24999999499999997  0.3450517404316309  1.0000
  Si  Si5       1.0  0.6752696700000002  0.39285714499999996  0.43247128939304386  1.0000
  Si  Si6       1.0  0.34193633  0.8214285749999999  0.38876151950186394  1.0000
