data_image0
_chemical_formula_structural       COAl4Fe6Si6Al4Fe6Si6
_chemical_formula_sum              "C1 O1 Al8 Fe12 Si12"
_cell_length_a       6.3611477158222005
_cell_length_b       4.628601968368549
_cell_length_c       107.50310117000001
_cell_angle_alpha    73.22232302183534
_cell_angle_beta     78.10007007676467
_cell_angle_gamma    100.60816571736689

_space_group_name_H-M_alt    "P 1"
_space_group_IT_number       1

loop_
  _space_group_symop_operation_xyz
  'x, y, z'

loop_
  _atom_site_type_symbol
  _atom_site_label
  _atom_site_symmetry_multiplicity
  _atom_site_fract_x
  _atom_site_fract_y
  _atom_site_fract_z
  _atom_site_occupancy
  C   C1        1.0  0.91761807  0.9492003699999999  0.5664253452986746  1.0000
  O   O1        1.0  0.86469772  0.81619502  0.5784050705833833  1.0000
  Al  Al1       1.0  0.67509122  0.02439037000000001  0.5120794632132688  1.0000
  Al  Al2       1.0  0.34428401  0.5447612900000001  0.53445889614799  1.0000
  Al  Al3       1.0  0.64527019  0.6636086299999999  0.496613522305185  1.0000
  Al  Al4       1.0  0.32490877999999995  0.19704567  0.5191882587793439  1.0000
  Fe  Fe1       1.0  0.9689580800000002  0.24276103  0.5323509617153519  1.0000
  Fe  Fe2       1.0  0.02818861999999997  0.97560963  0.4993999851338675  1.0000
  Fe  Fe3       1.0  0.68208852  0.47559598  0.5195912537345504  1.0000
  Fe  Fe4       1.0  0.31791147999999997  0.74584006  0.5116764682580622  1.0000
  Fe  Fe5       1.0  0.70000747  0.60879736  0.5435230260694381  1.0000
  Fe  Fe6       1.0  0.31411334  0.6456962999999999  0.5540834063244071  1.0000
  Si  Si1       1.0  0.41303769  0.15378068  0.4913661281296555  1.0000
  Si  Si2       1.0  0.054166359999999955  0.8884051  0.5485276164734463  1.0000
  Si  Si3       1.0  0.57737359  0.09428261999999998  0.5411987590580702  1.0000
  Si  Si4       1.0  0.02367293999999997  0.43153702999999993  0.5076957736837279  1.0000
  Si  Si5       1.0  0.9763270600000001  0.7898990100000002  0.5235719483088848  1.0000
  Si  Si6       1.0  0.93366335  0.34873946999999994  0.5528979413298736  1.0000
  Al  Al5       1.0  0.67509122  0.02439037000000001  0.4423082645002298  1.0000
  Al  Al6       1.0  0.35472981  0.55782741  0.46488300097438867  1.0000
  Al  Al7       1.0  0.64527019  0.6636086299999999  0.4268423235921461  1.0000
  Al  Al8       1.0  0.32490877999999995  0.19704567  0.44941706006630494  1.0000
  Fe  Fe7       1.0  0.9718113800000001  0.24582641  0.4620965381457062  1.0000
  Fe  Fe8       1.0  0.02818861999999997  0.97560963  0.4296287864208285  1.0000
  Fe  Fe9       1.0  0.68208852  0.47559598  0.44982005502151146  1.0000
  Fe  Fe10      1.0  0.31791147999999997  0.74584006  0.44190526954502324  1.0000
  Fe  Fe11      1.0  0.70759586  0.57093912  0.4748570031440137  1.0000
  Fe  Fe12      1.0  0.2924041399999999  0.6504969199999999  0.48663952013555994  1.0000
  Si  Si7       1.0  0.41303769  0.15378068  0.4215949294166166  1.0000
  Si  Si8       1.0  0.042529309999999966  0.88650753  0.47845343632999593  1.0000
  Si  Si9       1.0  0.58696231  0.06765536  0.47013039514991817  1.0000
  Si  Si10      1.0  0.02367293999999997  0.43153702999999993  0.43792457497068893  1.0000
  Si  Si11      1.0  0.9763270600000001  0.7898990100000002  0.45380074959584576  1.0000
  Si  Si12      1.0  0.95747069  0.33492851  0.48304308694957776  1.0000
