data_image0
_chemical_formula_structural       COGa3Ni2Ga3Ni2Ga3Ni2Ga3Ni2
_chemical_formula_sum              "C1 O1 Ga12 Ni8"
_cell_length_a       8.214651493063615
_cell_length_b       4.96772355
_cell_length_c       102.85860599
_cell_angle_alpha    90.0
_cell_angle_beta     119.9999999473939
_cell_angle_gamma    90.0

_space_group_name_H-M_alt    "P 1"
_space_group_IT_number       1

loop_
  _space_group_symop_operation_xyz
  'x, y, z'

loop_
  _atom_site_type_symbol
  _atom_site_label
  _atom_site_symmetry_multiplicity
  _atom_site_fract_x
  _atom_site_fract_y
  _atom_site_fract_z
  _atom_site_occupancy
  C   C1        1.0  0.5667169750000001  0.14935003999999996  0.5376753078190512  1.0000
  O   O1        1.0  0.6582310550000001  0.14388850999999994  0.55074554014778  1.0000
  Ga  Ga1       1.0  0.250000005  0.4311932299999999  0.4492544598522199  1.0000
  Ga  Ga2       1.0  0.416666665  0.71038039  0.4758756390771933  1.0000
  Ga  Ga3       1.0  0.08333333500000002  0.07078680999999995  0.46256504946470656  1.0000
  Ni  Ni1       1.0  0.250000005  0.9292131900000002  0.4492544598522199  1.0000
  Ni  Ni2       1.0  0.416666665  0.21236042999999993  0.4758756390771933  1.0000
  Ga  Ga4       1.0  0.24364232500000005  0.42416913  0.48810165637848824  1.0000
  Ga  Ga5       1.0  0.41239794500000004  0.66490264  0.5153241568813839  1.0000
  Ga  Ga6       1.0  0.09190668500000002  0.08850539999999994  0.5035168640746206  1.0000
  Ni  Ni3       1.0  0.25717785500000007  0.9275276100000001  0.490237047478009  1.0000
  Ni  Ni4       1.0  0.429708865  0.16263574999999994  0.5176831562848813  1.0000
  Ga  Ga7       1.0  0.7500000050000001  0.4311932299999999  0.44925445985221985  1.0000
  Ga  Ga8       1.0  0.916666665  0.71038039  0.4758756390771932  1.0000
  Ga  Ga9       1.0  0.5833333350000001  0.07078680999999995  0.46256504946470656  1.0000
  Ni  Ni5       1.0  0.7500000050000001  0.9292131900000002  0.44925445985221985  1.0000
  Ni  Ni6       1.0  0.916666665  0.21236042999999993  0.4758756390771932  1.0000
  Ga  Ga10      1.0  0.744625375  0.42831962999999995  0.4883326983799569  1.0000
  Ga  Ga11      1.0  0.9148699250000001  0.69573109  0.5153512050621598  1.0000
  Ga  Ga12      1.0  0.5893045450000001  0.08705655999999995  0.5035266233981437  1.0000
  Ni  Ni7       1.0  0.750068155  0.9275224500000001  0.48912968211498825  1.0000
  Ni  Ni8       1.0  0.9085785350000002  0.20959253999999994  0.5143550161237715  1.0000
