data_image0
_chemical_formula_structural       COAl12Pt36
_chemical_formula_sum              "C1 O1 Al12 Pt36"
_cell_length_a       13.659540288175899
_cell_length_b       5.53156217
_cell_length_c       108.94375450999999
_cell_angle_alpha    90.0
_cell_angle_beta     91.29000546955506
_cell_angle_gamma    90.0

_space_group_name_H-M_alt    "P 1"
_space_group_IT_number       1

loop_
  _space_group_symop_operation_xyz
  'x, y, z'

loop_
  _atom_site_type_symbol
  _atom_site_label
  _atom_site_symmetry_multiplicity
  _atom_site_fract_x
  _atom_site_fract_y
  _atom_site_fract_z
  _atom_site_occupancy
  C   C1        1.0  0.4217137899999999  0.6978731  0.5422873186136064  1.0000
  O   O1        1.0  0.42429494  0.7154327100000001  0.553194922461791  1.0000
  Al  Al1       1.0  0.58040592  0.08557696  0.4776404153412599  1.0000
  Al  Al2       1.0  0.9097879199999999  0.07679148999999999  0.5075146541203537  1.0000
  Al  Al3       1.0  0.24707259  0.08557696  0.44785152886442675  1.0000
  Al  Al4       1.0  0.91959408  0.58557696  0.46169952077662557  1.0000
  Al  Al5       1.0  0.25292741  0.58557696  0.4914884036787926  1.0000
  Al  Al6       1.0  0.5949710699999999  0.5909432  0.5209697187358028  1.0000
  Al  Al7       1.0  0.74707259  0.58557696  0.4925348550050103  1.0000
  Al  Al8       1.0  0.07558298  0.56777274  0.5222859536865928  1.0000
  Al  Al9       1.0  0.41373924999999995  0.58557696  0.4627459721028433  1.0000
  Al  Al10      1.0  0.7529274099999999  0.08557696  0.4468050775382091  1.0000
  Al  Al11      1.0  0.08626075000000001  0.08557696  0.47659396044037616  1.0000
  Al  Al12      1.0  0.42137467999999995  0.08196569999999999  0.5062473885203476  1.0000
  Pt  Pt1       1.0  0.5924595  0.80819845  0.5002744253284921  1.0000
  Pt  Pt2       1.0  0.9300287499999998  0.82499969  0.5281406204534906  1.0000
  Pt  Pt3       1.0  0.25912617  0.80819845  0.470485542426325  1.0000
  Pt  Pt4       1.0  0.75098686  0.08557696  0.4918352463802941  1.0000
  Pt  Pt5       1.0  0.08820051  0.08412708999999999  0.5216597758527229  1.0000
  Pt  Pt6       1.0  0.41765352999999994  0.08557696  0.46204635990346105  1.0000
  Pt  Pt7       1.0  0.6015435  0.28094647  0.4564029058572306  1.0000
  Pt  Pt8       1.0  0.9348768299999999  0.28094647  0.4861917923340637  1.0000
  Pt  Pt9       1.0  0.27201178  0.26454455000000004  0.5162570612690737  1.0000
  Pt  Pt10      1.0  0.7682101599999999  0.39020744999999996  0.47129734909564713  1.0000
  Pt  Pt11      1.0  0.1015435  0.39020744999999996  0.5010862319978142  1.0000
  Pt  Pt12      1.0  0.44546475  0.42754274000000003  0.5303819289433701  1.0000
  Pt  Pt13      1.0  0.40754049999999997  0.36295547  0.4837488333553108  1.0000
  Pt  Pt14      1.0  0.74216392  0.34147985  0.514321905056579  1.0000
  Pt  Pt15      1.0  0.07420716  0.36295547  0.4539599504531439  1.0000
  Pt  Pt16      1.0  0.5651231699999999  0.78094647  0.4531481437838218  1.0000
  Pt  Pt17      1.0  0.8984564999999999  0.78094647  0.4829370266859888  1.0000
  Pt  Pt18      1.0  0.22679992  0.7589738100000001  0.513723255726278  1.0000
  Pt  Pt19      1.0  0.7317898399999999  0.89020745  0.46804258702223833  1.0000
  Pt  Pt20      1.0  0.06512317000000001  0.89020745  0.49783146992440536  1.0000
  Pt  Pt21      1.0  0.38320348  0.92320851  0.5282164498452843  1.0000
  Pt  Pt22      1.0  0.42579284  0.8629554700000001  0.4853799856647416  1.0000
  Pt  Pt23      1.0  0.7516945399999999  0.83853232  0.5157455587234112  1.0000
  Pt  Pt24      1.0  0.09245950000000003  0.8629554700000001  0.4555910991879085  1.0000
  Pt  Pt25      1.0  0.5843202  0.58557696  0.4769408031418776  1.0000
  Pt  Pt26      1.0  0.9114450999999999  0.58474576  0.5061582613706944  1.0000
  Pt  Pt27      1.0  0.25098686  0.58557696  0.44715192023971057  1.0000
  Pt  Pt28      1.0  0.9156798  0.08557696  0.4623991329760079  1.0000
  Pt  Pt29      1.0  0.24901314000000002  0.08557696  0.49218801587817496  1.0000
  Pt  Pt30      1.0  0.5710356599999998  0.08841358999999999  0.5218436495271246  1.0000
  Pt  Pt31      1.0  0.5742071599999999  0.30819845  0.4986432765937274  1.0000
  Pt  Pt32      1.0  0.9210785499999999  0.32080118999999996  0.527384539253865  1.0000
  Pt  Pt33      1.0  0.24087383000000004  0.30819845  0.46885439011689434  1.0000
  Pt  Pt34      1.0  0.7490131399999999  0.58557696  0.44750468973759133  1.0000
  Pt  Pt35      1.0  0.08234647000000002  0.58557696  0.47729357263975836  1.0000
  Pt  Pt36      1.0  0.40987093999999996  0.58542991  0.5067043237881271  1.0000
