data_image0
_chemical_formula_structural       COPt12V6
_chemical_formula_sum              "C1 O1 Pt12 V6"
_cell_length_a       7.271757525147786
_cell_length_b       4.841608102922162
_cell_length_c       98.15087076
_cell_angle_alpha    90.14382005638423
_cell_angle_beta     90.39114833513663
_cell_angle_gamma    98.06720053830966

_space_group_name_H-M_alt    "P 1"
_space_group_IT_number       1

loop_
  _space_group_symop_operation_xyz
  'x, y, z'

loop_
  _atom_site_type_symbol
  _atom_site_label
  _atom_site_symmetry_multiplicity
  _atom_site_fract_x
  _atom_site_fract_y
  _atom_site_fract_z
  _atom_site_occupancy
  C   C1        1.0  0.29283531500000004  0.7658184900000001  0.5355951352014113  1.0000
  O   O1        1.0  0.25813182500000004  0.7725940900000001  0.5475046203905376  1.0000
  Pt  Pt1       1.0  0.222480895  0.15788681000000004  0.46971232236744587  1.0000
  Pt  Pt2       1.0  0.6770263549999999  0.5669777199999999  0.45667540122150085  1.0000
  Pt  Pt3       1.0  0.5021375050000001  0.018773920000000003  0.4524953796094624  1.0000
  Pt  Pt4       1.0  0.04759204500000002  0.60968301  0.4655323007554074  1.0000
  Pt  Pt5       1.0  0.320513595  0.34526743000000004  0.4959632941603718  1.0000
  Pt  Pt6       1.0  0.7679354449999999  0.7487959000000001  0.4827492406452685  1.0000
  Pt  Pt7       1.0  0.5930465949999999  0.20059210000000005  0.47856921903323  1.0000
  Pt  Pt8       1.0  0.13850113500000003  0.7915011900000001  0.49160614017917503  1.0000
  Pt  Pt9       1.0  0.413935195  0.5235358700000001  0.5223987837375467  1.0000
  Pt  Pt10      1.0  0.8612441249999998  0.9377076399999998  0.5097870187104213  1.0000
  Pt  Pt11      1.0  0.695434845  0.39997241  0.5055247622939251  1.0000
  Pt  Pt12      1.0  0.221721095  0.9812260800000002  0.518526124458785  1.0000
  V   V1        1.0  0.407763745  0.6792394599999999  0.47414076926627685  1.0000
  V   V2        1.0  0.8623091949999999  0.08833036999999999  0.4611038509884542  1.0000
  V   V3        1.0  0.5025137449999999  0.87421305  0.5007086685805678  1.0000
  V   V4        1.0  0.9532182849999998  0.27014855  0.4871776904122218  1.0000
  V   V5        1.0  0.5772768149999998  0.053869489999999985  0.5228777228869603  1.0000
  V   V6        1.0  0.04678171500000001  0.44404368000000005  0.5113849443281655  1.0000
