data_image0
_chemical_formula_structural       COV4Ni8V4Ni8V4Ni8V4Ni8
_chemical_formula_sum              "C1 O1 V16 Ni32"
_cell_length_a       8.062284662188793
_cell_length_b       8.817478339109304
_cell_length_c       100.8611742
_cell_angle_alpha    109.61574636924594
_cell_angle_beta     79.53537758760714
_cell_angle_gamma    79.53537755571944

_space_group_name_H-M_alt    "P 1"
_space_group_IT_number       1

loop_
  _space_group_symop_operation_xyz
  'x, y, z'

loop_
  _atom_site_type_symbol
  _atom_site_label
  _atom_site_symmetry_multiplicity
  _atom_site_fract_x
  _atom_site_fract_y
  _atom_site_fract_z
  _atom_site_occupancy
  C   C1        1.0  0.8495586850000001  0.48490948999999994  0.5369316399370773  1.0000
  O   O1        1.0  0.854275285  0.5278889699999999  0.5494651207322596  1.0000
  V   V1        1.0  0.081897975  0.22267835000000002  0.49424584256181814  1.0000
  V   V2        1.0  0.086076195  0.48549006  0.5158345767386912  1.0000
  V   V3        1.0  0.5822596550000001  0.09640504000000007  0.505225659098164  1.0000
  V   V4        1.0  0.5818786450000001  0.3571520399999999  0.5260241195870273  1.0000
  Ni  Ni1       1.0  0.245260345  0.18198820000000004  0.5125298962775657  1.0000
  Ni  Ni2       1.0  0.26751752500000003  0.41876895999999997  0.532739822728455  1.0000
  Ni  Ni3       1.0  0.421512595  0.13691649999999997  0.5295140077744301  1.0000
  Ni  Ni4       1.0  0.41573828500000004  0.38782158000000005  0.5085652821040455  1.0000
  Ni  Ni5       1.0  0.751231315  0.061915580000000046  0.522833491959158  1.0000
  Ni  Ni6       1.0  0.749787575  0.30570594999999995  0.5015042750218679  1.0000
  Ni  Ni7       1.0  0.9140083750000001  0.014650750000000013  0.49791514939540416  1.0000
  Ni  Ni8       1.0  0.9122989950000001  0.27507345  0.5207682223366257  1.0000
  V   V5        1.0  0.081897975  0.22267835000000002  0.45053487926774033  1.0000
  V   V6        1.0  0.081897975  0.47267835  0.47239036091477926  1.0000
  V   V7        1.0  0.581897975  0.09767835000000004  0.4614626185613761  1.0000
  V   V8        1.0  0.581897975  0.3476783500000001  0.483318100208415  1.0000
  Ni  Ni9       1.0  0.249787575  0.18070595000000003  0.4687210510214258  1.0000
  Ni  Ni10      1.0  0.249787575  0.43070595  0.4905765326684647  1.0000
  Ni  Ni11      1.0  0.41400837500000004  0.13965075000000005  0.4869874101017684  1.0000
  Ni  Ni12      1.0  0.41400837500000004  0.38965074999999993  0.4651319284547294  1.0000
  Ni  Ni13      1.0  0.749787575  0.055705950000000046  0.4796487933748291  1.0000
  Ni  Ni14      1.0  0.749787575  0.30570594999999995  0.4577933117277901  1.0000
  Ni  Ni15      1.0  0.9140083750000001  0.014650750000000013  0.4542041861013263  1.0000
  Ni  Ni16      1.0  0.9140083750000001  0.26465074999999993  0.4760596677483652  1.0000
  V   V9        1.0  0.081897975  0.72267835  0.49424584256181814  1.0000
  V   V10       1.0  0.08216028500000001  0.9853492500000002  0.5160257816092524  1.0000
  V   V11       1.0  0.5825840950000001  0.5963625699999999  0.5051460102905855  1.0000
  V   V12       1.0  0.5878726350000001  0.8546636300000001  0.5258840617898585  1.0000
  Ni  Ni17      1.0  0.246883965  0.6819337299999999  0.5126393380412116  1.0000
  Ni  Ni18      1.0  0.261435885  0.9205317700000002  0.5326085158663126  1.0000
  Ni  Ni19      1.0  0.423140035  0.6399808299999998  0.5294732700300445  1.0000
  Ni  Ni20      1.0  0.416610285  0.88799098  0.5085554908480718  1.0000
  Ni  Ni21      1.0  0.756451705  0.5660827300000001  0.5238807769371747  1.0000
  Ni  Ni22      1.0  0.749787575  0.8057059499999999  0.5015042750218679  1.0000
  Ni  Ni23      1.0  0.9140083750000001  0.51465075  0.49791514939540404  1.0000
  Ni  Ni24      1.0  0.918102025  0.7723990400000001  0.5191408819363547  1.0000
  V   V13       1.0  0.081897975  0.72267835  0.4505348792677403  1.0000
  V   V14       1.0  0.081897975  0.97267835  0.4723903609147792  1.0000
  V   V15       1.0  0.581897975  0.5976783499999999  0.4614626185613761  1.0000
  V   V16       1.0  0.581897975  0.84767835  0.4833181002084149  1.0000
  Ni  Ni25      1.0  0.249787575  0.68070595  0.4687210510214258  1.0000
  Ni  Ni26      1.0  0.249787575  0.9307059500000002  0.4905765326684647  1.0000
  Ni  Ni27      1.0  0.41400837500000004  0.63965075  0.4869874101017684  1.0000
  Ni  Ni28      1.0  0.41400837500000004  0.88965075  0.4651319284547295  1.0000
  Ni  Ni29      1.0  0.749787575  0.5557059499999999  0.479648793374829  1.0000
  Ni  Ni30      1.0  0.749787575  0.8057059499999999  0.45779331172779014  1.0000
  Ni  Ni31      1.0  0.9140083750000001  0.51465075  0.4542041861013263  1.0000
  Ni  Ni32      1.0  0.9140083750000001  0.76465075  0.4760596677483652  1.0000
