data_image0
_chemical_formula_structural       V16Co16Si16CO
_chemical_formula_sum              "V16 Co16 Si16 C1 O1"
_cell_length_a       6.9722341195149795
_cell_length_b       9.901797437612663
_cell_length_c       109.13677339
_cell_angle_alpha    77.08418050835432
_cell_angle_beta     70.16381552946072
_cell_angle_gamma    68.35612477761161

_space_group_name_H-M_alt    "P 1"
_space_group_IT_number       1

loop_
  _space_group_symop_operation_xyz
  'x, y, z'

loop_
  _atom_site_type_symbol
  _atom_site_label
  _atom_site_symmetry_multiplicity
  _atom_site_fract_x
  _atom_site_fract_y
  _atom_site_fract_z
  _atom_site_occupancy
  V   V1        1.0  0.59252291  0.7905955549999999  0.5279715783918829  1.0000
  V   V2        1.0  0.33540026000000006  0.5436122349999999  0.4612304408747055  1.0000
  V   V3        1.0  0.83540026  0.043612235  0.5060558147774882  1.0000
  V   V4        1.0  0.08540026000000005  0.293612235  0.4836431278260968  1.0000
  V   V5        1.0  0.6229077700000002  0.781109725  0.4847639880935509  1.0000
  V   V6        1.0  0.37290777  0.5311097250000001  0.5071766750449422  1.0000
  V   V7        1.0  0.87290777  0.031109725  0.4623513011421596  1.0000
  V   V8        1.0  0.1451977  0.28524337499999997  0.5276564022228977  1.0000
  V   V9        1.0  0.88842745  0.7405850449999999  0.45647651274067036  1.0000
  V   V10       1.0  0.63842745  0.490585045  0.4788891996920616  1.0000
  V   V11       1.0  0.14066910000000002  0.9844489350000001  0.5224628662679529  1.0000
  V   V12       1.0  0.38842745000000006  0.240585045  0.5013018866434529  1.0000
  V   V13       1.0  0.92593496  0.728082535  0.5024227469109068  1.0000
  V   V14       1.0  0.68139123  0.47349080499999996  0.5246983506968436  1.0000
  V   V15       1.0  0.17593496000000006  0.9780825350000001  0.4800100599595156  1.0000
  V   V16       1.0  0.42593496000000003  0.22808253499999998  0.45759737300812436  1.0000
  Co  Co1       1.0  0.75389097  0.015551065000000001  0.5295947589713513  1.0000
  Co  Co2       1.0  0.45574897000000014  0.7571757749999999  0.465486681847373  1.0000
  Co  Co3       1.0  0.95574897  0.25717577499999994  0.5103120557501556  1.0000
  Co  Co4       1.0  0.2057489700000001  0.507175775  0.48789936879876433  1.0000
  Co  Co5       1.0  0.51981549  0.9431092550000001  0.5045684443228555  1.0000
  Co  Co6       1.0  0.27815873  0.687731205  0.5266170057969597  1.0000
  Co  Co7       1.0  0.76981549  0.19310925499999998  0.4821557573714641  1.0000
  Co  Co8       1.0  0.01981549000000005  0.443109255  0.45974307042007284  1.0000
  Co  Co9       1.0  0.9801845099999998  0.566267545  0.527044650622082  1.0000
  Co  Co10      1.0  0.74151973  0.328585515  0.45908474346275707  1.0000
  Co  Co11      1.0  0.24151973000000018  0.8285855149999999  0.5039101173655397  1.0000
  Co  Co12      1.0  0.49151973000000004  0.078585515  0.4814974304141484  1.0000
  Co  Co13      1.0  0.8055862500000001  0.514518995  0.49816650593823947  1.0000
  Co  Co14      1.0  0.5562794900000002  0.268021305  0.5215533737755852  1.0000
  Co  Co15      1.0  0.05558625000000013  0.764518995  0.47575381898684826  1.0000
  Co  Co16      1.0  0.15141619  0.052788925  0.5391452101027193  1.0000
  Si  Si1       1.0  0.9643094099999998  0.8023067549999999  0.5220797133159516  1.0000
  Si  Si2       1.0  0.70649737  0.5684991349999999  0.4541364596795392  1.0000
  Si  Si3       1.0  0.20649736999999999  0.068499135  0.4989618335823218  1.0000
  Si  Si4       1.0  0.45649737000000007  0.318499135  0.47654914663093045  1.0000
  Si  Si5       1.0  0.46152732999999996  0.063383325  0.5222153656554712  1.0000
  Si  Si6       1.0  0.20528238999999998  0.819714115  0.4542453853381229  1.0000
  Si  Si7       1.0  0.70528239  0.31971411499999997  0.4990707592409055  1.0000
  Si  Si8       1.0  0.9552823899999999  0.5697141149999999  0.47665807228951423  1.0000
  Si  Si9       1.0  0.5548378500000001  0.7031956349999999  0.5095167281060734  1.0000
  Si  Si10      1.0  0.29647869000000004  0.453269835  0.5326261232929308  1.0000
  Si  Si11      1.0  0.8048378499999997  0.9531956350000002  0.487104041154682  1.0000
  Si  Si12      1.0  0.05483785000000003  0.20319563499999999  0.4646913542032908  1.0000
  Si  Si13      1.0  0.05605283000000001  0.451980655  0.5094078024474896  1.0000
  Si  Si14      1.0  0.8190541899999999  0.20726482499999996  0.5334433257194777  1.0000
  Si  Si15      1.0  0.30605283000000005  0.701980655  0.48699511549609825  1.0000
  Si  Si16      1.0  0.5560528299999999  0.9519806550000001  0.46458242854470705  1.0000
  C   C1        1.0  0.67905607  0.5792208149999999  0.5376966655939461  1.0000
  O   O1        1.0  0.5791923200000001  0.675727405  0.5458635403204606  1.0000
