data_image0
_chemical_formula_structural       COGa12Pt12
_chemical_formula_sum              "C1 O1 Ga12 Pt12"
_cell_length_a       7.06941771
_cell_length_b       7.069417701590579
_cell_length_c       104.63293232000001
_cell_angle_alpha    90.0
_cell_angle_beta     90.0
_cell_angle_gamma    60.00000000744276

_space_group_name_H-M_alt    "P 1"
_space_group_IT_number       1

loop_
  _space_group_symop_operation_xyz
  'x, y, z'

loop_
  _atom_site_type_symbol
  _atom_site_label
  _atom_site_symmetry_multiplicity
  _atom_site_fract_x
  _atom_site_fract_y
  _atom_site_fract_z
  _atom_site_occupancy
  C   C1        1.0  0.6877428999999999  0.68776148  0.5396232903272935  1.0000
  O   O1        1.0  0.6876226099999999  0.68776081  0.5509055778207552  1.0000
  Ga  Ga1       1.0  0.6878418099999999  0.68784418  0.479164471131851  1.0000
  Ga  Ga2       1.0  0.021175139999999915  0.021177509999999993  0.45158159149827914  1.0000
  Ga  Ga3       1.0  0.35452282999999996  0.3544957  0.5082735468626821  1.0000
  Ga  Ga4       1.0  0.9663197999999997  0.64642848  0.5239005319557405  1.0000
  Ga  Ga5       1.0  0.2926288299999999  0.97882249  0.4968408289575727  1.0000
  Ga  Ga6       1.0  0.62635019  0.31082740000000003  0.46898777500718314  1.0000
  Ga  Ga7       1.0  0.64643758  0.45079773999999995  0.5239003333589992  1.0000
  Ga  Ga8       1.0  0.9788248600000004  0.7921158099999999  0.4968413088996975  1.0000
  Ga  Ga9       1.0  0.31082503  0.12635256  0.46898777500718314  1.0000
  Ga  Ga10      1.0  0.4507218799999999  0.96631352  0.5239008199210153  1.0000
  Ga  Ga11      1.0  0.7921054699999999  0.2926286  0.49684098452502007  1.0000
  Ga  Ga12      1.0  0.12635018999999992  0.6263525600000001  0.46898777500718314  1.0000
  Pt  Pt1       1.0  0.6878434399999998  0.68785677  0.5038303717589634  1.0000
  Pt  Pt2       1.0  0.021175139999999915  0.021177509999999993  0.4766773018128165  1.0000
  Pt  Pt3       1.0  0.3545084699999999  0.35451083999999994  0.4490944221792447  1.0000
  Pt  Pt4       1.0  0.74576813  0.059563189999999995  0.5155736817276919  1.0000
  Pt  Pt5       1.0  0.09083257999999993  0.38186263  0.48820541897255765  1.0000
  Pt  Pt6       1.0  0.42416590999999987  0.7151959599999999  0.46062253933898595  1.0000
  Pt  Pt7       1.0  0.05955317999999989  0.25823895  0.5155740127222608  1.0000
  Pt  Pt8       1.0  0.38186025999999995  0.59083495  0.48820541897255765  1.0000
  Pt  Pt9       1.0  0.71519359  0.9241682800000001  0.46062253933898595  1.0000
  Pt  Pt10      1.0  0.25819847999999984  0.74578676  0.5155730693877396  1.0000
  Pt  Pt11      1.0  0.5908325799999998  0.09083495  0.48820541897255765  1.0000
  Pt  Pt12      1.0  0.9241659100000001  0.42416827999999995  0.46062253933898595  1.0000
