data_image0
_chemical_formula_structural       COSn4Rh12Sn4Rh12
_chemical_formula_sum              "C1 O1 Sn8 Rh24"
_cell_length_a       8.683058417368377
_cell_length_b       5.72646829
_cell_length_c       104.35880974
_cell_angle_alpha    90.0
_cell_angle_beta     70.74642834925899
_cell_angle_gamma    70.74642834925899

_space_group_name_H-M_alt    "P 1"
_space_group_IT_number       1

loop_
  _space_group_symop_operation_xyz
  'x, y, z'

loop_
  _atom_site_type_symbol
  _atom_site_label
  _atom_site_symmetry_multiplicity
  _atom_site_fract_x
  _atom_site_fract_y
  _atom_site_fract_z
  _atom_site_occupancy
  C   C1        1.0  0.16823245000000003  0.471351385  0.5515353553127025  1.0000
  O   O1        1.0  0.18996178000000002  0.454378465  0.5622361427905326  1.0000
  Sn  Sn1       1.0  0.38380057  0.37198052499999995  0.49263673683310727  1.0000
  Sn  Sn2       1.0  0.37845256000000005  0.869491075  0.5213104223247677  1.0000
  Sn  Sn3       1.0  0.8838005699999999  0.12198052500000012  0.5063549575621105  1.0000
  Sn  Sn4       1.0  0.85559098  0.632731235  0.5348044390568583  1.0000
  Rh  Rh1       1.0  0.63520287  0.003019475000000007  0.5256634789985891  1.0000
  Rh  Rh2       1.0  0.6338005699999999  0.49698052500000006  0.49949584555142257  1.0000
  Rh  Rh3       1.0  0.6359116799999999  0.48395781500000024  0.5257465323926112  1.0000
  Rh  Rh4       1.0  0.6338005699999999  0.996980525  0.49949584555142257  1.0000
  Rh  Rh5       1.0  0.8807645900000001  0.11835014500000005  0.5328049251387852  1.0000
  Rh  Rh6       1.0  0.8838005699999999  0.6219805250000002  0.5063549575621105  1.0000
  Rh  Rh7       1.0  0.13402936000000001  0.25035649500000007  0.5125864346856736  1.0000
  Rh  Rh8       1.0  0.11619943000000003  0.7403623949999999  0.5394913686626147  1.0000
  Rh  Rh9       1.0  0.13411121000000004  0.741304585  0.5125794351012888  1.0000
  Rh  Rh10      1.0  0.11659751000000002  0.25668935500000006  0.5393244091500383  1.0000
  Rh  Rh11      1.0  0.38218019999999997  0.36941571500000014  0.5206289143429633  1.0000
  Rh  Rh12      1.0  0.38380057  0.8719805250000001  0.49263673683310727  1.0000
  Sn  Sn5       1.0  0.38380057  0.37198052499999995  0.43776385720946737  1.0000
  Sn  Sn6       1.0  0.38380057  0.8719805250000001  0.4652002986674737  1.0000
  Sn  Sn7       1.0  0.8838005699999999  0.12198052500000012  0.45148207793847056  1.0000
  Sn  Sn8       1.0  0.8838005699999999  0.6219805250000002  0.4789185161041042  1.0000
  Rh  Rh13      1.0  0.6338005699999999  0.996980525  0.4720594073857889  1.0000
  Rh  Rh14      1.0  0.6338005699999999  0.49698052500000006  0.4446229692201553  1.0000
  Rh  Rh15      1.0  0.6338005699999999  0.49698052500000006  0.4720594073857889  1.0000
  Rh  Rh16      1.0  0.6338005699999999  0.996980525  0.4446229692201553  1.0000
  Rh  Rh17      1.0  0.8838005699999999  0.12198052500000012  0.4789185161041042  1.0000
  Rh  Rh18      1.0  0.8838005699999999  0.6219805250000002  0.45148207793847056  1.0000
  Rh  Rh19      1.0  0.13380057  0.24698052500000003  0.45834118665678575  1.0000
  Rh  Rh20      1.0  0.13380057  0.746980525  0.4857776281147921  1.0000
  Rh  Rh21      1.0  0.13380057  0.746980525  0.45834118665678575  1.0000
  Rh  Rh22      1.0  0.13380057  0.24698052500000003  0.4857776281147921  1.0000
  Rh  Rh23      1.0  0.38380057  0.37198052499999995  0.4652002986674737  1.0000
  Rh  Rh24      1.0  0.38380057  0.8719805250000001  0.43776385720946737  1.0000
