data_image0
_chemical_formula_structural       COGa32
_chemical_formula_sum              "C1 O1 Ga32"
_cell_length_a       7.85148198
_cell_length_b       6.577571974234484
_cell_length_c       109.46543183
_cell_angle_alpha    89.5897824538299
_cell_angle_beta     90.0
_cell_angle_gamma    90.0

_space_group_name_H-M_alt    "P 1"
_space_group_IT_number       1

loop_
  _space_group_symop_operation_xyz
  'x, y, z'

loop_
  _atom_site_type_symbol
  _atom_site_label
  _atom_site_symmetry_multiplicity
  _atom_site_fract_x
  _atom_site_fract_y
  _atom_site_fract_z
  _atom_site_occupancy
  C   C1        1.0  0.7920752649999998  0.5990421900000001  0.5520290728511705  1.0000
  O   O1        1.0  0.8436444249999998  0.6280494  0.5620057641486954  1.0000
  Ga  Ga1       1.0  0.6602219149999999  0.07285456000000001  0.4879757813873028  1.0000
  Ga  Ga2       1.0  0.6602219149999999  0.5728545600000001  0.4579317191298798  1.0000
  Ga  Ga3       1.0  0.847706195  0.32285456  0.4429096916064555  1.0000
  Ga  Ga4       1.0  0.847706195  0.8228545600000001  0.4729537502585913  1.0000
  Ga  Ga5       1.0  0.34770619499999994  0.49105045  0.4530162633747289  1.0000
  Ga  Ga6       1.0  0.34770619499999994  0.9910504500000001  0.4830603256321519  1.0000
  Ga  Ga7       1.0  0.16022191499999996  0.24105046000000005  0.4379942358513046  1.0000
  Ga  Ga8       1.0  0.16022191499999996  0.7410504600000001  0.46803829450344037  1.0000
  Ga  Ga9       1.0  0.16022191499999996  0.8228545600000001  0.4429096916064555  1.0000
  Ga  Ga10      1.0  0.16022191499999996  0.32285456  0.4729537502585913  1.0000
  Ga  Ga11      1.0  0.34770619499999994  0.07285456000000001  0.4579317191298798  1.0000
  Ga  Ga12      1.0  0.34770619499999994  0.5728545600000001  0.4879757813873028  1.0000
  Ga  Ga13      1.0  0.847706195  0.24105046000000005  0.46803829450344037  1.0000
  Ga  Ga14      1.0  0.847706195  0.7410504600000001  0.4379942358513046  1.0000
  Ga  Ga15      1.0  0.6602219149999999  0.9910504500000001  0.4530162633747289  1.0000
  Ga  Ga16      1.0  0.6602219149999999  0.49105045  0.4830603256321519  1.0000
  Ga  Ga17      1.0  0.5775990049999998  0.00894955  0.539498468219329  1.0000
  Ga  Ga18      1.0  0.6602219149999999  0.5728545600000001  0.5180198400394386  1.0000
  Ga  Ga19      1.0  0.847706195  0.32285456  0.5029978089107271  1.0000
  Ga  Ga20      1.0  0.838374505  0.7893563100000001  0.5342541634044036  1.0000
  Ga  Ga21      1.0  0.34770619499999994  0.49105046  0.5131043842842877  1.0000
  Ga  Ga22      1.0  0.25225940499999994  0.026582920000000006  0.5467379137240218  1.0000
  Ga  Ga23      1.0  0.16022191499999996  0.24105045000000003  0.49808235315557614  1.0000
  Ga  Ga24      1.0  0.14339485499999996  0.7633862100000001  0.526924798432093  1.0000
  Ga  Ga25      1.0  0.16022191499999996  0.8228545700000001  0.5029978089107272  1.0000
  Ga  Ga26      1.0  0.16128716499999998  0.34314051000000007  0.5329973819243184  1.0000
  Ga  Ga27      1.0  0.34770619499999994  0.07285456000000001  0.5180198400394386  1.0000
  Ga  Ga28      1.0  0.35937166499999995  0.64305289  0.5442978517536404  1.0000
  Ga  Ga29      1.0  0.856605145  0.23284712000000002  0.5275218339895096  1.0000
  Ga  Ga30      1.0  0.847706195  0.7410504500000001  0.49808235315557614  1.0000
  Ga  Ga31      1.0  0.6602219149999999  0.9910504500000001  0.5131043842842876  1.0000
  Ga  Ga32      1.0  0.6183496549999998  0.40836497  0.5416982522201476  1.0000
