data_image0
_chemical_formula_structural       COSi20Rh20
_chemical_formula_sum              "C1 O1 Si20 Rh20"
_cell_length_a       8.388375097271952
_cell_length_b       8.975349621212313
_cell_length_c       106.40836634
_cell_angle_alpha    74.22605026819355
_cell_angle_beta     80.9453427881968
_cell_angle_gamma    58.89096341738548

_space_group_name_H-M_alt    "P 1"
_space_group_IT_number       1

loop_
  _space_group_symop_operation_xyz
  'x, y, z'

loop_
  _atom_site_type_symbol
  _atom_site_label
  _atom_site_symmetry_multiplicity
  _atom_site_fract_x
  _atom_site_fract_y
  _atom_site_fract_z
  _atom_site_occupancy
  C   C1        1.0  0.9869559950000001  0.08434996999999998  0.5427561102623671  1.0000
  O   O1        1.0  0.9460229050000001  0.050283259999999996  0.5537258481272311  1.0000
  Si  Si1       1.0  0.20771791500000006  0.5098172  0.4817035159342245  1.0000
  Si  Si2       1.0  0.007717914999999964  0.30981720000000007  0.4988113654352997  1.0000
  Si  Si3       1.0  0.8152534550000001  0.10482268999999998  0.5160136844813198  1.0000
  Si  Si4       1.0  0.40771791500000004  0.7098172  0.4645956664331492  1.0000
  Si  Si5       1.0  0.607717915  0.9098172  0.44748781693207396  1.0000
  Si  Si6       1.0  0.5344684850000001  0.09257692999999999  0.5071745616148896  1.0000
  Si  Si7       1.0  0.3644090550000002  0.81104205  0.523675451988226  1.0000
  Si  Si8       1.0  0.13095165500000008  0.6901828  0.4566575079312737  1.0000
  Si  Si9       1.0  0.7309516549999999  0.2901828000000001  0.4908732069334242  1.0000
  Si  Si10      1.0  0.9309516549999999  0.4901828  0.4737653574323489  1.0000
  Si  Si11      1.0  0.752692225  0.9423557500000002  0.47785644644435854  1.0000
  Si  Si12      1.0  0.552692225  0.74235575  0.4949642959454337  1.0000
  Si  Si13      1.0  0.3536686250000001  0.53218258  0.512377900354362  1.0000
  Si  Si14      1.0  0.952692225  0.14235575  0.4607485969432832  1.0000
  Si  Si15      1.0  0.3745021450000002  0.051095919999999996  0.5289538360203198  1.0000
  Si  Si16      1.0  0.9969990449999999  0.66125514  0.5115528743121727  1.0000
  Si  Si17      1.0  0.9031439450000002  0.45079561  0.5210443571173479  1.0000
  Si  Si18      1.0  0.5859773450000001  0.25764425  0.4605045774211397  1.0000
  Si  Si19      1.0  0.18597734500000015  0.85764425  0.4947202764232902  1.0000
  Si  Si20      1.0  0.385977345  0.057644249999999994  0.4776124269222149  1.0000
  Rh  Rh1       1.0  0.8400002449999999  0.97044068  0.49759770037599443  1.0000
  Rh  Rh2       1.0  0.6492434349999999  0.76582021  0.5139824181865087  1.0000
  Rh  Rh3       1.0  0.440000245  0.5704406800000001  0.44627415187276864  1.0000
  Rh  Rh4       1.0  0.0400002450000001  0.17044068  0.4804898508749192  1.0000
  Rh  Rh5       1.0  0.2400002450000001  0.37044068  0.46338200137384394  1.0000
  Rh  Rh6       1.0  0.8986693249999999  0.6295593200000001  0.49208687199272944  1.0000
  Rh  Rh7       1.0  0.7017898850000002  0.42761564  0.5090475392429771  1.0000
  Rh  Rh8       1.0  0.510964065  0.22934655  0.5242769126531353  1.0000
  Rh  Rh9       1.0  0.09866932500000013  0.82955932  0.4749790224916542  1.0000
  Rh  Rh10      1.0  0.2986693250000001  0.02955931999999999  0.457871172990579  1.0000
  Rh  Rh11      1.0  0.502122635  0.22725711  0.4837298756977987  1.0000
  Rh  Rh12      1.0  0.3021226350000001  0.02725710999999999  0.5008377251988739  1.0000
  Rh  Rh13      1.0  0.10878978500000004  0.82351243  0.5171766418747039  1.0000
  Rh  Rh14      1.0  0.7021226350000002  0.42725711000000005  0.46662202619672355  1.0000
  Rh  Rh15      1.0  0.9021226349999998  0.6272571100000001  0.4495141766956482  1.0000
  Rh  Rh16      1.0  0.21894923500000008  0.36585458  0.5067600110489193  1.0000
  Rh  Rh17      1.0  0.05397709499999981  0.13475985  0.525006391355861  1.0000
  Rh  Rh18      1.0  0.8365469350000001  0.97274289  0.45463114816769945  1.0000
  Rh  Rh19      1.0  0.4365469350000001  0.57274289  0.4888468471698499  1.0000
  Rh  Rh20      1.0  0.636546935  0.77274289  0.47173899766877464  1.0000
