data_image0
_chemical_formula_structural       COV10Si6V10Si6
_chemical_formula_sum              "C1 O1 V20 Si12"
_cell_length_a       4.85628169
_cell_length_b       7.141180700679708
_cell_length_c       112.84708420999999
_cell_angle_alpha    119.99999999685141
_cell_angle_beta     90.0
_cell_angle_gamma    90.0

_space_group_name_H-M_alt    "P 1"
_space_group_IT_number       1

loop_
  _space_group_symop_operation_xyz
  'x, y, z'

loop_
  _atom_site_type_symbol
  _atom_site_label
  _atom_site_symmetry_multiplicity
  _atom_site_fract_x
  _atom_site_fract_y
  _atom_site_fract_z
  _atom_site_occupancy
  C   C1        1.0  0.10301492999999999  0.923464995  0.5634084032615349  1.0000
  O   O1        1.0  0.14071878  0.997672375  0.5753519882224302  1.0000
  V   V1        1.0  0.38119872  0.042317895  0.5271827046202686  1.0000
  V   V2        1.0  0.34019464  0.297631585  0.5090239107237422  1.0000
  V   V3        1.0  0.84989171  0.24445268499999998  0.5220170846275204  1.0000
  V   V4        1.0  0.59019464  0.386180655  0.4879299378856569  1.0000
  V   V5        1.0  0.34019464  0.808063065  0.49353349411108477  1.0000
  V   V6        1.0  0.59538946  0.716903515  0.5314550167117249  1.0000
  V   V7        1.0  0.84019464  0.808063065  0.5090239107237422  1.0000
  V   V8        1.0  0.09019464  0.386180655  0.4879299378856569  1.0000
  V   V9        1.0  0.84019464  0.052847325  0.49353349411108477  1.0000
  V   V10       1.0  0.10839159999999999  0.678540645  0.5282323391261374  1.0000
  Si  Si1       1.0  0.87803369  0.045386955  0.5347631173020189  1.0000
  Si  Si2       1.0  0.9098053599999999  0.6701261249999999  0.5475370990714432  1.0000
  Si  Si3       1.0  0.3412689  0.42496917500000003  0.5343920637357051  1.0000
  Si  Si4       1.0  0.84019464  0.448132075  0.5090239107237422  1.0000
  Si  Si5       1.0  0.25434152  0.0023276250000000016  0.5488332217371273  1.0000
  Si  Si6       1.0  0.34019464  0.657562575  0.5090239107237422  1.0000
  V   V11       1.0  0.34019464  0.052847325  0.46123240502522816  1.0000
  V   V12       1.0  0.34019464  0.297631585  0.44574198841257073  1.0000
  V   V13       1.0  0.84019464  0.297631585  0.46123240502522816  1.0000
  V   V14       1.0  0.59019464  0.386180655  0.42464801177756994  1.0000
  V   V15       1.0  0.34019464  0.808063065  0.43025156800299796  1.0000
  V   V16       1.0  0.59019464  0.719513995  0.46683596125065613  1.0000
  V   V17       1.0  0.84019464  0.808063065  0.44574198841257073  1.0000
  V   V18       1.0  0.09019464  0.386180655  0.42464801177756994  1.0000
  V   V19       1.0  0.84019464  0.052847325  0.43025156800299785  1.0000
  V   V20       1.0  0.09019464  0.719513995  0.46683596125065613  1.0000
  Si  Si7       1.0  0.84019464  0.052847325  0.4707563676206175  1.0000
  Si  Si8       1.0  0.84019464  0.657562575  0.4840095315156954  1.0000
  Si  Si9       1.0  0.34019464  0.448132075  0.4707563676206175  1.0000
  Si  Si10      1.0  0.84019464  0.448132075  0.44574198841257073  1.0000
  Si  Si11      1.0  0.34019464  0.052847325  0.4840095315156954  1.0000
  Si  Si12      1.0  0.34019464  0.657562575  0.44574198841257073  1.0000
