data_image0
_chemical_formula_structural       COSn14Ir10
_chemical_formula_sum              "C1 O1 Sn14 Ir10"
_cell_length_a       8.70815931
_cell_length_b       6.57137938
_cell_length_c       104.83263726
_cell_angle_alpha    90.0
_cell_angle_beta     90.0
_cell_angle_gamma    90.0

_space_group_name_H-M_alt    "P 1"
_space_group_IT_number       1

loop_
  _space_group_symop_operation_xyz
  'x, y, z'

loop_
  _atom_site_type_symbol
  _atom_site_label
  _atom_site_symmetry_multiplicity
  _atom_site_fract_x
  _atom_site_fract_y
  _atom_site_fract_z
  _atom_site_occupancy
  C   C1        1.0  0.6072662300000001  0.6842244399999999  0.5360160375308511  1.0000
  O   O1        1.0  0.6072759100000001  0.6796720999999999  0.5472327118524717  1.0000
  Sn  Sn1       1.0  0.89276495  0.50580064  0.4527672881475283  1.0000
  Sn  Sn2       1.0  0.88475895  0.5177040199999999  0.5007660163129009  1.0000
  Sn  Sn3       1.0  0.8232488  0.0065422999999999966  0.494016041022972  1.0000
  Sn  Sn4       1.0  0.8217838100000001  0.005800639999999996  0.4586634948773478  1.0000
  Sn  Sn5       1.0  0.10727438000000002  0.90927445  0.47648220503207345  1.0000
  Sn  Sn6       1.0  0.6072743800000001  0.39537506  0.47648220503207345  1.0000
  Sn  Sn7       1.0  0.10727438000000002  0.40927445  0.47648220503207345  1.0000
  Sn  Sn8       1.0  0.39126933  0.006597299999999995  0.49401240267724333  1.0000
  Sn  Sn9       1.0  0.39276495000000006  0.005800639999999996  0.4586634948773478  1.0000
  Sn  Sn10      1.0  0.32178381  0.50580064  0.4527672881475283  1.0000
  Sn  Sn11      1.0  0.32984217  0.51770454  0.5007639163727178  1.0000
  Sn  Sn12      1.0  0.6072637200000001  0.41382475999999996  0.5193508956242748  1.0000
  Sn  Sn13      1.0  0.10728565000000001  0.89809825  0.5188209331886341  1.0000
  Sn  Sn14      1.0  0.6072810400000002  0.9441313800000001  0.5192513810538887  1.0000
  Ir  Ir1       1.0  0.10725484000000002  0.16951001  0.4970258533895916  1.0000
  Ir  Ir2       1.0  0.85075815  0.6716975099999999  0.47648220503207345  1.0000
  Ir  Ir3       1.0  0.36379061  0.6716975099999999  0.47648220503207345  1.0000
  Ir  Ir4       1.0  0.10727438000000002  0.17169750999999997  0.4551741053487213  1.0000
  Ir  Ir5       1.0  0.10723505000000001  0.49622379000000005  0.5165013465722941  1.0000
  Ir  Ir6       1.0  0.6072743800000001  0.6716975099999999  0.4562566776761548  1.0000
  Ir  Ir7       1.0  0.34870422  0.18414151999999998  0.516029139137069  1.0000
  Ir  Ir8       1.0  0.8658148800000001  0.18415268999999995  0.5160287503823199  1.0000
  Ir  Ir9       1.0  0.6072491900000001  0.68728767  0.4977618890691504  1.0000
  Ir  Ir10      1.0  0.6072743800000001  0.99419936  0.47648220503207345  1.0000
