data_image0
_chemical_formula_structural       COPd5Au15Pd5Au15
_chemical_formula_sum              "C1 O1 Pd10 Au30"
_cell_length_a       5.85458373
_cell_length_b       9.256909679250485
_cell_length_c       105.85185702
_cell_angle_alpha    75.03678257740643
_cell_angle_beta     90.0
_cell_angle_gamma    71.56505116461018

_space_group_name_H-M_alt    "P 1"
_space_group_IT_number       1

loop_
  _space_group_symop_operation_xyz
  'x, y, z'

loop_
  _atom_site_type_symbol
  _atom_site_label
  _atom_site_symmetry_multiplicity
  _atom_site_fract_x
  _atom_site_fract_y
  _atom_site_fract_z
  _atom_site_occupancy
  C   C1        1.0  0.109992595  0.5577469199999999  0.5607638772410964  1.0000
  O   O1        1.0  0.07444939499999993  0.5568903000000001  0.5717583769036015  1.0000
  Pd  Pd1       1.0  0.861357435  0.45000000000000007  0.43501559155180813  1.0000
  Pd  Pd2       1.0  0.661357435  0.8500000000000001  0.4485635284626273  1.0000
  Pd  Pd3       1.0  0.061357434999999974  0.05000000000000001  0.4892073391950844  1.0000
  Pd  Pd4       1.0  0.461357435  0.25  0.4621114653734463  1.0000
  Pd  Pd5       1.0  0.2613574349999999  0.6500000000000001  0.4756594022842654  1.0000
  Au  Au1       1.0  0.061357435000000037  0.5499999999999999  0.4553374969180367  1.0000
  Au  Au2       1.0  0.8613574350000001  0.9500000000000001  0.4688854338288558  1.0000
  Au  Au3       1.0  0.26135743499999997  0.15000000000000002  0.4417895600072177  1.0000
  Au  Au4       1.0  0.6613574349999999  0.35000000000000003  0.48243337073967485  1.0000
  Au  Au5       1.0  0.4613574349999999  0.75  0.4282416230963986  1.0000
  Au  Au6       1.0  0.5613574349999999  0.5499999999999999  0.4553374969180367  1.0000
  Au  Au7       1.0  0.36135743499999995  0.9500000000000001  0.4688854338288558  1.0000
  Au  Au8       1.0  0.7613574349999999  0.15000000000000002  0.4417895600072177  1.0000
  Au  Au9       1.0  0.16135743499999997  0.35000000000000003  0.48243337073967485  1.0000
  Au  Au10      1.0  0.9613574349999999  0.75  0.4282416230963986  1.0000
  Au  Au11      1.0  0.9613574349999999  0.25  0.4621114653734463  1.0000
  Au  Au12      1.0  0.7613574349999999  0.6500000000000001  0.4756594022842654  1.0000
  Au  Au13      1.0  0.161357435  0.8500000000000001  0.4485635284626273  1.0000
  Au  Au14      1.0  0.5613574349999999  0.05000000000000001  0.4892073391950844  1.0000
  Au  Au15      1.0  0.36135743499999995  0.45000000000000007  0.43501559155180813  1.0000
  Pd  Pd6       1.0  0.861357435  0.45000000000000007  0.5027552761059034  1.0000
  Pd  Pd7       1.0  0.661357435  0.8500000000000001  0.5163032130167226  1.0000
  Pd  Pd8       1.0  0.03864256499999997  0.0695313  0.555160338764302  1.0000
  Pd  Pd9       1.0  0.45494724499999994  0.2523003  0.5293202096669908  1.0000
  Pd  Pd10      1.0  0.23876547499999992  0.64640878  0.5447166067680167  1.0000
  Au  Au16      1.0  0.061357435000000037  0.5499999999999999  0.523077181472132  1.0000
  Au  Au17      1.0  0.8506976149999997  0.9425262500000001  0.5371791985197456  1.0000
  Au  Au18      1.0  0.26135743499999997  0.15000000000000002  0.509529244561313  1.0000
  Au  Au19      1.0  0.644491655  0.35480163  0.5502390371335102  1.0000
  Au  Au20      1.0  0.4613574349999999  0.75  0.495981307650494  1.0000
  Au  Au21      1.0  0.5613574349999999  0.5499999999999999  0.523077181472132  1.0000
  Au  Au22      1.0  0.3517971149999999  0.94118845  0.5373244290164454  1.0000
  Au  Au23      1.0  0.7613574349999999  0.15000000000000002  0.509529244561313  1.0000
  Au  Au24      1.0  0.14300920499999997  0.35239813  0.5516865901616361  1.0000
  Au  Au25      1.0  0.9613574349999999  0.75  0.495981307650494  1.0000
  Au  Au26      1.0  0.9597188049999998  0.25099151000000003  0.5293644944857681  1.0000
  Au  Au27      1.0  0.7360297849999999  0.6506496900000001  0.5433916354730597  1.0000
  Au  Au28      1.0  0.161357435  0.8500000000000001  0.5163032130167226  1.0000
  Au  Au29      1.0  0.5364226849999999  0.06839023000000001  0.5552820669774458  1.0000
  Au  Au30      1.0  0.36135743499999995  0.45000000000000007  0.5027552761059034  1.0000
