data_image0
_chemical_formula_structural       COAl4Au8Al4Au8Al4Au8
_chemical_formula_sum              "C1 O1 Al12 Au24"
_cell_length_a       9.12769466
_cell_length_b       7.64987205203301
_cell_length_c       102.9424693
_cell_angle_alpha    115.50740317572782
_cell_angle_beta     90.0
_cell_angle_gamma    90.0

_space_group_name_H-M_alt    "P 1"
_space_group_IT_number       1

loop_
  _space_group_symop_operation_xyz
  'x, y, z'

loop_
  _atom_site_type_symbol
  _atom_site_label
  _atom_site_symmetry_multiplicity
  _atom_site_fract_x
  _atom_site_fract_y
  _atom_site_fract_z
  _atom_site_occupancy
  C   C1        1.0  0.74672473  0.48806992  0.5484774889015609  1.0000
  O   O1        1.0  0.7590339  0.5571753099999999  0.5608748149446061  1.0000
  Al  Al1       1.0  0.22045768000000002  0.10508252  0.4405059451032478  1.0000
  Al  Al2       1.0  0.77954232  0.84594372  0.4482137091976157  1.0000
  Al  Al3       1.0  0.7204576800000001  0.34594371999999995  0.4642141361953389  1.0000
  Al  Al4       1.0  0.27954232  0.60508252  0.4565063721009709  1.0000
  Au  Au1       1.0  0.5771068  0.6257146899999999  0.45716662012077575  1.0000
  Au  Au2       1.0  0.6158666  0.06193492  0.4391251850553939  1.0000
  Au  Au3       1.0  0.3841334  0.8890913199999999  0.4495944692454697  1.0000
  Au  Au4       1.0  0.1158666  0.38909132  0.4655948962431928  1.0000
  Au  Au5       1.0  0.9228932000000001  0.12571469  0.44116619312305266  1.0000
  Au  Au6       1.0  0.07710680000000002  0.8253115499999999  0.4475534611778109  1.0000
  Au  Au7       1.0  0.8841334  0.56193492  0.45512561205311697  1.0000
  Au  Au8       1.0  0.4228932000000001  0.32531154999999995  0.463553888175534  1.0000
  Al  Al5       1.0  0.22045768000000002  0.10508252  0.472506799098694  1.0000
  Al  Al6       1.0  0.77954232  0.84594372  0.48021456319306194  1.0000
  Al  Al7       1.0  0.7204576800000001  0.34594371999999995  0.4962149901907851  1.0000
  Al  Al8       1.0  0.27954232  0.60508252  0.48850722609641706  1.0000
  Au  Au9       1.0  0.5771068  0.6257146899999999  0.4891674741162219  1.0000
  Au  Au10      1.0  0.6158666  0.06193492  0.4711260390508401  1.0000
  Au  Au11      1.0  0.3841334  0.8890913199999999  0.48159532324091586  1.0000
  Au  Au12      1.0  0.1158666  0.38909132  0.49759575023863895  1.0000
  Au  Au13      1.0  0.9228932000000001  0.12571469  0.47316704711849883  1.0000
  Au  Au14      1.0  0.07710680000000002  0.8253115499999999  0.4795543151732571  1.0000
  Au  Au15      1.0  0.8841334  0.56193492  0.4871264660485632  1.0000
  Au  Au16      1.0  0.4228932000000001  0.32531154999999995  0.49555474217098017  1.0000
  Al  Al9       1.0  0.21151592000000002  0.12003096  0.5068739210418941  1.0000
  Al  Al10      1.0  0.77996358  0.84263472  0.5117548672979765  1.0000
  Al  Al11      1.0  0.70246939  0.39518734999999994  0.5270124360713055  1.0000
  Al  Al12      1.0  0.29862221  0.63827783  0.519656998179342  1.0000
  Au  Au17      1.0  0.5842947600000001  0.6816662699999999  0.5223993657639335  1.0000
  Au  Au18      1.0  0.6253518100000001  0.06860609  0.5036073410678322  1.0000
  Au  Au19      1.0  0.39300838  0.9380650799999999  0.516621902782827  1.0000
  Au  Au20      1.0  0.13286350000000002  0.4557404899999999  0.5293733054749903  1.0000
  Au  Au21      1.0  0.92060171  0.15709828999999997  0.5154372791691966  1.0000
  Au  Au22      1.0  0.0897598  0.82416324  0.5106114223832673  1.0000
  Au  Au23      1.0  0.88676195  0.57865473  0.5190504731932247  1.0000
  Au  Au24      1.0  0.42628335000000006  0.35701406  0.526183322745052  1.0000
