data_image0
_chemical_formula_structural       COIn6Ni6In6Ni6In6Ni6In6Ni6
_chemical_formula_sum              "C1 O1 In24 Ni24"
_cell_length_a       9.23870006
_cell_length_b       8.8594184
_cell_length_c       102.00379579
_cell_angle_alpha    90.0
_cell_angle_beta     90.0
_cell_angle_gamma    90.0

_space_group_name_H-M_alt    "P 1"
_space_group_IT_number       1

loop_
  _space_group_symop_operation_xyz
  'x, y, z'

loop_
  _atom_site_type_symbol
  _atom_site_label
  _atom_site_symmetry_multiplicity
  _atom_site_fract_x
  _atom_site_fract_y
  _atom_site_fract_z
  _atom_site_occupancy
  C   C1        1.0  0.7061805249999998  0.11926519  0.5449197911553281  1.0000
  O   O1        1.0  0.7070540949999998  0.11926521  0.5567717927135781  1.0000
  In  In1       1.0  0.8732990849999998  0.36926521999999995  0.4955200431963584  1.0000
  In  In2       1.0  0.37687858499999993  0.35798141999999994  0.524246986920594  1.0000
  In  In3       1.0  0.5399657549999999  0.36926521999999995  0.4955200431963584  1.0000
  In  In4       1.0  0.036408954999999944  0.3577956299999999  0.5242530956531093  1.0000
  In  In5       1.0  0.706554395  0.11926539  0.5189739898810449  1.0000
  In  In6       1.0  0.20663242499999993  0.11926521999999999  0.4955200431963584  1.0000
  Ni  Ni1       1.0  0.5183195349999999  0.11926521999999999  0.5355573977293143  1.0000
  Ni  Ni2       1.0  0.963591065  0.11926521  0.509306947344344  1.0000
  Ni  Ni3       1.0  0.706632425  0.11926521999999999  0.4955200431963584  1.0000
  Ni  Ni4       1.0  0.20676003499999993  0.11926519999999999  0.5214351972702256  1.0000
  Ni  Ni5       1.0  0.894660015  0.11926521999999999  0.5355640053259642  1.0000
  Ni  Ni6       1.0  0.44958490499999987  0.11926521  0.509303800421533  1.0000
  In  In7       1.0  0.8732990849999998  0.36926521999999995  0.4432282072864218  1.0000
  In  In8       1.0  0.3732990849999999  0.36926521999999995  0.4693741252413901  1.0000
  In  In9       1.0  0.5399657549999999  0.36926521999999995  0.4432282072864218  1.0000
  In  In10      1.0  0.03996575499999994  0.36926521999999995  0.4693741252413901  1.0000
  In  In11      1.0  0.706632425  0.11926521999999999  0.4693741252413901  1.0000
  In  In12      1.0  0.20663242499999993  0.11926521999999999  0.4432282072864218  1.0000
  Ni  Ni7       1.0  0.4566324249999999  0.11926521999999999  0.48244708578762946  1.0000
  Ni  Ni8       1.0  0.9566324249999999  0.11926521999999999  0.4563011646951508  1.0000
  Ni  Ni9       1.0  0.706632425  0.11926521999999999  0.4432282072864218  1.0000
  Ni  Ni10      1.0  0.20663242499999993  0.11926521999999999  0.4693741252413901  1.0000
  Ni  Ni11      1.0  0.9566324249999999  0.11926521999999999  0.48244708578762946  1.0000
  Ni  Ni12      1.0  0.4566324249999999  0.11926521999999999  0.4563011646951508  1.0000
  In  In13      1.0  0.8732990849999998  0.86926522  0.4955200431963584  1.0000
  In  In14      1.0  0.3768786149999999  0.8805490100000001  0.5242469963331248  1.0000
  In  In15      1.0  0.5399657549999999  0.86926522  0.4955200431963584  1.0000
  In  In16      1.0  0.03640893499999994  0.88073481  0.5242531019281299  1.0000
  In  In17      1.0  0.7065792049999999  0.6192652  0.5221582271017431  1.0000
  In  In18      1.0  0.20663242499999993  0.61926522  0.4955200431963584  1.0000
  Ni  Ni13      1.0  0.45101067499999997  0.6192652  0.5319199345986151  1.0000
  Ni  Ni14      1.0  0.9590094849999998  0.61926522  0.5086443836109446  1.0000
  Ni  Ni15      1.0  0.706632425  0.61926522  0.4955200431963584  1.0000
  Ni  Ni16      1.0  0.20667896499999994  0.61926523  0.5214130935103024  1.0000
  Ni  Ni17      1.0  0.962338425  0.6192652  0.5318922931330474  1.0000
  Ni  Ni18      1.0  0.45426819499999993  0.61926522  0.508647681134249  1.0000
  In  In19      1.0  0.8732990849999998  0.86926522  0.4432282072864218  1.0000
  In  In20      1.0  0.3732990849999999  0.86926522  0.4693741252413901  1.0000
  In  In21      1.0  0.5399657549999999  0.86926522  0.4432282072864218  1.0000
  In  In22      1.0  0.03996575499999994  0.86926522  0.4693741252413901  1.0000
  In  In23      1.0  0.706632425  0.61926522  0.4693741252413901  1.0000
  In  In24      1.0  0.20663242499999993  0.61926522  0.4432282072864218  1.0000
  Ni  Ni19      1.0  0.4566324249999999  0.61926522  0.48244708578762946  1.0000
  Ni  Ni20      1.0  0.9566324249999999  0.61926522  0.4563011646951508  1.0000
  Ni  Ni21      1.0  0.706632425  0.61926522  0.4432282072864218  1.0000
  Ni  Ni22      1.0  0.20663242499999993  0.61926522  0.4693741252413901  1.0000
  Ni  Ni23      1.0  0.9566324249999999  0.61926522  0.48244708578762946  1.0000
  Ni  Ni24      1.0  0.4566324249999999  0.61926522  0.4563011646951508  1.0000
