data_image0
_chemical_formula_structural       COSi6Pt12
_chemical_formula_sum              "C1 O1 Si6 Pt12"
_cell_length_a       5.65379442
_cell_length_b       7.219200206541234
_cell_length_c       103.00897995
_cell_angle_alpha    70.22935299156111
_cell_angle_beta     90.0
_cell_angle_gamma    66.94712851198585

_space_group_name_H-M_alt    "P 1"
_space_group_IT_number       1

loop_
  _space_group_symop_operation_xyz
  'x, y, z'

loop_
  _atom_site_type_symbol
  _atom_site_label
  _atom_site_symmetry_multiplicity
  _atom_site_fract_x
  _atom_site_fract_y
  _atom_site_fract_z
  _atom_site_occupancy
  C   C1        1.0  0.37031656  0.28013362499999994  0.5357284104189272  1.0000
  O   O1        1.0  0.39039165  0.23997129499999997  0.5478991094385011  1.0000
  Si  Si1       1.0  0.67191082  0.676917845  0.4721288652863859  1.0000
  Si  Si2       1.0  0.9947558499999999  0.031075554999999973  0.5230730151841552  1.0000
  Si  Si3       1.0  0.34181500000000004  0.33703906499999997  0.4986659958863805  1.0000
  Si  Si4       1.0  0.6815177199999998  0.657654485  0.5122716752614229  1.0000
  Si  Si5       1.0  0.005244149999999963  0.010251174999999974  0.4854808495044693  1.0000
  Si  Si6       1.0  0.33857747999999993  0.34358450499999993  0.4587768810683026  1.0000
  Pt  Pt1       1.0  0.4219108199999999  0.676917845  0.49215684001127313  1.0000
  Pt  Pt2       1.0  0.7552441499999999  0.010251174999999974  0.46545287477958225  1.0000
  Pt  Pt3       1.0  0.09787026000000003  0.3346649649999999  0.5196428351686895  1.0000
  Pt  Pt4       1.0  0.92191082  0.676917845  0.49215684001127313  1.0000
  Pt  Pt5       1.0  0.25524415  0.010251174999999974  0.46545287477958225  1.0000
  Pt  Pt6       1.0  0.5879819000000001  0.33472967499999995  0.5196338017509696  1.0000
  Pt  Pt7       1.0  0.75969257  0.989730335  0.5058402695864356  1.0000
  Pt  Pt8       1.0  0.08857747999999997  0.34358450499999993  0.4788048557931896  1.0000
  Pt  Pt9       1.0  0.4219108199999999  0.676917845  0.45210089056149894  1.0000
  Pt  Pt10      1.0  0.2712280199999999  0.9897488249999999  0.5058406252832667  1.0000
  Pt  Pt11      1.0  0.5885774799999999  0.34358450499999993  0.4788048557931896  1.0000
  Pt  Pt12      1.0  0.92191082  0.676917845  0.45210089056149894  1.0000
