data_image0
_chemical_formula_structural       COAl6Pd3Al6Pd3Al6Pd3Al6Pd3
_chemical_formula_sum              "C1 O1 Al24 Pd12"
_cell_length_a       8.45890186
_cell_length_b       8.458901855970433
_cell_length_c       101.07999
_cell_angle_alpha    90.0
_cell_angle_beta     90.0
_cell_angle_gamma    119.99999993754537

_space_group_name_H-M_alt    "P 1"
_space_group_IT_number       1

loop_
  _space_group_symop_operation_xyz
  'x, y, z'

loop_
  _atom_site_type_symbol
  _atom_site_label
  _atom_site_symmetry_multiplicity
  _atom_site_fract_x
  _atom_site_fract_y
  _atom_site_fract_z
  _atom_site_occupancy
  C   C1        1.0  0.55284383  0.114364645  0.5514161248177561  1.0000
  O   O1        1.0  0.53038132  0.13682823500000002  0.5624086307063688  1.0000
  Al  Al1       1.0  0.08305574000000004  0.083751405  0.5059433214873503  1.0000
  Al  Al2       1.0  0.41720652  0.250000005  0.4717557196036075  1.0000
  Al  Al3       1.0  0.25053986000000006  0.416666665  0.43759136929363124  1.0000
  Al  Al4       1.0  0.25053986000000006  0.416666665  0.4888378962959914  1.0000
  Al  Al5       1.0  0.08387319000000006  0.08333333500000001  0.4546735459860151  1.0000
  Al  Al6       1.0  0.41715762000000006  0.25004260500000003  0.5229004556314187  1.0000
  Pd  Pd1       1.0  0.25053986000000006  0.416666665  0.46321463433220705  1.0000
  Pd  Pd2       1.0  0.08254809000000005  0.08478890500000001  0.5302904281122174  1.0000
  Pd  Pd3       1.0  0.41720652  0.250000005  0.4973789846421834  1.0000
  Al  Al7       1.0  0.08441978999999997  0.5827864749999999  0.5059454553926919  1.0000
  Al  Al8       1.0  0.4172065200000001  0.7500000050000001  0.4717557196036075  1.0000
  Al  Al9       1.0  0.25053986  0.9166666649999999  0.43759136929363124  1.0000
  Al  Al10      1.0  0.25053986  0.9166666649999999  0.4888378962959914  1.0000
  Al  Al11      1.0  0.08387319000000006  0.583333335  0.4546735459860151  1.0000
  Al  Al12      1.0  0.4198222400000001  0.7568486750000001  0.5231067956685447  1.0000
  Pd  Pd4       1.0  0.25053986  0.9166666649999999  0.46321463433220705  1.0000
  Pd  Pd5       1.0  0.08434084000000004  0.582863085  0.530309700905707  1.0000
  Pd  Pd6       1.0  0.4172065200000001  0.7500000050000001  0.4973789846421834  1.0000
  Al  Al13      1.0  0.5836785499999999  0.08352799500000002  0.5065156724124512  1.0000
  Al  Al14      1.0  0.91720652  0.250000005  0.4717557196036075  1.0000
  Al  Al15      1.0  0.7505398600000001  0.416666665  0.43759136929363124  1.0000
  Al  Al16      1.0  0.7505398600000001  0.416666665  0.4888378962959914  1.0000
  Al  Al17      1.0  0.58387319  0.08333333500000001  0.4546735459860151  1.0000
  Al  Al18      1.0  0.9103581299999999  0.247382485  0.5231067956685447  1.0000
  Pd  Pd7       1.0  0.7505398600000001  0.416666665  0.46321463433220705  1.0000
  Pd  Pd8       1.0  0.57951473  0.08769220500000001  0.5320828194302902  1.0000
  Pd  Pd9       1.0  0.91720652  0.250000005  0.4973789846421834  1.0000
  Al  Al19      1.0  0.58345397  0.5841498749999999  0.5059433184125587  1.0000
  Al  Al20      1.0  0.91720652  0.7500000050000001  0.4717557196036075  1.0000
  Al  Al21      1.0  0.7505398600000001  0.9166666649999999  0.43759136929363124  1.0000
  Al  Al22      1.0  0.7505398600000001  0.9166666649999999  0.4888378962959914  1.0000
  Al  Al23      1.0  0.58387319  0.583333335  0.4546735459860151  1.0000
  Al  Al24      1.0  0.91745191  0.749746245  0.5230007461076871  1.0000
  Pd  Pd10      1.0  0.7505398600000001  0.9166666649999999  0.46321463433220705  1.0000
  Pd  Pd11      1.0  0.5824067800000001  0.584650305  0.5302904219626342  1.0000
  Pd  Pd12      1.0  0.91720652  0.7500000050000001  0.4973789846421834  1.0000
