data_image0
_chemical_formula_structural       Au2Ni4Sn8Au2Ni4Sn8CO
_chemical_formula_sum              "Au4 Ni8 Sn16 C1 O1"
_cell_length_a       8.64331714
_cell_length_b       9.423993405974484
_cell_length_c       99.94132888
_cell_angle_alpha    97.60718883199188
_cell_angle_beta     90.0
_cell_angle_gamma    103.25528619899795

_space_group_name_H-M_alt    "P 1"
_space_group_IT_number       1

loop_
  _space_group_symop_operation_xyz
  'x, y, z'

loop_
  _atom_site_type_symbol
  _atom_site_label
  _atom_site_symmetry_multiplicity
  _atom_site_fract_x
  _atom_site_fract_y
  _atom_site_fract_z
  _atom_site_occupancy
  Au  Au1       1.0  0.36685834499999986  0.5030642099999999  0.5133673223728569  1.0000
  Au  Au2       1.0  0.11534370499999992  0.49900096  0.47747734976506845  1.0000
  Ni  Ni1       1.0  0.4432735849999999  0.7994993699999999  0.5163730215292911  1.0000
  Ni  Ni2       1.0  0.293455205  0.19909921000000005  0.5108120673532851  1.0000
  Ni  Ni3       1.0  0.1899070749999999  0.79725445  0.4812004119323143  1.0000
  Ni  Ni4       1.0  0.04078032499999992  0.20074747000000004  0.47375428759782257  1.0000
  Sn  Sn1       1.0  0.5195487149999999  0.09793279000000003  0.5230460652793957  1.0000
  Sn  Sn2       1.0  0.4067767949999999  0.6647333400000001  0.49202904656067586  1.0000
  Sn  Sn3       1.0  0.21565954499999992  0.9020672099999999  0.5078780239084747  1.0000
  Sn  Sn4       1.0  0.07446043499999991  0.32718226000000006  0.5007869455661328  1.0000
  Sn  Sn5       1.0  0.2655768249999999  0.09993348000000005  0.4849787183224191  1.0000
  Sn  Sn6       1.0  0.1567767949999999  0.6647333400000001  0.4545804139284859  1.0000
  Sn  Sn7       1.0  0.4651105649999999  0.89806844  0.4699759842036083  1.0000
  Sn  Sn8       1.0  0.32391060499999996  0.33326858000000004  0.4629256559653515  1.0000
  Au  Au3       1.0  0.8654001749999999  0.49705314  0.5132485413019288  1.0000
  Au  Au4       1.0  0.6153437049999999  0.49900096  0.47747734976506845  1.0000
  Ni  Ni5       1.0  0.946830075  0.79405016  0.518445878242748  1.0000
  Ni  Ni6       1.0  0.7930973449999998  0.19885112000000005  0.5106297883808659  1.0000
  Ni  Ni7       1.0  0.6899070749999999  0.79725445  0.4812004119323143  1.0000
  Ni  Ni8       1.0  0.5407803249999998  0.20074747000000004  0.47375428759782257  1.0000
  Sn  Sn9       1.0  0.01787106500000002  0.10061526000000005  0.5233554509027498  1.0000
  Sn  Sn10      1.0  0.9067767949999999  0.6647333400000001  0.49202904656067586  1.0000
  Sn  Sn11      1.0  0.7237569349999998  0.8986582500000001  0.508019504842559  1.0000
  Sn  Sn12      1.0  0.5738317249999999  0.32640789000000003  0.5008359942872092  1.0000
  Sn  Sn13      1.0  0.7655768249999999  0.09993348000000005  0.4849787183224191  1.0000
  Sn  Sn14      1.0  0.6567767949999999  0.6647333400000001  0.4545804139284859  1.0000
  Sn  Sn15      1.0  0.9651105649999998  0.89806844  0.4699759842036083  1.0000
  Sn  Sn16      1.0  0.8239106049999999  0.33326858000000004  0.4629256559653515  1.0000
  C   C1        1.0  0.9821289349999999  0.7465630999999999  0.5346871434988768  1.0000
  O   O1        1.0  0.01257921499999993  0.72132324  0.545419586071514  1.0000
