data_image0
_chemical_formula_structural       Si4Pt12CO
_chemical_formula_sum              "Si4 Pt12 C1 O1"
_cell_length_a       7.79353037
_cell_length_b       5.465681475444181
_cell_length_c       101.75141699
_cell_angle_alpha    90.0
_cell_angle_beta     90.0
_cell_angle_gamma    133.24272005764675

_space_group_name_H-M_alt    "P 1"
_space_group_IT_number       1

loop_
  _space_group_symop_operation_xyz
  'x, y, z'

loop_
  _atom_site_type_symbol
  _atom_site_label
  _atom_site_symmetry_multiplicity
  _atom_site_fract_x
  _atom_site_fract_y
  _atom_site_fract_z
  _atom_site_occupancy
  Si  Si1       1.0  0.8270395449999999  0.9866130649999999  0.5130797462063988  1.0000
  Si  Si2       1.0  0.37207190500000004  0.06117365500000002  0.5115134823203695  1.0000
  Si  Si3       1.0  0.33013283500000007  0.985577875  0.4749096916295545  1.0000
  Si  Si4       1.0  0.900904855  0.13275749500000003  0.4749096916295545  1.0000
  Pt  Pt1       1.0  0.615518845  0.559167685  0.4962941245144294  1.0000
  Pt  Pt2       1.0  0.615518845  0.559167685  0.4535252587446796  1.0000
  Pt  Pt3       1.0  0.615518845  0.05916768500000002  0.4893006376379225  1.0000
  Pt  Pt4       1.0  0.615518845  0.05916768500000002  0.46051874562118655  1.0000
  Pt  Pt5       1.0  0.784107255  0.369417625  0.5166636246171714  1.0000
  Pt  Pt6       1.0  0.39969541499999994  0.6574615649999999  0.5143138870945902  1.0000
  Pt  Pt7       1.0  0.11551884500000005  0.559167685  0.45728801294214483  1.0000
  Pt  Pt8       1.0  0.11551884500000005  0.559167685  0.49253137031696426  1.0000
  Pt  Pt9       1.0  0.09909514500000008  0.013386935000000022  0.5258252896090908  1.0000
  Pt  Pt10      1.0  0.11522801500000007  0.06761900500000002  0.49827438366624227  1.0000
  Pt  Pt11      1.0  0.3321522950000001  0.422146805  0.4749096916295545  1.0000
  Pt  Pt12      1.0  0.8988853950000001  0.696188565  0.4749096916295545  1.0000
  C   C1        1.0  0.885113015  0.562974435  0.5356203982504995  1.0000
  O   O1        1.0  0.8373744449999999  0.456700425  0.5464747412553204  1.0000
