data_image0
_chemical_formula_structural       Si4Ni8Si4Ni8CO
_chemical_formula_sum              "Si8 Ni16 C1 O1"
_cell_length_a       7.5398323
_cell_length_b       5.03095833
_cell_length_c       98.54423132
_cell_angle_alpha    90.0
_cell_angle_beta     90.0
_cell_angle_gamma    90.0

_space_group_name_H-M_alt    "P 1"
_space_group_IT_number       1

loop_
  _space_group_symop_operation_xyz
  'x, y, z'

loop_
  _atom_site_type_symbol
  _atom_site_label
  _atom_site_symmetry_multiplicity
  _atom_site_fract_x
  _atom_site_fract_y
  _atom_site_fract_z
  _atom_site_occupancy
  Si  Si1       1.0  0.12263259999999997  0.7806566550000001  0.49900768737423745  1.0000
  Si  Si2       1.0  0.37857525000000003  0.20271415500000006  0.5153419249329738  1.0000
  Si  Si3       1.0  0.12476278999999997  0.29206830500000003  0.47985138830305896  1.0000
  Si  Si4       1.0  0.3747627899999999  0.713641045  0.4632924592998753  1.0000
  Ni  Ni1       1.0  0.13436615  0.948654715  0.5210620400173271  1.0000
  Ni  Ni2       1.0  0.3752939099999999  0.04047839500000003  0.49266110342623454  1.0000
  Ni  Ni3       1.0  0.12476278999999997  0.46108855499999996  0.4567149012019939  1.0000
  Ni  Ni4       1.0  0.3747627899999999  0.5446207950000002  0.48642894640094037  1.0000
  Ni  Ni5       1.0  0.12476278999999997  0.8323656150000001  0.47591636102023477  1.0000
  Ni  Ni6       1.0  0.3747627899999999  0.17334373500000003  0.4672274865826995  1.0000
  Ni  Ni7       1.0  0.12458595999999997  0.326372335  0.5036002262842458  1.0000
  Ni  Ni8       1.0  0.37061554999999996  0.660080925  0.5135186484784225  1.0000
  Si  Si5       1.0  0.6265799199999998  0.786494465  0.49935284223660736  1.0000
  Si  Si6       1.0  0.8773674  0.19032585500000004  0.5161839146346184  1.0000
  Si  Si7       1.0  0.6247627899999999  0.29206830500000003  0.47985138830305896  1.0000
  Si  Si8       1.0  0.8747627899999999  0.713641045  0.4632924592998753  1.0000
  Ni  Ni9       1.0  0.6254259699999999  0.959521605  0.5206320700799311  1.0000
  Ni  Ni10      1.0  0.8737185299999999  0.047161345000000035  0.4924708582395043  1.0000
  Ni  Ni11      1.0  0.6247627899999999  0.46108855499999996  0.4567149012019939  1.0000
  Ni  Ni12      1.0  0.8747627899999999  0.5446207950000002  0.48642894640094037  1.0000
  Ni  Ni13      1.0  0.6247627899999999  0.8323656150000001  0.47591636102023477  1.0000
  Ni  Ni14      1.0  0.8747627899999999  0.17334373500000003  0.4672274865826995  1.0000
  Ni  Ni15      1.0  0.62658256  0.34138569500000004  0.5038092529656816  1.0000
  Ni  Ni16      1.0  0.87692076  0.6588716250000001  0.5120175279553402  1.0000
  C   C1        1.0  0.28165335999999996  0.716085985  0.5316442217850296  1.0000
  O   O1        1.0  0.29692798000000004  0.662453135  0.5432850987980061  1.0000
