data_image0
_chemical_formula_structural       V12Sn4CO
_chemical_formula_sum              "V12 Sn4 C1 O1"
_cell_length_a       4.98288155
_cell_length_b       7.04685867
_cell_length_c       41.81256533
_cell_angle_alpha    90.0
_cell_angle_beta     90.0
_cell_angle_gamma    90.0

_space_group_name_H-M_alt    "P 1"
_space_group_IT_number       1

loop_
  _space_group_symop_operation_xyz
  'x, y, z'

loop_
  _atom_site_type_symbol
  _atom_site_label
  _atom_site_symmetry_multiplicity
  _atom_site_fract_x
  _atom_site_fract_y
  _atom_site_fract_z
  _atom_site_occupancy
  V   V1        1.0  0.11368753500000002  0.689510185  0.5496889715189975  1.0000
  V   V2        1.0  0.13631246500000002  0.17604674500000003  0.46952945938137464  1.0000
  V   V3        1.0  0.13631246500000002  0.42604674500000006  0.4273958411024935  1.0000
  V   V4        1.0  0.132160205  0.9175436350000001  0.5168196864858979  1.0000
  V   V5        1.0  0.655195755  0.6767944250000002  0.5140503482478004  1.0000
  V   V6        1.0  0.636312465  0.17604674500000003  0.4273958411024935  1.0000
  V   V7        1.0  0.561952515  0.950764625  0.5538161043690609  1.0000
  V   V8        1.0  0.636312465  0.42604674500000006  0.46952945938137464  1.0000
  V   V9        1.0  0.8629499450000001  0.321465375  0.5308496892521039  1.0000
  V   V10       1.0  0.886312465  0.8010467450000002  0.4484626502419341  1.0000
  V   V11       1.0  0.38881258500000004  0.31238287500000006  0.5319385904829034  1.0000
  V   V12       1.0  0.386312465  0.8010467450000002  0.4484626502419341  1.0000
  Sn  Sn1       1.0  0.636312465  0.5510467450000001  0.406329031963053  1.0000
  Sn  Sn2       1.0  0.632866635  0.04923537500000003  0.4905625616261921  1.0000
  Sn  Sn3       1.0  0.14279229499999999  0.5529099550000001  0.48921607230668296  1.0000
  Sn  Sn4       1.0  0.13631246500000002  0.05104674500000004  0.406329031963053  1.0000
  C   C1        1.0  0.525536955  0.22212969500000007  0.571309025402645  1.0000
  O   O1        1.0  0.596552695  0.10876770500000003  0.5936709680369471  1.0000
