data_image0
_chemical_formula_structural       Sb16Pd8CO
_chemical_formula_sum              "Sb16 Pd8 C1 O1"
_cell_length_a       6.61050036
_cell_length_b       9.34865926
_cell_length_c       32.60536295
_cell_angle_alpha    90.0
_cell_angle_beta     90.0
_cell_angle_gamma    90.0

_space_group_name_H-M_alt    "P 1"
_space_group_IT_number       1

loop_
  _space_group_symop_operation_xyz
  'x, y, z'

loop_
  _atom_site_type_symbol
  _atom_site_label
  _atom_site_symmetry_multiplicity
  _atom_site_fract_x
  _atom_site_fract_y
  _atom_site_fract_z
  _atom_site_occupancy
  Sb  Sb1       1.0  0.623758215  0.54101569  0.6038480920912609  1.0000
  Sb  Sb2       1.0  0.6833801249999998  0.05349743000000004  0.45543964501458656  1.0000
  Sb  Sb3       1.0  0.21448599499999998  0.4100868200000001  0.6084075377205043  1.0000
  Sb  Sb4       1.0  0.18338012499999998  0.8034974300000002  0.4566759079317368  1.0000
  Sb  Sb5       1.0  0.42906838499999994  0.9263415600000001  0.3485372003094578  1.0000
  Sb  Sb6       1.0  0.42906838499999994  0.42634156000000006  0.49189796088182247  1.0000
  Sb  Sb7       1.0  0.929068385  0.43065330000000007  0.4202175805956401  1.0000
  Sb  Sb8       1.0  0.924772445  0.9465025699999999  0.5644348930402725  1.0000
  Sb  Sb9       1.0  0.42906838499999994  0.5534974300000001  0.3849955276455544  1.0000
  Sb  Sb10      1.0  0.42621255499999994  0.060186790000000046  0.5282008966223195  1.0000
  Sb  Sb11      1.0  0.929068385  0.8034974300000002  0.38375926472840427  1.0000
  Sb  Sb12      1.0  0.943775745  0.31034910000000004  0.5364760237883818  1.0000
  Sb  Sb13      1.0  0.6833801249999998  0.18065330000000004  0.3485372003094578  1.0000
  Sb  Sb14      1.0  0.6833801249999998  0.6806533  0.49189796088182247  1.0000
  Sb  Sb15      1.0  0.17773564499999997  0.68168326  0.5607670595909025  1.0000
  Sb  Sb16      1.0  0.18338012499999998  0.17634156000000004  0.4202175805956401  1.0000
  Pd  Pd1       1.0  0.05622425499999999  0.5534974300000001  0.49189796088182247  1.0000
  Pd  Pd2       1.0  0.05622425499999999  0.05349743000000004  0.3485372003094578  1.0000
  Pd  Pd3       1.0  0.5575025549999999  0.8027002400000001  0.564511092151732  1.0000
  Pd  Pd4       1.0  0.556224255  0.30349743000000007  0.4202175805956401  1.0000
  Pd  Pd5       1.0  0.05622425499999999  0.5534974300000001  0.3485372003094578  1.0000
  Pd  Pd6       1.0  0.05622425499999999  0.05349743000000004  0.49189796088182247  1.0000
  Pd  Pd7       1.0  0.550023575  0.30903777  0.5609991319901169  1.0000
  Pd  Pd8       1.0  0.556224255  0.8034974300000002  0.4202175805956401  1.0000
  C   C1        1.0  0.5137035649999999  0.8868760600000002  0.6194623268143171  1.0000
  O   O1        1.0  0.48083053499999995  0.93575109  0.6514627996905423  1.0000
