data_image0
_chemical_formula_structural       Cu3Rh6Sb3Cu3Rh6Sb3Cu3Rh6Sb3Cu3Rh6Sb3CO
_chemical_formula_sum              "Cu12 Rh24 Sb12 C1 O1"
_cell_length_a       8.85875346
_cell_length_b       8.85875346307457
_cell_length_c       37.45086137
_cell_angle_alpha    90.0
_cell_angle_beta     90.0
_cell_angle_gamma    120.00000006320175

_space_group_name_H-M_alt    "P 1"
_space_group_IT_number       1

loop_
  _space_group_symop_operation_xyz
  'x, y, z'

loop_
  _atom_site_type_symbol
  _atom_site_label
  _atom_site_symmetry_multiplicity
  _atom_site_fract_x
  _atom_site_fract_y
  _atom_site_fract_z
  _atom_site_occupancy
  Cu  Cu1       1.0  0.08321597  0.08333333499999998  0.5055818142236499  1.0000
  Cu  Cu2       1.0  0.4102526  0.240696285  0.5992376206211781  1.0000
  Cu  Cu3       1.0  0.24988264000000002  0.416666665  0.40901338320699415  1.0000
  Rh  Rh1       1.0  0.08321597  0.08333333499999998  0.4331554844427889  1.0000
  Rh  Rh2       1.0  0.41791092  0.253742725  0.528309585792843  1.0000
  Rh  Rh3       1.0  0.24988264000000002  0.416666665  0.33658705342613326  1.0000
  Rh  Rh4       1.0  0.4165493  0.25000000499999997  0.3848712732800405  1.0000
  Rh  Rh5       1.0  0.24988264000000002  0.416666665  0.4814397042966962  1.0000
  Rh  Rh6       1.0  0.08010374  0.08396732499999998  0.5733687251747853  1.0000
  Sb  Sb1       1.0  0.24778472000000004  0.415618205  0.5554784352549976  1.0000
  Sb  Sb2       1.0  0.08321597  0.08333333499999998  0.3607291633530868  1.0000
  Sb  Sb3       1.0  0.4165493  0.25000000499999997  0.45729759436974254  1.0000
  Cu  Cu4       1.0  0.08321596999999999  0.583333335  0.5055818142236499  1.0000
  Cu  Cu5       1.0  0.41029024999999997  0.753047975  0.5992380204144866  1.0000
  Cu  Cu6       1.0  0.24988264000000004  0.916666665  0.40901338320699415  1.0000
  Rh  Rh7       1.0  0.08321596999999999  0.583333335  0.4331554844427889  1.0000
  Rh  Rh8       1.0  0.41791487000000005  0.747640625  0.5283131057121888  1.0000
  Rh  Rh9       1.0  0.24988264000000004  0.916666665  0.33658705342613326  1.0000
  Rh  Rh10      1.0  0.4165493  0.7500000050000001  0.3848712732800405  1.0000
  Rh  Rh11      1.0  0.24988264000000004  0.916666665  0.4814397042966962  1.0000
  Rh  Rh12      1.0  0.08013350999999996  0.5796165249999999  0.573369681202262  1.0000
  Sb  Sb4       1.0  0.24937626999999993  0.916420075  0.5597336874799795  1.0000
  Sb  Sb5       1.0  0.08321596999999999  0.583333335  0.3607291633530868  1.0000
  Sb  Sb6       1.0  0.4165493  0.7500000050000001  0.45729759436974254  1.0000
  Cu  Cu7       1.0  0.58321597  0.08333333499999998  0.5055818142236499  1.0000
  Cu  Cu8       1.0  0.9157626999999999  0.249629205  0.5998853987658627  1.0000
  Cu  Cu9       1.0  0.74988264  0.416666665  0.40901338320699415  1.0000
  Rh  Rh13      1.0  0.58321597  0.08333333499999998  0.4331554844427889  1.0000
  Rh  Rh14      1.0  0.9154847800000001  0.24945957500000002  0.5278167883932783  1.0000
  Rh  Rh15      1.0  0.74988264  0.416666665  0.33658705342613326  1.0000
  Rh  Rh16      1.0  0.9165493  0.25000000499999997  0.3848712732800405  1.0000
  Rh  Rh17      1.0  0.74988264  0.416666665  0.4814397042966962  1.0000
  Rh  Rh18      1.0  0.5861187800000002  0.08477028499999999  0.5733656832691778  1.0000
  Sb  Sb7       1.0  0.7484786  0.41622407499999997  0.5556803656403786  1.0000
  Sb  Sb8       1.0  0.58321597  0.08333333499999998  0.3607291633530868  1.0000
  Sb  Sb9       1.0  0.9165493  0.25000000499999997  0.45729759436974254  1.0000
  Cu  Cu10      1.0  0.58321597  0.583333335  0.5055818142236499  1.0000
  Cu  Cu11      1.0  0.91989626  0.751691425  0.5991111903329739  1.0000
  Cu  Cu12      1.0  0.74988264  0.916666665  0.40901338320699415  1.0000
  Rh  Rh19      1.0  0.58321597  0.583333335  0.4331554844427889  1.0000
  Rh  Rh20      1.0  0.91207179  0.747748865  0.5283136271817215  1.0000
  Rh  Rh21      1.0  0.74988264  0.916666665  0.33658705342613326  1.0000
  Rh  Rh22      1.0  0.9165493  0.7500000050000001  0.3848712732800405  1.0000
  Rh  Rh23      1.0  0.74988264  0.916666665  0.4814397042966962  1.0000
  Rh  Rh24      1.0  0.57903653  0.581242245  0.5820155852163926  1.0000
  Sb  Sb10      1.0  0.74849442  0.915708765  0.5556784101296309  1.0000
  Sb  Sb11      1.0  0.58321597  0.583333335  0.3607291633530868  1.0000
  Sb  Sb12      1.0  0.9165493  0.7500000050000001  0.45729759436974254  1.0000
  C   C1        1.0  0.5707774000000001  0.576880775  0.6320268947802998  1.0000
  O   O1        1.0  0.56420676  0.573401075  0.6634129465738666  1.0000
