data_image0
_chemical_formula_structural       Sb8V4CO
_chemical_formula_sum              "Sb8 V4 C1 O1"
_cell_length_a       5.474670140986818
_cell_length_b       5.4746701428596065
_cell_length_c       104.50090958
_cell_angle_alpha    85.97369301315284
_cell_angle_beta     85.97369301177324
_cell_angle_gamma    74.64453871442885

_space_group_name_H-M_alt    "P 1"
_space_group_IT_number       1

loop_
  _space_group_symop_operation_xyz
  'x, y, z'

loop_
  _atom_site_type_symbol
  _atom_site_label
  _atom_site_symmetry_multiplicity
  _atom_site_fract_x
  _atom_site_fract_y
  _atom_site_fract_z
  _atom_site_occupancy
  Sb  Sb1       1.0  0.75457327  0.45188162499999995  0.48201857627477884  1.0000
  Sb  Sb2       1.0  0.12389122999999996  0.831820495  0.522199633290814  1.0000
  Sb  Sb3       1.0  0.25325621999999987  0.578198675  0.46138424057936317  1.0000
  Sb  Sb4       1.0  0.6435277399999998  0.9317540250000002  0.5040875331430071  1.0000
  Sb  Sb5       1.0  0.2408341799999999  0.5782524749999999  0.4949705969220806  1.0000
  Sb  Sb6       1.0  0.8696205699999998  0.19456302499999997  0.4537007204860446  1.0000
  Sb  Sb7       1.0  0.37093761999999986  0.06824597499999997  0.47433505618146027  1.0000
  Sb  Sb8       1.0  0.7439780399999999  0.40869234499999996  0.5165255970583011  1.0000
  V   V1        1.0  0.9058469199999999  0.916972325  0.47817681622811953  1.0000
  V   V2        1.0  0.26521933999999997  0.277783295  0.517869793619856  1.0000
  V   V3        1.0  0.09415307999999994  0.10607679499999997  0.49801436943125826  1.0000
  V   V4        1.0  0.7183469199999999  0.7294723249999999  0.45754248053270385  1.0000
  C   C1        1.0  0.35634850999999984  0.16535010499999997  0.5357362824445068  1.0000
  O   O1        1.0  0.4162644999999998  0.10540131499999997  0.5462992795139555  1.0000
