data_image0
_chemical_formula_structural       Sn14Sb11Pt8CO
_chemical_formula_sum              "Sn14 Sb11 Pt8 C1 O1"
_cell_length_a       9.501325676177665
_cell_length_b       9.521460379885186
_cell_length_c       31.677309479999998
_cell_angle_alpha    89.73085461407669
_cell_angle_beta     89.70550457147834
_cell_angle_gamma    90.22596335233263

_space_group_name_H-M_alt    "P 1"
_space_group_IT_number       1

loop_
  _space_group_symop_operation_xyz
  'x, y, z'

loop_
  _atom_site_type_symbol
  _atom_site_label
  _atom_site_symmetry_multiplicity
  _atom_site_fract_x
  _atom_site_fract_y
  _atom_site_fract_z
  _atom_site_occupancy
  Sn  Sn1       1.0  0.1572611749999999  0.27437897000000006  0.38483888137855243  1.0000
  Sn  Sn2       1.0  0.6495016049999999  0.15139296000000002  0.5398077126554089  1.0000
  Sn  Sn3       1.0  0.3571963849999999  0.7809799700000001  0.5321476046532525  1.0000
  Sn  Sn4       1.0  0.34051829499999986  0.9370172499999999  0.4300516290522494  1.0000
  Sn  Sn5       1.0  0.666794185  0.93686443  0.33840459097578374  1.0000
  Sn  Sn6       1.0  0.4997912749999999  0.60371525  0.42699174750708146  1.0000
  Sn  Sn7       1.0  0.5036088449999998  0.59190478  0.3339619509347212  1.0000
  Sn  Sn8       1.0  0.15726366499999986  0.4360385200000001  0.4891232345917829  1.0000
  Sn  Sn9       1.0  0.681477865  0.83543954  0.5353459096416129  1.0000
  Sn  Sn10      1.0  0.843379445  0.4346463900000001  0.48904640123330395  1.0000
  Sn  Sn11      1.0  0.5691691449999999  0.52464588  0.532563879103245  1.0000
  Sn  Sn12      1.0  0.8499481149999997  0.27663694  0.3851182809084016  1.0000
  Sn  Sn13      1.0  0.9993107249999998  0.74741354  0.5868747077999649  1.0000
  Sn  Sn14      1.0  0.9992220949999999  0.06298275000000003  0.5846609731228075  1.0000
  Sb  Sb1       1.0  0.0007779050000000787  0.78522599  0.4906139662768483  1.0000
  Sb  Sb2       1.0  0.15686840499999985  0.5881725200000001  0.3856242245212102  1.0000
  Sb  Sb3       1.0  0.8583782149999999  0.44086250000000005  0.5923827679923681  1.0000
  Sb  Sb4       1.0  0.5015572749999999  0.28326305999999996  0.4320924130613523  1.0000
  Sb  Sb5       1.0  0.8484343249999997  0.5897536800000001  0.38597797735309214  1.0000
  Sb  Sb6       1.0  0.6550146349999998  0.9363279299999999  0.4312554968424553  1.0000
  Sb  Sb7       1.0  0.35050535499999985  0.9361608299999999  0.3375147709186519  1.0000
  Sb  Sb8       1.0  0.5035941949999999  0.28481161000000005  0.3377993725181193  1.0000
  Sb  Sb9       1.0  0.1747548749999999  0.44554678000000003  0.5854285687395812  1.0000
  Sb  Sb10      1.0  0.3439691249999999  0.09280812000000005  0.5373359795208553  1.0000
  Sb  Sb11      1.0  0.9999806649999998  0.09588508000000004  0.4902312512248123  1.0000
  Pt  Pt1       1.0  0.23352536499999985  0.19047201000000002  0.6048786836182052  1.0000
  Pt  Pt2       1.0  0.24815493499999983  0.6883846400000001  0.460273040402038  1.0000
  Pt  Pt3       1.0  0.25231485499999984  0.18610333  0.46049553170982976  1.0000
  Pt  Pt4       1.0  0.28985770499999985  0.6836399000000002  0.6064045837134576  1.0000
  Pt  Pt5       1.0  0.749736095  0.18425440000000004  0.4601982031865521  1.0000
  Pt  Pt6       1.0  0.6915880449999999  0.6614301200000001  0.6013082612824262  1.0000
  Pt  Pt7       1.0  0.7743846449999999  0.19147540999999996  0.611480001083325  1.0000
  Pt  Pt8       1.0  0.751753645  0.68824375  0.46099274068481416  1.0000
  C   C1        1.0  0.49632333499999987  0.7014306200000001  0.630217722772311  1.0000
  O   O1        1.0  0.4993121549999999  0.7450076  0.6660380490652785  1.0000
