data_image0
_chemical_formula_structural       Al24Fe4CO
_chemical_formula_sum              "Al24 Fe4 C1 O1"
_cell_length_a       4.947734491369553
_cell_length_b       8.8651692
_cell_length_c       109.19658907
_cell_angle_alpha    90.0
_cell_angle_beta     90.86747595504872
_cell_angle_gamma    90.0

_space_group_name_H-M_alt    "P 1"
_space_group_IT_number       1

loop_
  _space_group_symop_operation_xyz
  'x, y, z'

loop_
  _atom_site_type_symbol
  _atom_site_label
  _atom_site_symmetry_multiplicity
  _atom_site_fract_x
  _atom_site_fract_y
  _atom_site_fract_z
  _atom_site_occupancy
  Al  Al1       1.0  0.7235107499999999  0.5368863899999999  0.5285446015497375  1.0000
  Al  Al2       1.0  0.86864002  0.5487986899999999  0.48354486560498144  1.0000
  Al  Al3       1.0  0.6336929399999999  0.9512013100000001  0.504605276438342  1.0000
  Al  Al4       1.0  0.7586929399999999  0.9512013100000001  0.4597359844991116  1.0000
  Al  Al5       1.0  0.7235107299999999  0.060711009999999954  0.5285445979601942  1.0000
  Al  Al6       1.0  0.86864002  0.04879868999999995  0.48354486560498144  1.0000
  Al  Al7       1.0  0.24724392000000003  0.14223187999999995  0.536115540760378  1.0000
  Al  Al8       1.0  0.37723305999999995  0.14639606999999996  0.49145422337360106  1.0000
  Al  Al9       1.0  0.01939163  0.2987986899999999  0.4544549585764481  1.0000
  Al  Al10      1.0  0.8943916299999999  0.2987986899999999  0.4993242505156784  1.0000
  Al  Al11      1.0  0.26728598  0.04879868999999995  0.46764534226773125  1.0000
  Al  Al12      1.0  0.13741606999999997  0.05052004999999995  0.5126113580422091  1.0000
  Al  Al13      1.0  0.6336929399999999  0.6463960699999999  0.504605276438342  1.0000
  Al  Al14      1.0  0.7586929399999999  0.6463960699999999  0.4597359844991116  1.0000
  Al  Al15      1.0  0.24153435999999998  0.79879869  0.45186596094657755  1.0000
  Al  Al16      1.0  0.11653436  0.79879869  0.4967352528858079  1.0000
  Al  Al17      1.0  0.52567943  0.79879869  0.48041698418937734  1.0000
  Al  Al18      1.0  0.39002227999999994  0.79879869  0.5241654555741391  1.0000
  Al  Al19      1.0  0.47936426  0.2987986899999999  0.5155172226117545  1.0000
  Al  Al20      1.0  0.6102465699999999  0.2987986899999999  0.47077322368333524  1.0000
  Al  Al21      1.0  0.24724391  0.45536551999999997  0.536115540760378  1.0000
  Al  Al22      1.0  0.37723305999999995  0.4512013099999999  0.49145422337360106  1.0000
  Al  Al23      1.0  0.26728598  0.5487986899999999  0.46764534226773125  1.0000
  Al  Al24      1.0  0.13741612  0.54707733  0.5126113580422091  1.0000
  Fe  Fe1       1.0  0.89791509  0.7987987  0.5209288540693947  1.0000
  Fe  Fe2       1.0  0.03310808  0.79879869  0.4738077733821623  1.0000
  Fe  Fe3       1.0  0.98060837  0.29879868  0.5215741821737815  1.0000
  Fe  Fe4       1.0  0.10281791000000001  0.2987986899999999  0.4773824380800937  1.0000
  C   C1        1.0  0.91906962  0.7987987899999999  0.5372036498062512  1.0000
  O   O1        1.0  0.9277042699999999  0.79879892  0.5481340390534224  1.0000
