data_image0
_chemical_formula_structural       Au6Ni12Sn24CO
_chemical_formula_sum              "Au6 Ni12 Sn24 C1 O1"
_cell_length_a       9.42402250908247
_cell_length_b       11.434069139372205
_cell_length_c       100.25170341
_cell_angle_alpha    79.10660534222956
_cell_angle_beta     84.3606016353808
_cell_angle_gamma    74.93049304292697

_space_group_name_H-M_alt    "P 1"
_space_group_IT_number       1

loop_
  _space_group_symop_operation_xyz
  'x, y, z'

loop_
  _atom_site_type_symbol
  _atom_site_label
  _atom_site_symmetry_multiplicity
  _atom_site_fract_x
  _atom_site_fract_y
  _atom_site_fract_z
  _atom_site_occupancy
  Au  Au1       1.0  0.4994382949999999  0.051551110000000004  0.5298702597777518  1.0000
  Au  Au2       1.0  0.49295261499999987  0.42246931  0.5170821480817591  1.0000
  Au  Au3       1.0  0.49895355499999994  0.80656168  0.5031841723000967  1.0000
  Au  Au4       1.0  0.49895355499999994  0.18751406  0.48881476982862476  1.0000
  Au  Au5       1.0  0.49895355499999994  0.56846644  0.4744453643395778  1.0000
  Au  Au6       1.0  0.49895355499999994  0.94941882  0.4600759588505308  1.0000
  Ni  Ni1       1.0  0.20105485499999992  0.10595595999999999  0.5314461400412529  1.0000
  Ni  Ni2       1.0  0.1995695549999999  0.48583175000000006  0.5186791483526979  1.0000
  Ni  Ni3       1.0  0.20070006499999998  0.86810605  0.5046127496398838  1.0000
  Ni  Ni4       1.0  0.7996218349999998  0.98903681  0.5289872207698189  1.0000
  Ni  Ni5       1.0  0.7889320949999999  0.37548992999999997  0.5183792044150919  1.0000
  Ni  Ni6       1.0  0.797207045  0.7450173099999999  0.5017555979778845  1.0000
  Ni  Ni7       1.0  0.2007000649999999  0.24905843000000003  0.490243344150837  1.0000
  Ni  Ni8       1.0  0.20070006499999993  0.63001081  0.47587393866179  1.0000
  Ni  Ni9       1.0  0.20070006499999993  0.010963190000000001  0.461504533172743  1.0000
  Ni  Ni10      1.0  0.797207045  0.12596969000000002  0.48738619248883763  1.0000
  Ni  Ni11      1.0  0.797207045  0.5069220700000001  0.4730167900173657  1.0000
  Ni  Ni12      1.0  0.797207045  0.88787445  0.45864738452831877  1.0000
  Sn  Sn1       1.0  0.9034079149999998  0.92916786  0.5060536567911285  1.0000
  Sn  Sn2       1.0  0.9137306549999998  0.15111048  0.5372280219574171  1.0000
  Sn  Sn3       1.0  0.9111478949999996  0.56179531  0.5226548788569723  1.0000
  Sn  Sn4       1.0  0.3215870149999999  0.04453225000000001  0.5087578596465855  1.0000
  Sn  Sn5       1.0  0.31881391499999995  0.2804232  0.5360454101736034  1.0000
  Sn  Sn6       1.0  0.31594270499999993  0.66901507  0.5229449221309973  1.0000
  Sn  Sn7       1.0  0.08626934499999993  0.30419096000000007  0.5149148774342512  1.0000
  Sn  Sn8       1.0  0.09988607499999991  0.68255973  0.5003058251912846  1.0000
  Sn  Sn9       1.0  0.09891958499999995  0.90765722  0.5305425634178574  1.0000
  Sn  Sn10      1.0  0.679364145  0.18746629  0.5121760267826233  1.0000
  Sn  Sn11      1.0  0.6646859349999998  0.5660137300000001  0.497600548079127  1.0000
  Sn  Sn12      1.0  0.6767005649999999  0.8085040099999998  0.5259541505203634  1.0000
  Sn  Sn13      1.0  0.898021035  0.07342077000000001  0.46295430595934295  1.0000
  Sn  Sn14      1.0  0.8980210349999997  0.31151601000000007  0.49169311693743684  1.0000
  Sn  Sn15      1.0  0.898021035  0.69246839  0.4773237114483899  1.0000
  Sn  Sn16      1.0  0.33322117499999987  0.18996677000000003  0.46565958608907565  1.0000
  Sn  Sn17      1.0  0.33322117499999987  0.42806201  0.49439839404959446  1.0000
  Sn  Sn18      1.0  0.3332211749999998  0.80901439  0.4800289915781225  1.0000
  Sn  Sn19      1.0  0.09988607499999991  0.44446449  0.4715670172307658  1.0000
  Sn  Sn20      1.0  0.09988607499999995  0.82541687  0.4571976117417188  1.0000
  Sn  Sn21      1.0  0.09988607499999995  0.06351211000000001  0.4859364197022377  1.0000
  Sn  Sn22      1.0  0.6646859349999998  0.32791849000000006  0.46886173710103307  1.0000
  Sn  Sn23      1.0  0.6646859349999998  0.70887087  0.4544923316119861  1.0000
  Sn  Sn24      1.0  0.664685935  0.9469661099999999  0.48323114259008  1.0000
  C   C1        1.0  0.7045285649999998  0.40468570000000004  0.5345932082391271  1.0000
  O   O1        1.0  0.6577577349999999  0.42448499000000006  0.5455076683880139  1.0000
