data_image0
_chemical_formula_structural       COIr2W2Ir2W2Ir2W2Ir2W2Ir2W2Ir2W2Ir2W2Ir2W2
_chemical_formula_sum              "C1 O1 Ir16 W16"
_cell_length_a       5.56519156
_cell_length_b       8.99203124
_cell_length_c       104.06819766000001
_cell_angle_alpha    90.0
_cell_angle_beta     90.0
_cell_angle_gamma    90.0

_space_group_name_H-M_alt    "P 1"
_space_group_IT_number       1

loop_
  _space_group_symop_operation_xyz
  'x, y, z'

loop_
  _atom_site_type_symbol
  _atom_site_label
  _atom_site_symmetry_multiplicity
  _atom_site_fract_x
  _atom_site_fract_y
  _atom_site_fract_z
  _atom_site_occupancy
  C   C1        1.0  0.43307413999999994  0.601726145  0.5418225321071484  1.0000
  O   O1        1.0  0.32498042  0.5903920850000001  0.5516540862916528  1.0000
  Ir  Ir1       1.0  0.37480512000000005  0.12433506500000001  0.45545855471878444  1.0000
  Ir  Ir2       1.0  0.37480512000000005  0.374335065  0.47188090526044163  1.0000
  W   W1        1.0  0.12480512  0.12433506500000001  0.4789935495445206  1.0000
  W   W2        1.0  0.12480512  0.374335065  0.4483459137083471  1.0000
  Ir  Ir3       1.0  0.37266002  0.12399438500000003  0.5023142747094401  1.0000
  Ir  Ir4       1.0  0.37380187000000004  0.371249625  0.5184091039606237  1.0000
  W   W3        1.0  0.12212575  0.12450926500000001  0.5242893891542906  1.0000
  W   W4        1.0  0.12480512  0.374335065  0.49511222072716216  1.0000
  Ir  Ir5       1.0  0.37480512000000005  0.624335065  0.45545855471878444  1.0000
  Ir  Ir6       1.0  0.37480512000000005  0.874335065  0.47188090526044163  1.0000
  W   W5        1.0  0.12480512  0.624335065  0.4789935495445206  1.0000
  W   W6        1.0  0.12480512  0.874335065  0.4483459137083471  1.0000
  Ir  Ir7       1.0  0.37486695999999997  0.624141615  0.5024522161437186  1.0000
  Ir  Ir8       1.0  0.37282793  0.876333025  0.5184798178918918  1.0000
  W   W7        1.0  0.12338344  0.623667875  0.5246021299531354  1.0000
  W   W8        1.0  0.12480512  0.874335065  0.49511222072716216  1.0000
  Ir  Ir9       1.0  0.8748051199999999  0.12433506500000001  0.45545855471878444  1.0000
  Ir  Ir10      1.0  0.8748051199999999  0.374335065  0.47188090526044163  1.0000
  W   W9        1.0  0.62480512  0.12433506500000001  0.4789935495445206  1.0000
  W   W10       1.0  0.62480512  0.374335065  0.4483459137083471  1.0000
  Ir  Ir11      1.0  0.8729243499999999  0.124241605  0.5023811879428609  1.0000
  Ir  Ir12      1.0  0.87338156  0.375729915  0.5185437390169297  1.0000
  W   W11       1.0  0.62112855  0.123666975  0.5243488614004528  1.0000
  W   W12       1.0  0.62480512  0.374335065  0.49511222072716216  1.0000
  Ir  Ir13      1.0  0.8748051199999999  0.624335065  0.45545855471878444  1.0000
  Ir  Ir14      1.0  0.8748051199999999  0.874335065  0.47188090526044163  1.0000
  W   W13       1.0  0.62480512  0.624335065  0.4789935495445206  1.0000
  W   W14       1.0  0.62480512  0.874335065  0.4483459137083471  1.0000
  Ir  Ir15      1.0  0.8778742499999999  0.624296175  0.5020222004097433  1.0000
  Ir  Ir16      1.0  0.87347677  0.872430355  0.5186051394379688  1.0000
  W   W15       1.0  0.6146027  0.6250357950000001  0.5250546028681902  1.0000
  W   W16       1.0  0.62480512  0.874335065  0.49511222072716216  1.0000
