data_image0
_chemical_formula_structural       COAl4Ag8Al4Ag8
_chemical_formula_sum              "C1 O1 Al8 Ag16"
_cell_length_a       5.07160641
_cell_length_b       10.034942193289686
_cell_length_c       102.66946899999999
_cell_angle_alpha    62.28449662572262
_cell_angle_beta     90.0
_cell_angle_gamma    90.0

_space_group_name_H-M_alt    "P 1"
_space_group_IT_number       1

loop_
  _space_group_symop_operation_xyz
  'x, y, z'

loop_
  _atom_site_type_symbol
  _atom_site_label
  _atom_site_symmetry_multiplicity
  _atom_site_fract_x
  _atom_site_fract_y
  _atom_site_fract_z
  _atom_site_occupancy
  C   C1        1.0  0.56843808  0.75596102  0.544200235061468  1.0000
  O   O1        1.0  0.5982993300000001  0.7379777599999999  0.5561259543582353  1.0000
  Al  Al1       1.0  0.66953389  0.07643341000000001  0.4438740456417645  1.0000
  Al  Al2       1.0  0.82443247  0.57643341  0.4438740456417645  1.0000
  Al  Al3       1.0  0.16953389000000002  0.57643341  0.46660264720226674  1.0000
  Al  Al4       1.0  0.32443247000000003  0.07643341000000001  0.46660264720226674  1.0000
  Ag  Ag1       1.0  0.17848677999999998  0.91541349  0.45119356236183894  1.0000
  Ag  Ag2       1.0  0.6784867800000001  0.73745333  0.4592831304821925  1.0000
  Ag  Ag3       1.0  0.81547958  0.91541349  0.47392216392234104  1.0000
  Ag  Ag4       1.0  0.31547958000000004  0.73745333  0.48201173522469887  1.0000
  Ag  Ag5       1.0  0.6784867800000001  0.41541349000000005  0.473922163922341  1.0000
  Ag  Ag6       1.0  0.17848677999999998  0.23745333000000002  0.48201173522469887  1.0000
  Ag  Ag7       1.0  0.31547958000000004  0.41541349000000005  0.4511935623618389  1.0000
  Ag  Ag8       1.0  0.81547958  0.23745333000000002  0.4592831304821925  1.0000
  Al  Al5       1.0  0.66953389  0.07643341000000001  0.4893312487627689  1.0000
  Al  Al6       1.0  0.82443247  0.57643341  0.48933124876276884  1.0000
  Al  Al7       1.0  0.17636828000000002  0.58351441  0.5130075593866291  1.0000
  Al  Al8       1.0  0.3093498  0.08563566  0.5121685698635781  1.0000
  Ag  Ag9       1.0  0.17848677999999998  0.91541349  0.49665076548284326  1.0000
  Ag  Ag10      1.0  0.6866907000000001  0.74403734  0.504796686899033  1.0000
  Ag  Ag11      1.0  0.8304661099999999  0.9235665900000001  0.5207027467142537  1.0000
  Ag  Ag12      1.0  0.32028167  0.75025865  0.5266494895109485  1.0000
  Ag  Ag13      1.0  0.6789115600000001  0.42981832  0.5193038803557609  1.0000
  Ag  Ag14      1.0  0.18264299000000006  0.2575622  0.5262943810150693  1.0000
  Ag  Ag15      1.0  0.31547958000000004  0.41541349000000005  0.49665076548284326  1.0000
  Ag  Ag16      1.0  0.8005313599999999  0.23665103000000004  0.5056971845648573  1.0000
