data_image0
_chemical_formula_structural       COAlCo2Si2AlCo2Si2AlCo2Si2AlCo2Si2AlCo2Si2AlCo2Si2AlCo2Si2AlCo2Si2
_chemical_formula_sum              "C1 O1 Al8 Co16 Si16"
_cell_length_a       7.90261846
_cell_length_b       7.9026184625960365
_cell_length_c       102.59163033
_cell_angle_alpha    90.0
_cell_angle_beta     90.0
_cell_angle_gamma    120.00000007285162

_space_group_name_H-M_alt    "P 1"
_space_group_IT_number       1

loop_
  _space_group_symop_operation_xyz
  'x, y, z'

loop_
  _atom_site_type_symbol
  _atom_site_label
  _atom_site_symmetry_multiplicity
  _atom_site_fract_x
  _atom_site_fract_y
  _atom_site_fract_z
  _atom_site_occupancy
  C   C1        1.0  0.1691740299999999  0.33850833999999996  0.541548048497532  1.0000
  O   O1        1.0  0.16914281999999992  0.33854442  0.5531298922919767  1.0000
  Al  Al1       1.0  0.002555039999999911  0.00512448999999999  0.48486955938916454  1.0000
  Co  Co1       1.0  0.3358883699999999  0.17179115999999997  0.44687010770802343  1.0000
  Co  Co2       1.0  0.16922170999999991  0.33845782  0.4774857043831922  1.0000
  Si  Si1       1.0  0.16922170999999991  0.33845782  0.45527322362492023  1.0000
  Si  Si2       1.0  0.3358883699999999  0.17179115999999997  0.4690825884662954  1.0000
  Al  Al2       1.0  0.9974449599999998  0.99487551  0.5288819045247684  1.0000
  Co  Co3       1.0  0.3358883699999999  0.17179115999999997  0.49225341121830557  1.0000
  Co  Co4       1.0  0.16922010999999992  0.33845948000000003  0.5243411324611958  1.0000
  Si  Si3       1.0  0.1692236099999999  0.33845406000000006  0.5011139908437352  1.0000
  Si  Si4       1.0  0.3364352799999999  0.17124585999999997  0.5153066848582106  1.0000
  Al  Al3       1.0  0.0025550399999999165  0.50512449  0.48486955938916454  1.0000
  Co  Co5       1.0  0.3358883699999999  0.67179116  0.44687010770802343  1.0000
  Co  Co6       1.0  0.1692217099999999  0.8384578199999999  0.4774857043831922  1.0000
  Si  Si5       1.0  0.1692217099999999  0.8384578199999999  0.45527322362492023  1.0000
  Si  Si6       1.0  0.3358883699999999  0.67179116  0.4690825884662954  1.0000
  Al  Al4       1.0  0.99743026  0.5102489800000001  0.5288913015917812  1.0000
  Co  Co7       1.0  0.3358883699999999  0.67179116  0.49225341121830557  1.0000
  Co  Co8       1.0  0.17067850999999995  0.83917043  0.5218467671147818  1.0000
  Si  Si7       1.0  0.1696182499999999  0.8386594900000001  0.5002777821296814  1.0000
  Si  Si8       1.0  0.33641436999999996  0.67285921  0.5153078888772767  1.0000
  Al  Al5       1.0  0.50255504  0.00512448999999999  0.48486955938916454  1.0000
  Co  Co9       1.0  0.83588837  0.17179115999999997  0.44687010770802343  1.0000
  Co  Co10      1.0  0.6692217099999999  0.33845782  0.4774857043831922  1.0000
  Si  Si9       1.0  0.6692217099999999  0.33845782  0.45527322362492023  1.0000
  Si  Si10      1.0  0.83588837  0.17179115999999997  0.4690825884662954  1.0000
  Al  Al6       1.0  0.5025498799999999  0.00513078999999999  0.5295888447960172  1.0000
  Co  Co11      1.0  0.83588837  0.17179115999999997  0.49225341121830557  1.0000
  Co  Co12      1.0  0.6685103299999999  0.33700148999999996  0.5218467575842879  1.0000
  Si  Si11      1.0  0.6690212999999999  0.33806013  0.5002777185930553  1.0000
  Si  Si12      1.0  0.8348195599999999  0.17126557  0.5153076188466156  1.0000
  Al  Al7       1.0  0.50255504  0.50512449  0.48486955938916454  1.0000
  Co  Co13      1.0  0.8358883699999999  0.67179116  0.44687010770802343  1.0000
  Co  Co14      1.0  0.6692217099999999  0.8384578199999999  0.4774857043831922  1.0000
  Si  Si13      1.0  0.6692217099999999  0.8384578199999999  0.45527322362492023  1.0000
  Si  Si14      1.0  0.8358883699999999  0.67179116  0.4690825884662954  1.0000
  Al  Al8       1.0  0.51280491  0.51023481  0.5288819426467442  1.0000
  Co  Co15      1.0  0.8358883699999999  0.67179116  0.49225341121830557  1.0000
  Co  Co16      1.0  0.66849686  0.8391846600000001  0.5218408359707274  1.0000
  Si  Si15      1.0  0.6690314599999998  0.83865179  0.5002743797433492  1.0000
  Si  Si16      1.0  0.8359030700000001  0.6717762400000001  0.5149324509531489  1.0000
