data_image0
_chemical_formula_structural       COAl4Ag8
_chemical_formula_sum              "C1 O1 Al4 Ag8"
_cell_length_a       5.07160641
_cell_length_b       4.667067
_cell_length_c       34.46555464
_cell_angle_alpha    90.0
_cell_angle_beta     90.0
_cell_angle_gamma    90.0

_space_group_name_H-M_alt    "P 1"
_space_group_IT_number       1

loop_
  _space_group_symop_operation_xyz
  'x, y, z'

loop_
  _atom_site_type_symbol
  _atom_site_label
  _atom_site_symmetry_multiplicity
  _atom_site_fract_x
  _atom_site_fract_y
  _atom_site_fract_z
  _atom_site_occupancy
  C   C1        1.0  0.083559435  0.499999825  0.6157983365530949  1.0000
  O   O1        1.0  0.083559515  0.499999775  0.6497129315071758  1.0000
  Al  Al1       1.0  0.756110135  0.250000015  0.35028706849282415  1.0000
  Al  Al2       1.0  0.9164405649999999  0.748486125  0.4801996214766676  1.0000
  Al  Al3       1.0  0.250678495  0.251513865  0.4801996008564016  1.0000
  Al  Al4       1.0  0.411008715  0.750000015  0.35028706849282415  1.0000
  Ag  Ag1       1.0  0.265822505  0.24803053500000002  0.5652896546437366  1.0000
  Ag  Ag2       1.0  0.755538405  0.247867045  0.5204895902967208  1.0000
  Ag  Ag3       1.0  0.9012947250000001  0.751969915  0.5652900361186589  1.0000
  Ag  Ag4       1.0  0.41158067499999995  0.752132955  0.5204896109169869  1.0000
  Ag  Ag5       1.0  0.765063025  0.250000015  0.43766031155177026  1.0000
  Ag  Ag6       1.0  0.265063025  0.250000015  0.39179048842089803  1.0000
  Ag  Ag7       1.0  0.402055825  0.750000015  0.43766031155177026  1.0000
  Ag  Ag8       1.0  0.902055825  0.750000015  0.39179048842089803  1.0000
