data_image0
_chemical_formula_structural       COIr3Sn6
_chemical_formula_sum              "C1 O1 Ir3 Sn6"
_cell_length_a       4.57242106
_cell_length_b       4.572421064538864
_cell_length_c       103.60029546999999
_cell_angle_alpha    90.0
_cell_angle_beta     90.0
_cell_angle_gamma    119.99999996716303

_space_group_name_H-M_alt    "P 1"
_space_group_IT_number       1

loop_
  _space_group_symop_operation_xyz
  'x, y, z'

loop_
  _atom_site_type_symbol
  _atom_site_label
  _atom_site_symmetry_multiplicity
  _atom_site_fract_x
  _atom_site_fract_y
  _atom_site_fract_z
  _atom_site_occupancy
  C   C1        1.0  0.9501546949999999  0.25035214499999997  0.5517610540336259  1.0000
  O   O1        1.0  0.9417138249999998  0.25868914499999995  0.5630457005427391  1.0000
  Ir  Ir1       1.0  0.36717180499999985  0.8333333349999998  0.46398148923311233  1.0000
  Ir  Ir2       1.0  0.968364865  0.23219642499999996  0.5336608081095462  1.0000
  Ir  Ir3       1.0  0.7005051449999999  0.4999999949999999  0.5000177390243183  1.0000
  Sn  Sn1       1.0  0.36717180499999985  0.8333333349999998  0.49100867576570123  1.0000
  Sn  Sn2       1.0  0.03383847499999998  0.16666666499999996  0.45497242597449516  1.0000
  Sn  Sn3       1.0  0.6375980049999999  0.5630115649999999  0.5292108703181297  1.0000
  Sn  Sn4       1.0  0.03163513499999998  0.16890641499999998  0.5078014263535066  1.0000
  Sn  Sn5       1.0  0.7005051449999999  0.4999999949999999  0.47299054924846695  1.0000
  Sn  Sn6       1.0  0.36717180499999985  0.8333333349999998  0.4369542994572609  1.0000
