data_image0
_chemical_formula_structural       CORh4Sn2V2Rh4Sn2V2
_chemical_formula_sum              "C1 O1 Rh8 Sn4 V4"
_cell_length_a       8.20552332
_cell_length_b       4.698842031278917
_cell_length_c       41.28449628
_cell_angle_alpha    91.76387076778539
_cell_angle_beta     90.0
_cell_angle_gamma    115.8853373762316

_space_group_name_H-M_alt    "P 1"
_space_group_IT_number       1

loop_
  _space_group_symop_operation_xyz
  'x, y, z'

loop_
  _atom_site_type_symbol
  _atom_site_label
  _atom_site_symmetry_multiplicity
  _atom_site_fract_x
  _atom_site_fract_y
  _atom_site_fract_z
  _atom_site_occupancy
  C   C1        1.0  0.03308698999999999  0.55554031  0.5724411376679128  1.0000
  O   O1        1.0  0.08333810999999999  0.61430207  0.6001092821471304  1.0000
  Rh  Rh1       1.0  0.24800316  0.6679782499999999  0.5097311515646242  1.0000
  Rh  Rh2       1.0  0.5822268699999998  0.99409327  0.546959807897136  1.0000
  Rh  Rh3       1.0  0.12316300999999998  0.18555180000000004  0.42162671010438996  1.0000
  Rh  Rh4       1.0  0.4356630099999999  0.43555180000000004  0.4650986946074306  1.0000
  Sn  Sn1       1.0  0.09006390999999998  0.05833054000000005  0.48514568549496867  1.0000
  Sn  Sn2       1.0  0.46691300999999996  0.5605517999999999  0.3998907178528696  1.0000
  V   V1        1.0  0.42083380000000004  0.40195875000000003  0.5284451801190189  1.0000
  V   V2        1.0  0.27941300999999996  0.8105517999999999  0.44336270235591024  1.0000
  Rh  Rh5       1.0  0.7533920399999999  0.6782798499999999  0.5119167907906043  1.0000
  Rh  Rh6       1.0  0.10035375999999997  0.005906730000000055  0.5470918097086398  1.0000
  Rh  Rh7       1.0  0.62316301  0.18555180000000004  0.42162671010438996  1.0000
  Rh  Rh8       1.0  0.93566301  0.43555180000000004  0.4650986946074306  1.0000
  Sn  Sn3       1.0  0.5919697399999999  0.06590066000000004  0.4854000974593155  1.0000
  Sn  Sn4       1.0  0.96691301  0.5605517999999999  0.3998907178528696  1.0000
  V   V3        1.0  0.9073120499999999  0.3332133200000001  0.5315546511820699  1.0000
  V   V4        1.0  0.7794130099999997  0.8105517999999999  0.44336270235591024  1.0000
