data_image0
_chemical_formula_structural       COAl4V12Al4V12
_chemical_formula_sum              "C1 O1 Al8 V24"
_cell_length_a       4.82055689
_cell_length_b       6.81729693
_cell_length_c       104.08648466
_cell_angle_alpha    90.0
_cell_angle_beta     90.0
_cell_angle_gamma    90.0

_space_group_name_H-M_alt    "P 1"
_space_group_IT_number       1

loop_
  _space_group_symop_operation_xyz
  'x, y, z'

loop_
  _atom_site_type_symbol
  _atom_site_label
  _atom_site_symmetry_multiplicity
  _atom_site_fract_x
  _atom_site_fract_y
  _atom_site_fract_z
  _atom_site_occupancy
  C   C1        1.0  0.625000745  0.9069746999999999  0.5585839135504755  1.0000
  O   O1        1.0  0.6250008149999999  0.7585469199999999  0.5667549055514132  1.0000
  Al  Al1       1.0  0.125000175  0.56996381  0.45780626930093016  1.0000
  Al  Al2       1.0  0.125000175  0.06996380999999997  0.49055450243738774  1.0000
  Al  Al3       1.0  0.625000175  0.56996381  0.49055450243738774  1.0000
  Al  Al4       1.0  0.625000175  0.06996380999999997  0.45780626930093016  1.0000
  V   V1        1.0  0.625000175  0.69496381  0.44961921101681573  1.0000
  V   V2        1.0  0.625000175  0.19496380999999996  0.4823674441532734  1.0000
  V   V3        1.0  0.625000175  0.94496381  0.4332450944485869  1.0000
  V   V4        1.0  0.625000175  0.44496380999999996  0.4659933275850446  1.0000
  V   V5        1.0  0.875000175  0.31996380999999996  0.44143215273270137  1.0000
  V   V6        1.0  0.875000175  0.8199638099999998  0.47418038586915895  1.0000
  V   V7        1.0  0.37500017499999994  0.31996380999999996  0.44143215273270137  1.0000
  V   V8        1.0  0.37500017499999994  0.8199638099999998  0.47418038586915895  1.0000
  V   V9        1.0  0.125000175  0.44496380999999996  0.4823674441532734  1.0000
  V   V10       1.0  0.125000175  0.94496381  0.44961921101681573  1.0000
  V   V11       1.0  0.125000175  0.69496381  0.4332450944485869  1.0000
  V   V12       1.0  0.125000175  0.19496380999999996  0.4659933275850446  1.0000
  Al  Al5       1.0  0.125000175  0.56996381  0.5233027355738454  1.0000
  Al  Al6       1.0  0.12500040499999998  0.05503618999999997  0.5565199692563435  1.0000
  Al  Al7       1.0  0.6249997150000001  0.53094215  0.5566853118106262  1.0000
  Al  Al8       1.0  0.625000175  0.06996380999999997  0.5233027355738454  1.0000
  V   V13       1.0  0.625000175  0.69496381  0.515115677289731  1.0000
  V   V14       1.0  0.625000095  0.14394043999999998  0.5491614838432846  1.0000
  V   V15       1.0  0.625000175  0.94496381  0.4987415607215022  1.0000
  V   V16       1.0  0.6250002050000001  0.45484275999999996  0.5323994120563814  1.0000
  V   V17       1.0  0.875000175  0.31996380999999996  0.5069286190056166  1.0000
  V   V18       1.0  0.874825235  0.8100283899999998  0.5389776184177912  1.0000
  V   V19       1.0  0.37500017499999994  0.31996380999999996  0.5069286190056166  1.0000
  V   V20       1.0  0.375175375  0.81002849  0.5389776184177912  1.0000
  V   V21       1.0  0.124999825  0.41949422999999997  0.546418858615986  1.0000
  V   V22       1.0  0.125000175  0.94496381  0.515115677289731  1.0000
  V   V23       1.0  0.125000175  0.69496381  0.4987415607215022  1.0000
  V   V24       1.0  0.12500024499999998  0.19558840999999996  0.5327101796895531  1.0000
