data_image0
_chemical_formula_structural       COGa8Os4
_chemical_formula_sum              "C1 O1 Ga8 Os4"
_cell_length_a       4.80675058
_cell_length_b       5.02818103019246
_cell_length_c       36.46394688
_cell_angle_alpha    90.0
_cell_angle_beta     90.0
_cell_angle_gamma    118.55362456628968

_space_group_name_H-M_alt    "P 1"
_space_group_IT_number       1

loop_
  _space_group_symop_operation_xyz
  'x, y, z'

loop_
  _atom_site_type_symbol
  _atom_site_label
  _atom_site_symmetry_multiplicity
  _atom_site_fract_x
  _atom_site_fract_y
  _atom_site_fract_z
  _atom_site_occupancy
  C   C1        1.0  0.948613195  0.708627165  0.6192854701496551  1.0000
  O   O1        1.0  0.809949325  0.675619425  0.6464086479468033  1.0000
  Ga  Ga1       1.0  0.05172414500000011  0.7484820050000001  0.48513323556624477  1.0000
  Ga  Ga2       1.0  0.5521897750000001  0.748599055  0.4497553978991537  1.0000
  Ga  Ga3       1.0  0.552624015  0.250510365  0.5092209289248375  1.0000
  Ga  Ga4       1.0  0.05138680500000002  0.249178535  0.5452970337788047  1.0000
  Ga  Ga5       1.0  0.5521897750000001  0.748599055  0.37239035872033094  1.0000
  Ga  Ga6       1.0  0.05373289500000006  0.751400945  0.5607481508099619  1.0000
  Ga  Ga7       1.0  0.052189775000000035  0.248599055  0.3922738716426082  1.0000
  Ga  Ga8       1.0  0.5521897750000001  0.248599055  0.4298718849768764  1.0000
  Os  Os1       1.0  0.5493885150000001  0.750475565  0.525615653493978  1.0000
  Os  Os2       1.0  0.052189775000000035  0.248599055  0.4685544045662877  1.0000
  Os  Os3       1.0  0.05218977500000004  0.748599055  0.4110728783097423  1.0000
  Os  Os4       1.0  0.5521897750000001  0.248599055  0.3535913520531968  1.0000
