data_image0
_chemical_formula_structural       COFe2Rh4Sn2Fe2Rh4Sn2
_chemical_formula_sum              "C1 O1 Fe4 Rh8 Sn4"
_cell_length_a       8.23559122
_cell_length_b       4.571696584718414
_cell_length_c       41.5538879
_cell_angle_alpha    90.51969691555435
_cell_angle_beta     90.0
_cell_angle_gamma    116.76662260520041

_space_group_name_H-M_alt    "P 1"
_space_group_IT_number       1

loop_
  _space_group_symop_operation_xyz
  'x, y, z'

loop_
  _atom_site_type_symbol
  _atom_site_label
  _atom_site_symmetry_multiplicity
  _atom_site_fract_x
  _atom_site_fract_y
  _atom_site_fract_z
  _atom_site_occupancy
  C   C1        1.0  0.19710964999999994  0.7260378449999999  0.5770659378018523  1.0000
  O   O1        1.0  0.20169866999999994  0.726993705  0.6053483868347429  1.0000
  Fe  Fe1       1.0  0.44694029999999996  0.776240425  0.41604410007921927  1.0000
  Fe  Fe2       1.0  0.33480646  0.310529585  0.4999068862057589  1.0000
  Rh  Rh1       1.0  0.19449489999999994  0.7398169149999999  0.5324630817779481  1.0000
  Rh  Rh2       1.0  0.29069029999999996  0.15124042499999996  0.4374365869931815  1.0000
  Rh  Rh3       1.0  0.10319029999999997  0.40124042499999996  0.39465161316525715  1.0000
  Rh  Rh4       1.0  0.47015703  0.9074624549999999  0.47974748961990077  1.0000
  Sn  Sn1       1.0  0.55253303  0.12901808499999995  0.5424170641265791  1.0000
  Sn  Sn2       1.0  0.13444029999999996  0.526240425  0.4588290739071436  1.0000
  Fe  Fe3       1.0  0.9469403  0.776240425  0.41604410007921927  1.0000
  Fe  Fe4       1.0  0.83134228  0.32404099499999994  0.4988769800069647  1.0000
  Rh  Rh5       1.0  0.6789253000000001  0.7225774049999999  0.5196552184542699  1.0000
  Rh  Rh6       1.0  0.7906903000000001  0.15124042499999996  0.4374365869931815  1.0000
  Rh  Rh7       1.0  0.6031903000000001  0.40124042499999996  0.39465161316525715  1.0000
  Rh  Rh8       1.0  0.9860615500000002  0.907537745  0.47783916341204646  1.0000
  Sn  Sn3       1.0  0.013938449999999962  0.09246225499999997  0.5392141809858205  1.0000
  Sn  Sn4       1.0  0.6344403000000001  0.526240425  0.4588290739071436  1.0000
