data_image0
_chemical_formula_structural       COSi12Pt12
_chemical_formula_sum              "C1 O1 Si12 Pt12"
_cell_length_a       6.75536042842765
_cell_length_b       7.024047732620829
_cell_length_c       106.14515284000001
_cell_angle_alpha    69.04264812576909
_cell_angle_beta     71.86555262037251
_cell_angle_gamma    73.69998937983587

_space_group_name_H-M_alt    "P 1"
_space_group_IT_number       1

loop_
  _space_group_symop_operation_xyz
  'x, y, z'

loop_
  _atom_site_type_symbol
  _atom_site_label
  _atom_site_symmetry_multiplicity
  _atom_site_fract_x
  _atom_site_fract_y
  _atom_site_fract_z
  _atom_site_occupancy
  C   C1        1.0  0.6730681000000001  0.47018513000000006  0.5404966940822583  1.0000
  O   O1        1.0  0.5865781000000002  0.41025726000000007  0.5521466096178157  1.0000
  Si  Si1       1.0  0.007882600000000062  0.39585673000000005  0.4925035292510616  1.0000
  Si  Si2       1.0  0.3412159300000001  0.72919006  0.4641263884309198  1.0000
  Si  Si3       1.0  0.6674444600000002  0.052904309999999996  0.5220606290915292  1.0000
  Si  Si4       1.0  0.3233423400000002  0.94709569  0.521324041347626  1.0000
  Si  Si5       1.0  0.6587840700000003  0.23709162  0.49183408636536713  1.0000
  Si  Si6       1.0  0.9921174  0.57042495  0.4634569455452253  1.0000
  Si  Si7       1.0  0.5634255200000002  0.7847708900000001  0.48777508127471797  1.0000
  Si  Si8       1.0  0.8967588500000001  0.11810422000000001  0.4593979404545762  1.0000
  Si  Si9       1.0  0.24914281000000008  0.47638434  0.516859402039012  1.0000
  Si  Si10      1.0  0.8170800800000001  0.55035857  0.5219227570447111  1.0000
  Si  Si11      1.0  0.10977013000000005  0.8519153900000002  0.49589119472784804  1.0000
  Si  Si12      1.0  0.4365744800000001  0.18151079  0.4681853935215688  1.0000
  Pt  Pt1       1.0  0.6772572200000001  0.86231258  0.504805251846131  1.0000
  Pt  Pt2       1.0  0.015301560000000092  0.19728629000000003  0.4762305312023261  1.0000
  Pt  Pt3       1.0  0.3486348900000001  0.5306196200000001  0.4478533903821843  1.0000
  Pt  Pt4       1.0  0.6415441300000002  0.42410721  0.5089885998973995  1.0000
  Pt  Pt5       1.0  0.9846984400000002  0.7689953900000001  0.4797299435939609  1.0000
  Pt  Pt6       1.0  0.3180317700000001  0.10232872000000001  0.45135279936856193  1.0000
  Pt  Pt7       1.0  0.01822598000000008  0.81006224  0.5202282364443969  1.0000
  Pt  Pt8       1.0  0.3110298700000001  0.10582968  0.4936204739899615  1.0000
  Pt  Pt9       1.0  0.6443632  0.4391630100000001  0.4652433297645627  1.0000
  Pt  Pt10      1.0  0.3556368000000001  0.52711867  0.4907171450317242  1.0000
  Pt  Pt11      1.0  0.6889701300000002  0.8604520000000001  0.46234000080632537  1.0000
  Pt  Pt12      1.0  0.03700964000000008  0.23891761000000003  0.5175447815276285  1.0000
