data_image0
_chemical_formula_structural       COGa4Au4Ga4Au4
_chemical_formula_sum              "C1 O1 Ga8 Au8"
_cell_length_a       6.40675061
_cell_length_b       6.40975019
_cell_length_c       99.50091520000001
_cell_angle_alpha    90.0
_cell_angle_beta     90.0
_cell_angle_gamma    90.0

_space_group_name_H-M_alt    "P 1"
_space_group_IT_number       1

loop_
  _space_group_symop_operation_xyz
  'x, y, z'

loop_
  _atom_site_type_symbol
  _atom_site_label
  _atom_site_symmetry_multiplicity
  _atom_site_fract_x
  _atom_site_fract_y
  _atom_site_fract_z
  _atom_site_occupancy
  C   C1        1.0  0.6475869249999999  0.526287625  0.5339522954581818  1.0000
  O   O1        1.0  0.715916245  0.5110597350000001  0.544711515303945  1.0000
  Ga  Ga1       1.0  0.07800652499999998  0.6828560150000001  0.47381903988033525  1.0000
  Ga  Ga2       1.0  0.925931925  0.32064917500000006  0.4552884846960549  1.0000
  Ga  Ga3       1.0  0.425931925  0.182856015  0.47381903988033525  1.0000
  Ga  Ga4       1.0  0.5780065249999998  0.820649175  0.4552884846960549  1.0000
  Au  Au1       1.0  0.689892905  0.5094168650000002  0.47381903988033525  1.0000
  Au  Au2       1.0  0.314045545  0.4940883250000001  0.4552884846960549  1.0000
  Au  Au3       1.0  0.8140455449999999  0.009416865000000031  0.47381903988033525  1.0000
  Au  Au4       1.0  0.18989290499999997  0.9940883250000001  0.4552884846960549  1.0000
  Ga  Ga5       1.0  0.07406807499999997  0.6869121550000001  0.5104517208481466  1.0000
  Ga  Ga6       1.0  0.9182546749999999  0.31694914500000004  0.49299446727969504  1.0000
  Ga  Ga7       1.0  0.42640229499999993  0.163292225  0.5113289514007928  1.0000
  Ga  Ga8       1.0  0.572088645  0.7912531650000001  0.49269812960607695  1.0000
  Au  Au5       1.0  0.702910545  0.4938475450000001  0.512727886756764  1.0000
  Au  Au6       1.0  0.30802196499999995  0.4743329750000001  0.4934476030990606  1.0000
  Au  Au7       1.0  0.8072325049999999  0.005911675000000029  0.5092283098757697  1.0000
  Au  Au8       1.0  0.194543795  0.9886289550000001  0.49241785570013685  1.0000
