data_image0
_chemical_formula_structural       COSi4Pt4Si4Pt4
_chemical_formula_sum              "C1 O1 Si8 Pt8"
_cell_length_a       5.68559072
_cell_length_b       6.00244023
_cell_length_c       99.19859176
_cell_angle_alpha    90.0
_cell_angle_beta     90.0
_cell_angle_gamma    90.0

_space_group_name_H-M_alt    "P 1"
_space_group_IT_number       1

loop_
  _space_group_symop_operation_xyz
  'x, y, z'

loop_
  _atom_site_type_symbol
  _atom_site_label
  _atom_site_symmetry_multiplicity
  _atom_site_fract_x
  _atom_site_fract_y
  _atom_site_fract_z
  _atom_site_occupancy
  C   C1        1.0  0.55855423  0.757696405  0.5282588424180398  1.0000
  O   O1        1.0  0.53154478  0.740734315  0.540207502582958  1.0000
  Si  Si1       1.0  0.67848109  0.08347848499999996  0.4597924974170419  1.0000
  Si  Si2       1.0  0.32151890999999994  0.916849725  0.47818904874526214  1.0000
  Si  Si3       1.0  0.17848108999999998  0.4168497249999999  0.4597924974170419  1.0000
  Si  Si4       1.0  0.82151891  0.583478485  0.47818904874526214  1.0000
  Pt  Pt1       1.0  0.49474857  0.6937565649999999  0.4597924974170419  1.0000
  Pt  Pt2       1.0  0.50525143  0.30657164499999995  0.47818904874526214  1.0000
  Pt  Pt3       1.0  0.99474857  0.806571645  0.4597924974170419  1.0000
  Pt  Pt4       1.0  0.0052514299999999675  0.19375656499999994  0.47818904874526214  1.0000
  Si  Si5       1.0  0.69476642  0.07371365499999999  0.4961512471945543  1.0000
  Si  Si6       1.0  0.34003885  0.926286345  0.5144074166471749  1.0000
  Si  Si7       1.0  0.18083340999999997  0.421863935  0.496352352406778  1.0000
  Si  Si8       1.0  0.78571986  0.579199155  0.5154110559579891  1.0000
  Pt  Pt5       1.0  0.50779099  0.6970557949999999  0.49552491967975776  1.0000
  Pt  Pt6       1.0  0.48483827999999995  0.294855365  0.511469207772478  1.0000
  Pt  Pt7       1.0  0.0069359799999999675  0.797487355  0.4981715388007301  1.0000
  Pt  Pt8       1.0  0.98363635  0.21336921499999997  0.5131207647907275  1.0000
