data_image0
_chemical_formula_structural       COAl6Cu18Al6Cu18
_chemical_formula_sum              "C1 O1 Al12 Cu36"
_cell_length_a       5.25228419
_cell_length_b       10.110882312703854
_cell_length_c       107.66686619000001
_cell_angle_alpha    68.35950667560083
_cell_angle_beta     90.0
_cell_angle_gamma    90.0

_space_group_name_H-M_alt    "P 1"
_space_group_IT_number       1

loop_
  _space_group_symop_operation_xyz
  'x, y, z'

loop_
  _atom_site_type_symbol
  _atom_site_label
  _atom_site_symmetry_multiplicity
  _atom_site_fract_x
  _atom_site_fract_y
  _atom_site_fract_z
  _atom_site_occupancy
  C   C1        1.0  0.500004775  0.900848575  0.5566887233109884  1.0000
  O   O1        1.0  0.49999930499999995  0.8636984650000001  0.5683944161320049  1.0000
  Al  Al1       1.0  1.0749999999607287e-06  0.444669545  0.4543013132063674  1.0000
  Al  Al2       1.0  1.0749999999607287e-06  0.11133621500000002  0.434865403701311  1.0000
  Al  Al3       1.0  1.0749999999607287e-06  0.7780028750000001  0.47373722620988795  1.0000
  Al  Al4       1.0  0.5000010749999999  0.7223805149999999  0.44134014408018757  1.0000
  Al  Al5       1.0  0.5000010749999999  0.389047175  0.48021196658876436  1.0000
  Al  Al6       1.0  0.5000010749999999  0.05571384500000003  0.460776057083708  1.0000
  Cu  Cu1       1.0  0.5000010749999999  0.444339075  0.4542820471647849  1.0000
  Cu  Cu2       1.0  0.5000010749999999  0.11100574500000002  0.43484613416126444  1.0000
  Cu  Cu3       1.0  0.5000010749999999  0.7776724049999999  0.4737179566698413  1.0000
  Cu  Cu4       1.0  1.0749999999607287e-06  0.7227109850000001  0.4413594136202341  1.0000
  Cu  Cu5       1.0  1.0749999999607287e-06  0.38937764500000005  0.48023123612881097  1.0000
  Cu  Cu6       1.0  1.0749999999607287e-06  0.05604431500000004  0.46079532662375466  1.0000
  Cu  Cu7       1.0  0.7490114149999999  0.6116210150000001  0.46403587691702414  1.0000
  Cu  Cu8       1.0  0.7490114149999999  0.27828768500000006  0.44459996391350365  1.0000
  Cu  Cu9       1.0  0.7490114149999999  0.944954355  0.48347178992054457  1.0000
  Cu  Cu10      1.0  0.25099073499999996  0.6116210150000001  0.46403587691702414  1.0000
  Cu  Cu11      1.0  0.25099073499999996  0.27828768500000006  0.44459996391350365  1.0000
  Cu  Cu12      1.0  0.25099073499999996  0.944954355  0.48347178992054457  1.0000
  Cu  Cu13      1.0  0.7509907349999999  0.555429035  0.43160558386799497  1.0000
  Cu  Cu14      1.0  0.7509907349999999  0.22209570500000003  0.47047740637657176  1.0000
  Cu  Cu15      1.0  0.7509907349999999  0.8887623750000001  0.4510414933730514  1.0000
  Cu  Cu16      1.0  0.24901141499999993  0.555429035  0.43160558386799497  1.0000
  Cu  Cu17      1.0  0.24901141499999993  0.22209570500000003  0.47047740637657176  1.0000
  Cu  Cu18      1.0  0.24901141499999993  0.8887623750000001  0.4510414933730514  1.0000
  Al  Al7       1.0  6.499999996072865e-08  0.44460764499999994  0.5124192045662078  1.0000
  Al  Al8       1.0  1.0749999999607287e-06  0.11133621500000002  0.49317313921340833  1.0000
  Al  Al9       1.0  2.0649999999607287e-06  0.7725935949999999  0.5323667049662607  1.0000
  Al  Al10      1.0  0.5000010749999999  0.7223805149999999  0.4996478795922848  1.0000
  Al  Al11      1.0  0.5000007049999999  0.38917434500000003  0.5371027331961896  1.0000
  Al  Al12      1.0  0.500000475  0.05776433500000004  0.5187096353629713  1.0000
  Cu  Cu19      1.0  0.5000016449999999  0.44635884499999995  0.5118299057874937  1.0000
  Cu  Cu20      1.0  0.5000010749999999  0.11100574500000002  0.49315386967336167  1.0000
  Cu  Cu21      1.0  0.500000145  0.7742716850000001  0.5312991766458334  1.0000
  Cu  Cu22      1.0  1.0749999999607287e-06  0.7227109850000001  0.4996671491323315  1.0000
  Cu  Cu23      1.0  1.6049999999607289e-06  0.39005628500000006  0.5375899817782515  1.0000
  Cu  Cu24      1.0  0.999999935  0.05504564500000004  0.5195502812921307  1.0000
  Cu  Cu25      1.0  0.7509188849999999  0.6097927849999999  0.5228000535366643  1.0000
  Cu  Cu26      1.0  0.7490114149999999  0.27828768500000006  0.5029076994256009  1.0000
  Cu  Cu27      1.0  0.7473268849999999  0.937368265  0.5414627080257637  1.0000
  Cu  Cu28      1.0  0.24908314499999992  0.609792985  0.5227998051457159  1.0000
  Cu  Cu29      1.0  0.25099073499999996  0.27828768500000006  0.5029076994256009  1.0000
  Cu  Cu30      1.0  0.25267121499999995  0.9373715250000002  0.5414631138475948  1.0000
  Cu  Cu31      1.0  0.7509907349999999  0.555429035  0.48991331588162823  1.0000
  Cu  Cu32      1.0  0.7514099149999999  0.21775310500000006  0.5292038415659244  1.0000
  Cu  Cu33      1.0  0.7509907349999999  0.8887623750000001  0.5093492288851487  1.0000
  Cu  Cu34      1.0  0.24901141499999993  0.555429035  0.48991331588162823  1.0000
  Cu  Cu35      1.0  0.24859389499999993  0.21775690500000006  0.529203012429942  1.0000
  Cu  Cu36      1.0  0.24901141499999993  0.8887623750000001  0.5093492288851487  1.0000
