data_image0
_chemical_formula_structural       COSi12W6
_chemical_formula_sum              "C1 O1 Si12 W6"
_cell_length_a       4.55730615127027
_cell_length_b       6.46129050838168
_cell_length_c       100.02109838999999
_cell_angle_alpha    87.02444431202406
_cell_angle_beta     85.77937514408302
_cell_angle_gamma    80.15535071855798

_space_group_name_H-M_alt    "P 1"
_space_group_IT_number       1

loop_
  _space_group_symop_operation_xyz
  'x, y, z'

loop_
  _atom_site_type_symbol
  _atom_site_label
  _atom_site_symmetry_multiplicity
  _atom_site_fract_x
  _atom_site_fract_y
  _atom_site_fract_z
  _atom_site_occupancy
  C   C1        1.0  0.6611765749999999  0.8320685500000001  0.542481944983845  1.0000
  O   O1        1.0  0.39881750499999985  0.8620691500000002  0.5469473857564882  1.0000
  Si  Si1       1.0  0.5031917249999999  0.4981441600000001  0.453052614243512  1.0000
  Si  Si2       1.0  0.836525055  0.06957273000000004  0.46734536055703635  1.0000
  Si  Si3       1.0  0.16985839499999997  0.64100131  0.48163810386908423  1.0000
  Si  Si4       1.0  0.27671387499999994  0.25822508000000005  0.4720639908862283  1.0000
  Si  Si5       1.0  0.610047205  0.82965365  0.4863567341982761  1.0000
  Si  Si6       1.0  0.943380535  0.6867965100000002  0.45777124457270396  1.0000
  Si  Si7       1.0  0.5031917249999999  0.21242988000000002  0.4959308501826086  1.0000
  Si  Si8       1.0  0.8361531649999999  0.7828547500000002  0.5102701914184951  1.0000
  Si  Si9       1.0  0.17733318499999995  0.3569396000000001  0.5246773029939859  1.0000
  Si  Si10      1.0  0.27913063499999996  0.97895823  0.5152982379649295  1.0000
  Si  Si11      1.0  0.629587555  0.5326025100000001  0.5281941961288193  1.0000
  Si  Si12      1.0  0.9433805349999999  0.4010822300000001  0.5006494805118004  1.0000
  W   W1        1.0  0.056619464999999966  0.021041770000000033  0.4911437921904423  1.0000
  W   W2        1.0  0.3899527949999999  0.8781846200000001  0.46255830256487024  1.0000
  W   W3        1.0  0.7232861349999999  0.44961319000000005  0.47685104587691796  1.0000
  W   W4        1.0  0.05913591499999991  0.7404972100000001  0.5330427063523977  1.0000
  W   W5        1.0  0.393392775  0.5940633100000001  0.5047862686038269  1.0000
  W   W6        1.0  0.7258869349999999  0.16680457000000004  0.5187628603851961  1.0000
