data_image0
_chemical_formula_structural       COV12Rh4V12Rh4
_chemical_formula_sum              "C1 O1 V24 Rh8"
_cell_length_a       4.78173912
_cell_length_b       6.76240032
_cell_length_c       103.81200158
_cell_angle_alpha    90.0
_cell_angle_beta     90.0
_cell_angle_gamma    90.0

_space_group_name_H-M_alt    "P 1"
_space_group_IT_number       1

loop_
  _space_group_symop_operation_xyz
  'x, y, z'

loop_
  _atom_site_type_symbol
  _atom_site_label
  _atom_site_symmetry_multiplicity
  _atom_site_fract_x
  _atom_site_fract_y
  _atom_site_fract_z
  _atom_site_occupancy
  C   C1        1.0  0.50019161  0.22225330999999995  0.5607817522839248  1.0000
  O   O1        1.0  0.45569865  0.23927267  0.5720264606835487  1.0000
  V   V1        1.0  0.12500000000000003  0.6907890999999999  0.42797353931645127  1.0000
  V   V2        1.0  0.12500000000000003  0.19078909999999996  0.4605439560942683  1.0000
  V   V3        1.0  0.12500000000000003  0.44078909999999993  0.4768291644831768  1.0000
  V   V4        1.0  0.12500000000000003  0.9407890999999999  0.4442587477053597  1.0000
  V   V5        1.0  0.625  0.6907890999999999  0.4442587477053597  1.0000
  V   V6        1.0  0.625  0.19078909999999996  0.4768291644831768  1.0000
  V   V7        1.0  0.625  0.9407890999999999  0.42797353931645127  1.0000
  V   V8        1.0  0.625  0.44078909999999993  0.4605439560942683  1.0000
  V   V9        1.0  0.8749999999999999  0.3157891  0.4361161435109055  1.0000
  V   V10       1.0  0.8749999999999999  0.8157890999999999  0.4686865602887225  1.0000
  V   V11       1.0  0.375  0.3157891  0.4361161435109055  1.0000
  V   V12       1.0  0.375  0.8157890999999999  0.4686865602887225  1.0000
  Rh  Rh1       1.0  0.625  0.5657891  0.484971768677631  1.0000
  Rh  Rh2       1.0  0.625  0.06578909999999998  0.452401351899814  1.0000
  Rh  Rh3       1.0  0.12500000000000003  0.5657891  0.452401351899814  1.0000
  Rh  Rh4       1.0  0.12500000000000003  0.06578909999999998  0.484971768677631  1.0000
  V   V13       1.0  0.12500000000000003  0.6907890999999999  0.4931143728720853  1.0000
  V   V14       1.0  0.12597003  0.19610663999999997  0.5260614665199378  1.0000
  V   V15       1.0  0.12843226000000002  0.45242199999999994  0.5415730623695396  1.0000
  V   V16       1.0  0.12500000000000003  0.9407890999999999  0.5093995812609938  1.0000
  V   V17       1.0  0.625  0.6907890999999999  0.5093995812609938  1.0000
  V   V18       1.0  0.62860984  0.17746377999999996  0.5426974876109185  1.0000
  V   V19       1.0  0.625  0.9407890999999999  0.4931143728720853  1.0000
  V   V20       1.0  0.62598749  0.43618918999999995  0.5258974060735863  1.0000
  V   V21       1.0  0.8749999999999999  0.3157891  0.5012569770665395  1.0000
  V   V22       1.0  0.8653287199999999  0.8156479099999999  0.5333262979822299  1.0000
  V   V23       1.0  0.375  0.3157891  0.5012569770665395  1.0000
  V   V24       1.0  0.36772568  0.8191015199999999  0.5332784324977331  1.0000
  Rh  Rh5       1.0  0.62761983  0.56184528  0.5485416626341958  1.0000
  Rh  Rh6       1.0  0.625  0.06578909999999998  0.5175421854554481  1.0000
  Rh  Rh7       1.0  0.12500000000000003  0.5657891  0.5175421854554481  1.0000
  Rh  Rh8       1.0  0.12685755  0.059210899999999976  0.5489244594855437  1.0000
