data_image0
_chemical_formula_structural       COAl12W6
_chemical_formula_sum              "C1 O1 Al12 W6"
_cell_length_a       4.887740371353857
_cell_length_b       8.380460691647556
_cell_length_c       103.52184278
_cell_angle_alpha    60.67497769376548
_cell_angle_beta     73.04531618182178
_cell_angle_gamma    73.04531622092259

_space_group_name_H-M_alt    "P 1"
_space_group_IT_number       1

loop_
  _space_group_symop_operation_xyz
  'x, y, z'

loop_
  _atom_site_type_symbol
  _atom_site_label
  _atom_site_symmetry_multiplicity
  _atom_site_fract_x
  _atom_site_fract_y
  _atom_site_fract_z
  _atom_site_occupancy
  C   C1        1.0  0.9682259499999999  0.846881045  0.5391117606165851  1.0000
  O   O1        1.0  0.9090819499999998  0.8221126150000001  0.5516492830329259  1.0000
  Al  Al1       1.0  0.7575847200000001  0.999530485  0.44850275421061037  1.0000
  Al  Al2       1.0  0.2575847199999999  0.499530485  0.4889795293043932  1.0000
  Al  Al3       1.0  0.6770684599999998  0.248591465  0.4823094165851028  1.0000
  Al  Al4       1.0  0.06793563999999992  0.814413575  0.5197676151283437  1.0000
  Al  Al5       1.0  0.09091804999999997  0.8347418750000001  0.4888274920608568  1.0000
  Al  Al6       1.0  0.5909180499999999  0.334741875  0.448350716967074  1.0000
  Al  Al7       1.0  0.76321888  0.668075205  0.47533523585502396  1.0000
  Al  Al8       1.0  0.2866310399999999  0.15058907500000002  0.5159735165195729  1.0000
  Al  Al9       1.0  0.1461772999999999  0.106970725  0.4941199372630552  1.0000
  Al  Al10      1.0  0.6770684599999999  0.5856809049999999  0.4550208296863644  1.0000
  Al  Al11      1.0  0.09655220999999989  0.166197155  0.4619950104164432  1.0000
  Al  Al12      1.0  0.4958784899999999  0.6357092049999999  0.5056617180595209  1.0000
  W   W1        1.0  0.5937351299999999  0.00046951500000000666  0.47541125123865  1.0000
  W   W2        1.0  0.007891839999999872  0.487023285  0.5140782060974456  1.0000
  W   W3        1.0  0.1770684599999999  0.41713618500000005  0.4686651231357336  1.0000
  W   W4        1.0  0.6316199399999999  0.913455825  0.5050014285227712  1.0000
  W   W5        1.0  0.26040179999999985  0.8338028449999999  0.46191899503281714  1.0000
  W   W6        1.0  0.7591152699999999  0.33294758500000005  0.5045731356701488  1.0000
