data_image0
_chemical_formula_structural       COAl4Pd8Al4Pd8
_chemical_formula_sum              "C1 O1 Al8 Pd16"
_cell_length_a       8.29513032
_cell_length_b       5.514909
_cell_length_c       101.60250112
_cell_angle_alpha    90.0
_cell_angle_beta     90.0
_cell_angle_gamma    90.0

_space_group_name_H-M_alt    "P 1"
_space_group_IT_number       1

loop_
  _space_group_symop_operation_xyz
  'x, y, z'

loop_
  _atom_site_type_symbol
  _atom_site_label
  _atom_site_symmetry_multiplicity
  _atom_site_fract_x
  _atom_site_fract_y
  _atom_site_fract_z
  _atom_site_occupancy
  C   C1        1.0  0.12463057999999998  0.717007055  0.535840567119671  1.0000
  O   O1        1.0  0.12463049  0.725868725  0.5472630908300834  1.0000
  Al  Al1       1.0  0.37463051  0.30870396499999997  0.4556723764390031  1.0000
  Al  Al2       1.0  0.12463054  0.7108584249999998  0.5155916416925519  1.0000
  Al  Al3       1.0  0.37463051  0.808703965  0.478267975533568  1.0000
  Al  Al4       1.0  0.12463049  0.19326173499999996  0.49450318351911526  1.0000
  Pd  Pd1       1.0  0.37389149  0.9537745849999999  0.503806217603455  1.0000
  Pd  Pd2       1.0  0.12463050999999999  0.04622538499999995  0.46997589177090326  1.0000
  Pd  Pd3       1.0  0.37672507  0.46257325499999996  0.5089006020028372  1.0000
  Pd  Pd4       1.0  0.12463050999999999  0.5462253850000001  0.46396446020166776  1.0000
  Pd  Pd5       1.0  0.37463051  0.8397172250000001  0.4527369091699166  1.0000
  Pd  Pd6       1.0  0.12463068999999997  0.17842116499999996  0.5188227219311357  1.0000
  Pd  Pd7       1.0  0.37463051  0.3397172249999999  0.4812034428026544  1.0000
  Pd  Pd8       1.0  0.12463046999999998  0.6677449349999999  0.49095396475205777  1.0000
  Al  Al5       1.0  0.8746305100000001  0.30870396499999997  0.4556723764390031  1.0000
  Al  Al6       1.0  0.6246304699999999  0.712915625  0.5155513774891624  1.0000
  Al  Al7       1.0  0.8746305100000001  0.808703965  0.478267975533568  1.0000
  Al  Al8       1.0  0.62463053  0.19032079499999993  0.4944646860262337  1.0000
  Pd  Pd9       1.0  0.8753695300000001  0.9537746150000002  0.5038062207138608  1.0000
  Pd  Pd10      1.0  0.6246305099999999  0.04622538499999995  0.46997589177090326  1.0000
  Pd  Pd11      1.0  0.87253592  0.462573225  0.5089006611005478  1.0000
  Pd  Pd12      1.0  0.6246305099999999  0.5462253850000001  0.46396446020166776  1.0000
  Pd  Pd13      1.0  0.8746305100000001  0.8397172250000001  0.4527369091699166  1.0000
  Pd  Pd14      1.0  0.62463031  0.17151831499999995  0.5188188028197978  1.0000
  Pd  Pd15      1.0  0.8746305100000001  0.3397172249999999  0.4812034428026544  1.0000
  Pd  Pd16      1.0  0.62463054  0.6678185449999999  0.490819931144297  1.0000
