data_image0
_chemical_formula_structural       COFe8W4
_chemical_formula_sum              "C1 O1 Fe8 W4"
_cell_length_a       4.66309452
_cell_length_b       4.6630945160439925
_cell_length_c       38.930587880000004
_cell_angle_alpha    90.0
_cell_angle_beta     90.0
_cell_angle_gamma    120.00000002806371

_space_group_name_H-M_alt    "P 1"
_space_group_IT_number       1

loop_
  _space_group_symop_operation_xyz
  'x, y, z'

loop_
  _atom_site_type_symbol
  _atom_site_label
  _atom_site_symmetry_multiplicity
  _atom_site_fract_x
  _atom_site_fract_y
  _atom_site_fract_z
  _atom_site_occupancy
  C   C1        1.0  0.7410710500000001  0.8046483999999999  0.5901391957053818  1.0000
  O   O1        1.0  0.7329243599999999  0.73095259  0.6191337500095202  1.0000
  Fe  Fe1       1.0  0.08523280999999998  0.08489094000000004  0.39458244210533483  1.0000
  Fe  Fe2       1.0  0.08838704999999998  0.08891070000000004  0.4927401664689892  1.0000
  Fe  Fe3       1.0  0.2799939199999999  0.9151090599999998  0.5392221302962198  1.0000
  Fe  Fe4       1.0  0.42616404999999996  0.25535656000000007  0.44446194208836975  1.0000
  Fe  Fe5       1.0  0.91476719  0.7439597  0.44446194208836975  1.0000
  Fe  Fe6       1.0  0.27298396  0.4254268200000001  0.5400516144098577  1.0000
  Fe  Fe7       1.0  0.7691464800000001  0.9122693199999999  0.5459688873289651  1.0000
  Fe  Fe8       1.0  0.91476719  0.25535656000000007  0.44446194208836975  1.0000
  W   W1        1.0  0.4185661399999999  0.75155761  0.4082986342201896  1.0000
  W   W2        1.0  0.7609909099999999  0.41739645000000003  0.5087179988624349  1.0000
  W   W3        1.0  0.75189948  0.41822427  0.38086624999047997  1.0000
  W   W4        1.0  0.42506277  0.7553701899999999  0.4808971211639773  1.0000
