data_image0
_chemical_formula_structural       CORe4Os12Re4Os12
_chemical_formula_sum              "C1 O1 Re8 Os24"
_cell_length_a       5.54182099
_cell_length_b       11.915173144893608
_cell_length_c       104.98500831999999
_cell_angle_alpha    68.46795084689278
_cell_angle_beta     90.0
_cell_angle_gamma    62.28290418502199

_space_group_name_H-M_alt    "P 1"
_space_group_IT_number       1

loop_
  _space_group_symop_operation_xyz
  'x, y, z'

loop_
  _atom_site_type_symbol
  _atom_site_label
  _atom_site_symmetry_multiplicity
  _atom_site_fract_x
  _atom_site_fract_y
  _atom_site_fract_z
  _atom_site_occupancy
  C   C1        1.0  0.16092061  0.7218990900000001  0.5396113072473648  1.0000
  O   O1        1.0  0.14699697  0.648456  0.5504755635664456  1.0000
  Re  Re1       1.0  0.6869704899999999  0.33605023  0.45995133436304836  1.0000
  Re  Re2       1.0  0.68697049  0.83605023  0.4807787177674982  1.0000
  Re  Re3       1.0  0.35363715  0.16938356999999998  0.4877211811239024  1.0000
  Re  Re4       1.0  0.3536371499999999  0.66938357  0.4668937977194525  1.0000
  Os  Os1       1.0  0.3549053999999999  0.41906650999999995  0.47732069564894664  1.0000
  Os  Os2       1.0  0.3549054000000001  0.91906651  0.45649331224449674  1.0000
  Os  Os3       1.0  0.85300303  0.17001769  0.48769476533698286  1.0000
  Os  Os4       1.0  0.8530030299999998  0.67001769  0.46686738193253297  1.0000
  Os  Os5       1.0  0.8530030299999998  0.41906650999999995  0.47732069564894664  1.0000
  Os  Os6       1.0  0.85300303  0.91906651  0.45649331224449674  1.0000
  Os  Os7       1.0  0.6857022399999999  0.08636729000000001  0.47035181983800417  1.0000
  Os  Os8       1.0  0.6857022400000001  0.5863672899999999  0.44952443643355433  1.0000
  Os  Os9       1.0  0.18760460999999987  0.3354161100000001  0.4599777501499679  1.0000
  Os  Os10      1.0  0.1876046099999999  0.83541611  0.48080513355441773  1.0000
  Os  Os11      1.0  0.1876046099999999  0.08636729000000001  0.47035181983800417  1.0000
  Os  Os12      1.0  0.18760461000000006  0.5863672899999999  0.44952443643355433  1.0000
  Re  Re5       1.0  0.6828463499999999  0.33927409000000003  0.5014475164761345  1.0000
  Re  Re6       1.0  0.6718159000000001  0.8451912300000001  0.5206889362891024  1.0000
  Re  Re7       1.0  0.3377796099999999  0.18519075999999998  0.527623408595042  1.0000
  Re  Re8       1.0  0.35602297  0.66681153  0.5084925372008037  1.0000
  Os  Os13      1.0  0.35434097999999997  0.41892213999999994  0.5181451230010403  1.0000
  Os  Os14      1.0  0.3549054000000001  0.91906651  0.4981480790533964  1.0000
  Os  Os15      1.0  0.8387546100000001  0.1836604  0.5278680687009893  1.0000
  Os  Os16      1.0  0.8525757399999997  0.66908382  0.5085429394686425  1.0000
  Os  Os17      1.0  0.8509749799999998  0.41930851  0.5180844336719905  1.0000
  Os  Os18      1.0  0.85300303  0.91906651  0.4981480790533964  1.0000
  Os  Os19      1.0  0.6897891899999999  0.08093349000000001  0.5129156636101228  1.0000
  Os  Os20      1.0  0.6857022400000001  0.5863672899999999  0.4911792032424541  1.0000
  Os  Os21      1.0  0.18681195999999994  0.33536309000000003  0.5016669571200651  1.0000
  Os  Os22      1.0  0.18144384000000002  0.8388495199999999  0.5217749660341068  1.0000
  Os  Os23      1.0  0.19109876999999995  0.08142703999999999  0.5128118299398028  1.0000
  Os  Os24      1.0  0.18760461000000006  0.5863672899999999  0.4911792032424541  1.0000
