data_image0
_chemical_formula_structural       COAl2Co4Si4Al2Co4Si4
_chemical_formula_sum              "C1 O1 Al4 Co8 Si8"
_cell_length_a       6.84386834
_cell_length_b       6.106610260808351
_cell_length_c       38.389526149999995
_cell_angle_alpha    71.12362929724131
_cell_angle_beta     90.0
_cell_angle_gamma    55.91891654129143

_space_group_name_H-M_alt    "P 1"
_space_group_IT_number       1

loop_
  _space_group_symop_operation_xyz
  'x, y, z'

loop_
  _atom_site_type_symbol
  _atom_site_label
  _atom_site_symmetry_multiplicity
  _atom_site_fract_x
  _atom_site_fract_y
  _atom_site_fract_z
  _atom_site_occupancy
  C   C1        1.0  0.7924156349999999  0.6179134150000001  0.5916178520145213  1.0000
  O   O1        1.0  0.8560296849999998  0.487973635  0.6244675341902438  1.0000
  Al  Al1       1.0  0.003631294999999926  0.03690361499999999  0.4784592176485523  1.0000
  Al  Al2       1.0  0.5508273149999999  0.9630963850000002  0.5389339212669784  1.0000
  Co  Co1       1.0  0.759720275  0.193872305  0.5221057431752213  1.0000
  Co  Co2       1.0  0.2321674749999999  0.22416755499999994  0.5666918911364969  1.0000
  Co  Co3       1.0  0.7516478449999998  0.874203845  0.48683230067649824  1.0000
  Co  Co4       1.0  0.2525349249999999  0.870108725  0.5370311926300658  1.0000
  Si  Si1       1.0  0.991241095  0.382357165  0.5106291056820103  1.0000
  Si  Si2       1.0  0.470598285  0.384533535  0.5545233964857056  1.0000
  Si  Si3       1.0  0.5140533049999999  0.6893394049999999  0.49621931101973793  1.0000
  Si  Si4       1.0  0.024309194999999888  0.696652735  0.5433899908903864  1.0000
  Al  Al3       1.0  0.003631294999999926  0.03690361499999999  0.37553246580975685  1.0000
  Al  Al4       1.0  0.5036312949999999  0.03690361499999999  0.42699584172915456  1.0000
  Co  Co5       1.0  0.755614745  0.19960338499999997  0.4186227587012088  1.0000
  Co  Co6       1.0  0.2556147449999999  0.19960338499999997  0.47008613462060644  1.0000
  Co  Co7       1.0  0.7516478449999998  0.874203845  0.3839055488377027  1.0000
  Co  Co8       1.0  0.2516478449999999  0.874203845  0.4353689247571004  1.0000
  Si  Si5       1.0  0.9963687050000001  0.384762125  0.40909386588909424  1.0000
  Si  Si6       1.0  0.4963687049999999  0.384762125  0.460557241808492  1.0000
  Si  Si7       1.0  0.5108938849999999  0.689045105  0.3934344416498172  1.0000
  Si  Si8       1.0  0.010893884999999824  0.689045105  0.444897817569215  1.0000
