data_image0
_chemical_formula_structural       COV12Ni4V12Ni4
_chemical_formula_sum              "C1 O1 V24 Ni8"
_cell_length_a       4.67992473
_cell_length_b       6.61841302
_cell_length_c       109.71047813999999
_cell_angle_alpha    90.0
_cell_angle_beta     90.0
_cell_angle_gamma    90.0

_space_group_name_H-M_alt    "P 1"
_space_group_IT_number       1

loop_
  _space_group_symop_operation_xyz
  'x, y, z'

loop_
  _atom_site_type_symbol
  _atom_site_label
  _atom_site_symmetry_multiplicity
  _atom_site_fract_x
  _atom_site_fract_y
  _atom_site_fract_z
  _atom_site_occupancy
  C   C1        1.0  0.45246944999999994  0.19745321999999998  0.5560391944648253  1.0000
  O   O1        1.0  0.39209054000000004  0.20828284  0.5666213555324346  1.0000
  V   V1        1.0  0.125  0.69130496  0.4333786444675654  1.0000
  V   V2        1.0  0.125  0.19130496  0.46354172857221737  1.0000
  V   V3        1.0  0.125  0.44130496  0.47862327243432856  1.0000
  V   V4        1.0  0.125  0.94130496  0.4484601883296765  1.0000
  V   V5        1.0  0.625  0.69130496  0.4484601883296765  1.0000
  V   V6        1.0  0.625  0.19130496  0.47862327243432856  1.0000
  V   V7        1.0  0.625  0.94130496  0.4333786444675654  1.0000
  V   V8        1.0  0.625  0.44130496  0.46354172857221737  1.0000
  V   V9        1.0  0.8750000000000001  0.31630495999999997  0.4409194145888359  1.0000
  V   V10       1.0  0.8750000000000001  0.8163049600000001  0.47108250231305815  1.0000
  V   V11       1.0  0.375  0.31630495999999997  0.4409194145888359  1.0000
  V   V12       1.0  0.375  0.8163049600000001  0.47108250231305815  1.0000
  Ni  Ni1       1.0  0.625  0.56630496  0.486164042555599  1.0000
  Ni  Ni2       1.0  0.625  0.06630495999999998  0.456000958450947  1.0000
  Ni  Ni3       1.0  0.125  0.56630496  0.456000958450947  1.0000
  Ni  Ni4       1.0  0.125  0.06630495999999998  0.486164042555599  1.0000
  V   V13       1.0  0.125  0.69130496  0.4937048162964397  1.0000
  V   V14       1.0  0.1273107  0.19806674999999996  0.5242454396746975  1.0000
  V   V15       1.0  0.13382413  0.45126549  0.5384859763921626  1.0000
  V   V16       1.0  0.125  0.94130496  0.5087863565389806  1.0000
  V   V17       1.0  0.625  0.69130496  0.5087863565389806  1.0000
  V   V18       1.0  0.62578959  0.17199319  0.5394174872710231  1.0000
  V   V19       1.0  0.625  0.94130496  0.4937048162964397  1.0000
  V   V20       1.0  0.62739923  0.43342808000000005  0.5237440749032722  1.0000
  V   V21       1.0  0.8750000000000001  0.31630495999999997  0.5012455864177101  1.0000
  V   V22       1.0  0.8691731800000001  0.81480557  0.5308718086256192  1.0000
  V   V23       1.0  0.375  0.31630495999999997  0.5012455864177101  1.0000
  V   V24       1.0  0.37440291000000003  0.81601574  0.5308751458693781  1.0000
  Ni  Ni5       1.0  0.63486548  0.54696576  0.5446772078482915  1.0000
  Ni  Ni6       1.0  0.625  0.06630495999999998  0.5163271302798212  1.0000
  Ni  Ni7       1.0  0.125  0.56630496  0.5163271302798212  1.0000
  Ni  Ni8       1.0  0.1337335  0.058695039999999976  0.5452386611052269  1.0000
