data_image0
_chemical_formula_structural       CORe2Ir6Re2Ir6
_chemical_formula_sum              "C1 O1 Re4 Ir12"
_cell_length_a       5.55082671
_cell_length_b       5.550826705018666
_cell_length_c       100.85203989
_cell_angle_alpha    90.0
_cell_angle_beta     90.0
_cell_angle_gamma    119.99999997009164

_space_group_name_H-M_alt    "P 1"
_space_group_IT_number       1

loop_
  _space_group_symop_operation_xyz
  'x, y, z'

loop_
  _atom_site_type_symbol
  _atom_site_label
  _atom_site_symmetry_multiplicity
  _atom_site_fract_x
  _atom_site_fract_y
  _atom_site_fract_z
  _atom_site_occupancy
  C   C1        1.0  0.37115883499999996  0.6636056049999999  0.5371075736489549  1.0000
  O   O1        1.0  0.394069795  0.662376665  0.5486343142105814  1.0000
  Re  Re1       1.0  0.333272215  0.664479755  0.473216677532662  1.0000
  Re  Re2       1.0  0.6666055550000001  0.3311464149999999  0.45136568578941855  1.0000
  Ir  Ir1       1.0  0.16736497500000003  0.332665255  0.45136568578941855  1.0000
  Ir  Ir2       1.0  0.6650867149999999  0.8303869949999999  0.45136568578941855  1.0000
  Ir  Ir3       1.0  0.16736497499999994  0.8303869949999999  0.45136568578941855  1.0000
  Ir  Ir4       1.0  0.832512795  0.662960915  0.473216677532662  1.0000
  Ir  Ir5       1.0  0.334791055  0.16523917499999996  0.473216677532662  1.0000
  Ir  Ir6       1.0  0.832512795  0.16523917499999996  0.473216677532662  1.0000
  Re  Re3       1.0  0.339113075  0.665053325  0.5178210213403046  1.0000
  Re  Re4       1.0  0.669641035  0.33116419499999994  0.49520097737197905  1.0000
  Ir  Ir7       1.0  0.16609996500000002  0.32572994499999997  0.49482087324472557  1.0000
  Ir  Ir8       1.0  0.6737856249999999  0.833844425  0.49482760335031706  1.0000
  Ir  Ir9       1.0  0.16589480500000003  0.834760825  0.4948134273006302  1.0000
  Ir  Ir10      1.0  0.8341051949999999  0.654893715  0.5162052759447257  1.0000
  Ir  Ir11      1.0  0.34766122499999996  0.16935084499999994  0.5162021770370147  1.0000
  Ir  Ir12      1.0  0.833260205  0.16994904499999994  0.5162325971142883  1.0000
