data_image0
_chemical_formula_structural       COIn4Pd8In4Pd8
_chemical_formula_sum              "C1 O1 In8 Pd16"
_cell_length_a       5.76064513
_cell_length_b       9.479441132813038
_cell_length_c       104.4416284
_cell_angle_alpha    117.01103968624692
_cell_angle_beta     90.0
_cell_angle_gamma    90.0

_space_group_name_H-M_alt    "P 1"
_space_group_IT_number       1

loop_
  _space_group_symop_operation_xyz
  'x, y, z'

loop_
  _atom_site_type_symbol
  _atom_site_label
  _atom_site_symmetry_multiplicity
  _atom_site_fract_x
  _atom_site_fract_y
  _atom_site_fract_z
  _atom_site_occupancy
  C   C1        1.0  0.16606058000000004  0.24347189500000005  0.5387656446377103  1.0000
  O   O1        1.0  0.18363766000000004  0.345182545  0.5504417517196661  1.0000
  In  In1       1.0  0.32203812  0.899433405  0.4495582482803338  1.0000
  In  In2       1.0  0.67796188  0.099845045  0.47843001998087414  1.0000
  In  In3       1.0  0.82203812  0.599845045  0.47843001998087403  1.0000
  In  In4       1.0  0.17796188  0.399433405  0.4495582482803338  1.0000
  Pd  Pd1       1.0  0.43280934  0.230641295  0.4632110181080025  1.0000
  Pd  Pd2       1.0  0.56719066  0.7686371550000002  0.4647772501532052  1.0000
  Pd  Pd3       1.0  0.9328093399999999  0.268637155  0.4647772501532052  1.0000
  Pd  Pd4       1.0  0.06719066000000001  0.730641295  0.4632110181080025  1.0000
  Pd  Pd5       1.0  0.1593632  0.071852875  0.4772761510834779  1.0000
  Pd  Pd6       1.0  0.8406368  0.9274255750000001  0.45071211717772997  1.0000
  Pd  Pd7       1.0  0.6593632  0.427425575  0.45071211717772997  1.0000
  Pd  Pd8       1.0  0.3406368  0.571852875  0.47727615108347793  1.0000
  In  In5       1.0  0.32709005  0.898790725  0.49070325987277363  1.0000
  In  In6       1.0  0.66556936  0.09363060499999998  0.5184331036173169  1.0000
  In  In7       1.0  0.83455436  0.603755875  0.5189532188391969  1.0000
  In  In8       1.0  0.17075236  0.39574522500000003  0.4901822575718447  1.0000
  Pd  Pd9       1.0  0.43078017999999996  0.233385245  0.5039432048758073  1.0000
  Pd  Pd10      1.0  0.57406675  0.770125355  0.5060318935039487  1.0000
  Pd  Pd11      1.0  0.92901357  0.273667645  0.5060671359344191  1.0000
  Pd  Pd12      1.0  0.07265478000000002  0.738684555  0.5041103055061807  1.0000
  Pd  Pd13      1.0  0.15118  0.091353095  0.5189257193886782  1.0000
  Pd  Pd14      1.0  0.8532506599999999  0.9281471250000001  0.49170639128567417  1.0000
  Pd  Pd15      1.0  0.65220054  0.426630055  0.49165457135936996  1.0000
  Pd  Pd16      1.0  0.33828375  0.5769479550000001  0.5163550038770058  1.0000
