data_image0
_chemical_formula_structural       COSi4Rh8Si4Rh8
_chemical_formula_sum              "C1 O1 Si8 Rh16"
_cell_length_a       7.95595982
_cell_length_b       5.51307039
_cell_length_c       99.8276248
_cell_angle_alpha    90.0
_cell_angle_beta     90.0
_cell_angle_gamma    90.0

_space_group_name_H-M_alt    "P 1"
_space_group_IT_number       1

loop_
  _space_group_symop_operation_xyz
  'x, y, z'

loop_
  _atom_site_type_symbol
  _atom_site_label
  _atom_site_symmetry_multiplicity
  _atom_site_fract_x
  _atom_site_fract_y
  _atom_site_fract_z
  _atom_site_occupancy
  C   C1        1.0  0.025105679999999995  0.753737515  0.536623537139503  1.0000
  O   O1        1.0  0.06652971  0.792698955  0.5476875903727956  1.0000
  Si  Si1       1.0  0.22388100000000002  0.7829100449999999  0.48290278441041923  1.0000
  Si  Si2       1.0  0.473881  0.227333005  0.4671078192855836  1.0000
  Si  Si3       1.0  0.22392494999999998  0.274514855  0.5044384086641588  1.0000
  Si  Si4       1.0  0.47429432000000005  0.750360095  0.5172855795946754  1.0000
  Rh  Rh1       1.0  0.47463718  0.020660165000000022  0.48997381474633445  1.0000
  Rh  Rh2       1.0  0.22388100000000002  0.9793398349999999  0.46034927982040263  1.0000
  Rh  Rh3       1.0  0.47401941  0.528786515  0.49710714306623216  1.0000
  Rh  Rh4       1.0  0.22388100000000002  0.47933983499999994  0.45231240962720426  1.0000
  Rh  Rh5       1.0  0.22388100000000002  0.346448285  0.48025820959310306  1.0000
  Rh  Rh6       1.0  0.473881  0.663794765  0.4697523941028998  1.0000
  Rh  Rh7       1.0  0.21418124000000002  0.8400618049999999  0.5077279424085984  1.0000
  Rh  Rh8       1.0  0.47475546  0.181046375  0.516949555921934  1.0000
  Si  Si5       1.0  0.7238810000000001  0.7829100449999999  0.48290278441041923  1.0000
  Si  Si6       1.0  0.973881  0.227333005  0.4671078192855836  1.0000
  Si  Si7       1.0  0.72490527  0.271511675  0.5043938887619362  1.0000
  Si  Si8       1.0  0.9735628500000001  0.6758398849999999  0.5189837778193443  1.0000
  Rh  Rh9       1.0  0.9735223900000001  0.02786917500000002  0.48962085259535837  1.0000
  Rh  Rh10      1.0  0.7238810000000001  0.9793398349999999  0.46034927982040263  1.0000
  Rh  Rh11      1.0  0.9748943200000001  0.5293118149999999  0.496460699146397  1.0000
  Rh  Rh12      1.0  0.7238810000000001  0.47933983499999994  0.45231240962720426  1.0000
  Rh  Rh13      1.0  0.7238810000000001  0.346448285  0.48025820959310306  1.0000
  Rh  Rh14      1.0  0.973881  0.663794765  0.4697523941028998  1.0000
  Rh  Rh15      1.0  0.7348334600000002  0.8375470549999999  0.5079288646116153  1.0000
  Rh  Rh16      1.0  0.9745780900000001  0.204786345  0.5172083749132305  1.0000
