data_image0
_chemical_formula_structural       COSb16Rh8
_chemical_formula_sum              "C1 O1 Sb16 Rh8"
_cell_length_a       6.74165634294401
_cell_length_b       9.551162790809569
_cell_length_c       31.79534882
_cell_angle_alpha    91.14856519656347
_cell_angle_beta     71.50771152520439
_cell_angle_gamma    108.49228844373658

_space_group_name_H-M_alt    "P 1"
_space_group_IT_number       1

loop_
  _space_group_symop_operation_xyz
  'x, y, z'

loop_
  _atom_site_type_symbol
  _atom_site_label
  _atom_site_symmetry_multiplicity
  _atom_site_fract_x
  _atom_site_fract_y
  _atom_site_fract_z
  _atom_site_occupancy
  C   C1        1.0  0.18530633999999999  0.16945931  0.654821722141542  1.0000
  O   O1        1.0  0.11776401999999998  0.18026955000000006  0.6930358311730025  1.0000
  Sb  Sb1       1.0  0.6882500700000002  0.73046781  0.30696416882699773  1.0000
  Sb  Sb2       1.0  0.6882500700000002  0.23046781000000005  0.45716165288466765  1.0000
  Sb  Sb3       1.0  0.35536075999999994  0.40069982000000004  0.5576676090639183  1.0000
  Sb  Sb4       1.0  0.37765443  0.90582108  0.40448642194594625  1.0000
  Sb  Sb5       1.0  0.37765443000000004  0.26727691000000003  0.36286844140438096  1.0000
  Sb  Sb6       1.0  0.37842663  0.76932165  0.5126000609296988  1.0000
  Sb  Sb7       1.0  0.68825007  0.59192364  0.4155436843589011  1.0000
  Sb  Sb8       1.0  0.6512174500000001  0.08118348000000004  0.5637096693419993  1.0000
  Sb  Sb9       1.0  0.8774752900000001  0.52789756  0.5884478438194286  1.0000
  Sb  Sb10      1.0  0.8822359799999999  0.9939282999999999  0.44551363372741715  1.0000
  Sb  Sb11      1.0  0.18366851999999997  0.86704537  0.33343114037752847  1.0000
  Sb  Sb12      1.0  0.18366852  0.3670453700000001  0.4836286244351982  1.0000
  Sb  Sb13      1.0  0.18366852000000006  0.5038164200000002  0.37451647257743026  1.0000
  Sb  Sb14      1.0  0.17439383000000003  0.006071700000000036  0.5281616858105497  1.0000
  Sb  Sb15      1.0  0.88223598  0.13069935000000005  0.3364014818696491  1.0000
  Sb  Sb16      1.0  0.88223598  0.6306993500000001  0.4865989659273189  1.0000
  Rh  Rh1       1.0  0.76350147  0.35797688000000005  0.5284844421800915  1.0000
  Rh  Rh2       1.0  0.76144924  0.85548782  0.3781463492457462  1.0000
  Rh  Rh3       1.0  0.26958878000000003  0.63120187  0.5880378647669448  1.0000
  Rh  Rh4       1.0  0.30445525999999995  0.14278305000000002  0.44204180085972583  1.0000
  Rh  Rh5       1.0  0.30445525999999995  0.6422569  0.44188374504330236  1.0000
  Rh  Rh6       1.0  0.29768835  0.14744720000000006  0.5929199558835477  1.0000
  Rh  Rh7       1.0  0.7614492400000001  0.35496167  0.37798830544512135  1.0000
  Rh  Rh8       1.0  0.76721912  0.8617994300000001  0.525022089777594  1.0000
