data_image0
_chemical_formula_structural       COAl6Pt4Al6Pt4
_chemical_formula_sum              "C1 O1 Al12 Pt8"
_cell_length_a       7.37830695
_cell_length_b       6.770963583879296
_cell_length_c       104.07894005
_cell_angle_alpha    108.33478337037924
_cell_angle_beta     90.0
_cell_angle_gamma    56.98564708431277

_space_group_name_H-M_alt    "P 1"
_space_group_IT_number       1

loop_
  _space_group_symop_operation_xyz
  'x, y, z'

loop_
  _atom_site_type_symbol
  _atom_site_label
  _atom_site_symmetry_multiplicity
  _atom_site_fract_x
  _atom_site_fract_y
  _atom_site_fract_z
  _atom_site_occupancy
  C   C1        1.0  0.39208839999999995  0.9475735900000001  0.5401692553929237  1.0000
  O   O1        1.0  0.3707750600000001  0.97819676  0.55191139033414  1.0000
  Al  Al1       1.0  0.047581370000000026  0.021803240000000033  0.4817901006389601  1.0000
  Al  Al2       1.0  0.5475813700000001  0.021803240000000033  0.4613255018248123  1.0000
  Al  Al3       1.0  0.89083853  0.66862225  0.47456239398376454  1.0000
  Al  Al4       1.0  0.3908385300000001  0.66862225  0.4540977951696166  1.0000
  Al  Al5       1.0  0.70432421  0.37498423000000003  0.46855320848000787  1.0000
  Al  Al6       1.0  0.20432420999999998  0.37498423000000003  0.44808860966585995  1.0000
  Pt  Pt1       1.0  0.13079639000000004  0.18870653000000004  0.46474111212794555  1.0000
  Pt  Pt2       1.0  0.63079639  0.18870653000000004  0.48520571094209347  1.0000
  Pt  Pt3       1.0  0.4643663500000001  0.85489995  0.4783744903358268  1.0000
  Pt  Pt4       1.0  0.9643663499999999  0.85489995  0.4579098915216789  1.0000
  Al  Al7       1.0  0.034316360000000025  0.04636915000000003  0.5222048248017399  1.0000
  Al  Al8       1.0  0.5251706300000001  0.03719973000000003  0.5030606608411254  1.0000
  Al  Al9       1.0  0.8639542800000002  0.6627853900000001  0.5130746144390277  1.0000
  Al  Al10      1.0  0.3908385300000001  0.66862225  0.49502699279791246  1.0000
  Al  Al11      1.0  0.68224237  0.3803985200000001  0.5107261429198174  1.0000
  Al  Al12      1.0  0.20432420999999998  0.37498423000000003  0.4890178072941558  1.0000
  Pt  Pt5       1.0  0.11644618000000001  0.19809851000000003  0.5051025301037342  1.0000
  Pt  Pt6       1.0  0.6659822200000001  0.13438405000000003  0.5249383713095803  1.0000
  Pt  Pt7       1.0  0.4410547300000001  0.86519415  0.5204399185079781  1.0000
  Pt  Pt8       1.0  0.9656836400000001  0.84627011  0.4976659502928661  1.0000
