data_image0
_chemical_formula_structural       COOs16
_chemical_formula_sum              "C1 O1 Os16"
_cell_length_a       5.53473856
_cell_length_b       5.534738563234343
_cell_length_c       100.41318651
_cell_angle_alpha    90.0
_cell_angle_beta     90.0
_cell_angle_gamma    119.99999998066916

_space_group_name_H-M_alt    "P 1"
_space_group_IT_number       1

loop_
  _space_group_symop_operation_xyz
  'x, y, z'

loop_
  _atom_site_type_symbol
  _atom_site_label
  _atom_site_symmetry_multiplicity
  _atom_site_fract_x
  _atom_site_fract_y
  _atom_site_fract_z
  _atom_site_occupancy
  C   C1        1.0  0.08332803499999997  0.5006016350000001  0.5337657980195896  1.0000
  O   O1        1.0  0.08334150499999993  0.500613025  0.5457573874901847  1.0000
  Os  Os1       1.0  0.25000530499999996  0.33394586500000006  0.45424261250981524  1.0000
  Os  Os2       1.0  0.416671965  0.16727920500000001  0.4758769266577509  1.0000
  Os  Os3       1.0  0.248523345  0.3354276650000001  0.4974558409509673  1.0000
  Os  Os4       1.0  0.4166708549999999  0.16727976500000002  0.5181857511833705  1.0000
  Os  Os5       1.0  0.25000530499999996  0.833945865  0.45424261250981524  1.0000
  Os  Os6       1.0  0.416671965  0.667279205  0.4758769266577509  1.0000
  Os  Os7       1.0  0.2485232449999999  0.830982375  0.49745582277814304  1.0000
  Os  Os8       1.0  0.41790262499999997  0.667893235  0.5189113314795013  1.0000
  Os  Os9       1.0  0.7500053050000001  0.33394586500000006  0.45424261250981524  1.0000
  Os  Os10      1.0  0.9166719649999999  0.16727920500000001  0.4758769266577509  1.0000
  Os  Os11      1.0  0.7529689150000001  0.33542787500000004  0.49745582580694714  1.0000
  Os  Os12      1.0  0.9160627049999999  0.16605413500000002  0.5189115132077436  1.0000
  Os  Os13      1.0  0.7500053049999998  0.833945865  0.45424261250981524  1.0000
  Os  Os14      1.0  0.9166719649999999  0.667279205  0.4758769266577509  1.0000
  Os  Os15      1.0  0.7500053449999998  0.833945865  0.496957333122616  1.0000
  Os  Os16      1.0  0.916059915  0.667895525  0.5189115616686084  1.0000
