data_image0
_chemical_formula_structural       COSb12Si6V24
_chemical_formula_sum              "C1 O1 Sb12 Si6 V24"
_cell_length_a       7.394186012794031
_cell_length_b       9.955298223328672
_cell_length_c       108.82137894
_cell_angle_alpha    91.95563263888661
_cell_angle_beta     92.39130306954124
_cell_angle_gamma    103.08292873735894

_space_group_name_H-M_alt    "P 1"
_space_group_IT_number       1

loop_
  _space_group_symop_operation_xyz
  'x, y, z'

loop_
  _atom_site_type_symbol
  _atom_site_label
  _atom_site_symmetry_multiplicity
  _atom_site_fract_x
  _atom_site_fract_y
  _atom_site_fract_z
  _atom_site_occupancy
  C   C1        1.0  0.7532645250000001  0.12413252499999997  0.5417533194964291  1.0000
  O   O1        1.0  0.7297784250000001  0.12168876499999998  0.5524130634541224  1.0000
  Sb  Sb1       1.0  0.13647837500000004  0.294785015  0.5193680730154208  1.0000
  Sb  Sb2       1.0  0.22978674500000013  0.965075965  0.4890662694806226  1.0000
  Sb  Sb3       1.0  0.3131200750000001  0.631742635  0.45933760022670894  1.0000
  Sb  Sb4       1.0  0.589754795  0.371088745  0.46123795435146836  1.0000
  Sb  Sb5       1.0  0.416494085  0.03538647499999997  0.5209660544548103  1.0000
  Sb  Sb6       1.0  0.506421455  0.7044220750000001  0.490966623605382  1.0000
  Sb  Sb7       1.0  0.493578535  0.319717075  0.49554825883986114  1.0000
  Sb  Sb8       1.0  0.576911875  0.986383735  0.46581958958594744  1.0000
  Sb  Sb9       1.0  0.41853135500000005  0.640811525  0.526335619559859  1.0000
  Sb  Sb10      1.0  0.8535465849999999  0.725729855  0.4677199437107069  1.0000
  Sb  Sb11      1.0  0.7272920850000001  0.385871715  0.5286136514705144  1.0000
  Sb  Sb12      1.0  0.770213255  0.05906318499999997  0.4974486129646207  1.0000
  Si  Si1       1.0  0.06249999500000006  0.262069575  0.4709609383903262  1.0000
  Si  Si2       1.0  0.904231465  0.927428485  0.5315138057543571  1.0000
  Si  Si3       1.0  0.9791666649999998  0.595402905  0.50068960764424  1.0000
  Si  Si4       1.0  0.020833335000000064  0.428736245  0.4858252748010033  1.0000
  Si  Si5       1.0  0.10416666500000006  0.09540290499999997  0.45609660197964913  1.0000
  Si  Si6       1.0  0.9328188749999999  0.773690855  0.5146283002805337  1.0000
  V   V1        1.0  0.962128025  0.4702500050000001  0.46366671418871047  1.0000
  V   V2        1.0  0.780575135  0.12273247499999997  0.5239093283914105  1.0000
  V   V3        1.0  0.8787946950000001  0.803583335  0.4933953834426243  1.0000
  V   V4        1.0  0.33465410500000004  0.454140065  0.47731560936723166  1.0000
  V   V5        1.0  0.417987435  0.12080673499999997  0.4475869365458775  1.0000
  V   V6        1.0  0.25412777500000006  0.783755595  0.5079852267150727  1.0000
  V   V7        1.0  0.262782775  0.49998810500000007  0.5029552748062847  1.0000
  V   V8        1.0  0.34611611500000006  0.16665477499999998  0.4732266055523709  1.0000
  V   V9        1.0  0.18118816500000004  0.8115490550000001  0.5300014428858437  1.0000
  V   V10       1.0  0.7372172150000003  0.5241510450000001  0.48355960763895856  1.0000
  V   V11       1.0  0.820550555  0.19081771499999997  0.4538309383850449  1.0000
  V   V12       1.0  0.6480409050000001  0.8610019249999998  0.5143133273954831  1.0000
  V   V13       1.0  0.7827268749999999  0.657447795  0.5314034648211408  1.0000
  V   V14       1.0  0.8511870550000001  0.347950035  0.5042242811568448  1.0000
  V   V15       1.0  0.9313029250000001  0.013616264999999966  0.47466338506000316  1.0000
  V   V16       1.0  0.06924200500000005  0.016730944999999966  0.5118068009238023  1.0000
  V   V17       1.0  0.15203040500000006  0.6771895450000001  0.48212282813132634  1.0000
  V   V18       1.0  0.23536373500000005  0.343856215  0.4523941553099722  1.0000
  V   V19       1.0  0.671112665  0.567534065  0.5098272103791376  1.0000
  V   V20       1.0  0.748679225  0.236665745  0.47947060382409784  1.0000
  V   V21       1.0  0.8320125650000001  0.903332415  0.4497419345701841  1.0000
  V   V22       1.0  0.12120530500000005  0.22055581499999996  0.493119499002619  1.0000
  V   V23       1.0  0.20453863500000005  0.8872224750000001  0.46339082618126487  1.0000
  V   V24       1.0  0.041518465000000074  0.569533305  0.5220408386447787  1.0000
