data_image0
_chemical_formula_structural       COAl6Pt3Al6Pt3Al6Pt3Al6Pt3
_chemical_formula_sum              "C1 O1 Al24 Pt12"
_cell_length_a       8.45045896
_cell_length_b       8.450458966064058
_cell_length_c       101.04896881
_cell_angle_alpha    90.0
_cell_angle_beta     90.0
_cell_angle_gamma    119.99999997626196

_space_group_name_H-M_alt    "P 1"
_space_group_IT_number       1

loop_
  _space_group_symop_operation_xyz
  'x, y, z'

loop_
  _atom_site_type_symbol
  _atom_site_label
  _atom_site_symmetry_multiplicity
  _atom_site_fract_x
  _atom_site_fract_y
  _atom_site_fract_z
  _atom_site_occupancy
  C   C1        1.0  0.568246755  0.552673685  0.5508502524270822  1.0000
  O   O1        1.0  0.5586652250000002  0.5334679550000001  0.562304360024788  1.0000
  Al  Al1       1.0  0.084239455  0.08454473500000002  0.5056297347983509  1.0000
  Al  Al2       1.0  0.417991845  0.25225013500000004  0.4718363682722145  1.0000
  Al  Al3       1.0  0.251325185  0.41891679500000006  0.4376956399752121  1.0000
  Al  Al4       1.0  0.251325185  0.41891679500000006  0.4889067339570485  1.0000
  Al  Al5       1.0  0.08465851499999999  0.08558346500000003  0.4547660056600461  1.0000
  Al  Al6       1.0  0.417134045  0.250511195  0.5233765693187211  1.0000
  Pt  Pt1       1.0  0.251325185  0.41891679500000006  0.4633011885024631  1.0000
  Pt  Pt2       1.0  0.081913545  0.08109614500000004  0.5296116683984803  1.0000
  Pt  Pt3       1.0  0.417991845  0.25225013500000004  0.4974419167994654  1.0000
  Al  Al7       1.0  0.08512172500000006  0.5865011450000002  0.50565375382517  1.0000
  Al  Al8       1.0  0.41799184500000003  0.7522501350000002  0.4718363682722145  1.0000
  Al  Al9       1.0  0.2513251849999999  0.918916795  0.4376956399752121  1.0000
  Al  Al10      1.0  0.2513251849999999  0.918916795  0.4889067339570485  1.0000
  Al  Al11      1.0  0.08465851499999999  0.585583465  0.4547660056600461  1.0000
  Al  Al12      1.0  0.420755135  0.745786925  0.5234626930621916  1.0000
  Pt  Pt4       1.0  0.2513251849999999  0.918916795  0.4633011885024631  1.0000
  Pt  Pt5       1.0  0.08507124500000006  0.5863152750000001  0.5296319817906128  1.0000
  Pt  Pt6       1.0  0.41799184500000003  0.7522501350000002  0.4974419167994654  1.0000
  Al  Al13      1.0  0.584043135  0.08454106500000003  0.5056303278228075  1.0000
  Al  Al14      1.0  0.9179918450000001  0.25225013500000004  0.4718363682722145  1.0000
  Al  Al15      1.0  0.7513251850000001  0.41891679500000006  0.4376956399752121  1.0000
  Al  Al16      1.0  0.7513251850000001  0.41891679500000006  0.4889067339570485  1.0000
  Al  Al17      1.0  0.584658515  0.08558346500000003  0.4547660056600461  1.0000
  Al  Al18      1.0  0.918086455  0.252425975  0.5234097018716428  1.0000
  Pt  Pt7       1.0  0.7513251850000001  0.41891679500000006  0.4633011885024631  1.0000
  Pt  Pt8       1.0  0.582931765  0.08108320500000002  0.5296115700731817  1.0000
  Pt  Pt9       1.0  0.9179918450000001  0.25225013500000004  0.4974419167994654  1.0000
  Al  Al19      1.0  0.584458425  0.5851578350000001  0.5064006112837545  1.0000
  Al  Al20      1.0  0.9179918450000001  0.7522501350000002  0.4718363682722145  1.0000
  Al  Al21      1.0  0.751325185  0.918916795  0.4376956399752121  1.0000
  Al  Al22      1.0  0.751325185  0.918916795  0.4889067339570485  1.0000
  Al  Al23      1.0  0.584658515  0.585583465  0.4547660056600461  1.0000
  Al  Al24      1.0  0.908831415  0.7457817250000001  0.5234633874846122  1.0000
  Pt  Pt10      1.0  0.751325185  0.918916795  0.4633011885024631  1.0000
  Pt  Pt11      1.0  0.580278265  0.576776865  0.5316486152264159  1.0000
  Pt  Pt12      1.0  0.9179918450000001  0.7522501350000002  0.4974419167994654  1.0000
