data_image0
_chemical_formula_structural       COCo4Re12Co4Re12
_chemical_formula_sum              "C1 O1 Co8 Re24"
_cell_length_a       5.42981521
_cell_length_b       11.70361744637758
_cell_length_c       104.91070984000001
_cell_angle_alpha    68.1077432620882
_cell_angle_beta     90.0
_cell_angle_gamma    62.35814263095538

_space_group_name_H-M_alt    "P 1"
_space_group_IT_number       1

loop_
  _space_group_symop_operation_xyz
  'x, y, z'

loop_
  _atom_site_type_symbol
  _atom_site_label
  _atom_site_symmetry_multiplicity
  _atom_site_fract_x
  _atom_site_fract_y
  _atom_site_fract_z
  _atom_site_occupancy
  C   C1        1.0  0.18784347499999998  0.03945609499999997  0.537413823463534  1.0000
  O   O1        1.0  0.35825060499999983  0.9605439050000001  0.5483371878715556  1.0000
  Co  Co1       1.0  0.670219225  0.305129105  0.4551355573652832  1.0000
  Co  Co2       1.0  0.670219225  0.805129105  0.47593342793853216  1.0000
  Co  Co3       1.0  0.33688588499999994  0.13846244499999996  0.4828660536813881  1.0000
  Co  Co4       1.0  0.3368858849999999  0.638462445  0.462068183108139  1.0000
  Re  Re1       1.0  0.33626718499999986  0.38861711499999996  0.47246068270169345  1.0000
  Re  Re2       1.0  0.336267185  0.888617115  0.45166281212844445  1.0000
  Re  Re3       1.0  0.837195245  0.13815308499999998  0.4828789217398691  1.0000
  Re  Re4       1.0  0.837195245  0.638153085  0.4620810511666201  1.0000
  Re  Re5       1.0  0.837195245  0.38861711499999996  0.47246068270169345  1.0000
  Re  Re6       1.0  0.8371952450000001  0.888617115  0.45166281212844445  1.0000
  Re  Re7       1.0  0.6708379249999998  0.054974434999999974  0.46554092834497796  1.0000
  Re  Re8       1.0  0.6708379250000002  0.5549744349999999  0.4863387989182269  1.0000
  Re  Re9       1.0  0.16990986499999985  0.30543846500000005  0.4551226893068021  1.0000
  Re  Re10      1.0  0.16990986499999994  0.805438465  0.47592055988005116  1.0000
  Re  Re11      1.0  0.169909865  0.054974434999999974  0.46554092834497796  1.0000
  Re  Re12      1.0  0.16990986499999994  0.5549744349999999  0.4863387989182269  1.0000
  Co  Co5       1.0  0.670219225  0.305129105  0.4967312985117812  1.0000
  Co  Co6       1.0  0.6677221349999998  0.807735375  0.5163896520924923  1.0000
  Co  Co7       1.0  0.32932014499999995  0.15039003499999998  0.5231265249498533  1.0000
  Co  Co8       1.0  0.335325135  0.640341385  0.5034929624308657  1.0000
  Re  Re13      1.0  0.3339557549999999  0.390406035  0.5141610088520708  1.0000
  Re  Re14      1.0  0.336267185  0.888617115  0.49325855327494245  1.0000
  Re  Re15      1.0  0.8183511450000002  0.14345228499999998  0.5231463145396613  1.0000
  Re  Re16      1.0  0.833210135  0.6420176949999999  0.5036545136341601  1.0000
  Re  Re17      1.0  0.8357983049999997  0.388431845  0.514194079130112  1.0000
  Re  Re18      1.0  0.8371952450000001  0.888617115  0.49325855327494245  1.0000
  Re  Re19      1.0  0.6714158849999999  0.05167174499999999  0.5073751961095063  1.0000
  Re  Re20      1.0  0.6650334450000001  0.5602780350000001  0.5261888633109258  1.0000
  Re  Re21      1.0  0.16990986499999985  0.30543846500000005  0.49671843045330005  1.0000
  Re  Re22      1.0  0.16880592499999994  0.805350765  0.5164539990402163  1.0000
  Re  Re23      1.0  0.17253236499999994  0.051895794999999974  0.5073294507772231  1.0000
  Re  Re24      1.0  0.16280475499999988  0.5639635150000001  0.5262154746022818  1.0000
