data_image0
_chemical_formula_structural       COSi8W4
_chemical_formula_sum              "C1 O1 Si8 W4"
_cell_length_a       4.557306158289363
_cell_length_b       4.58030956
_cell_length_c       101.68028049
_cell_angle_alpha    90.0
_cell_angle_beta     89.66633328071418
_cell_angle_gamma    90.0

_space_group_name_H-M_alt    "P 1"
_space_group_IT_number       1

loop_
  _space_group_symop_operation_xyz
  'x, y, z'

loop_
  _atom_site_type_symbol
  _atom_site_label
  _atom_site_symmetry_multiplicity
  _atom_site_fract_x
  _atom_site_fract_y
  _atom_site_fract_z
  _atom_site_occupancy
  C   C1        1.0  0.803208825  0.9724870699999999  0.5385253129170461  1.0000
  O   O1        1.0  0.9366808350000001  0.94261482  0.5482575131026098  1.0000
  Si  Si1       1.0  0.3145476850000001  0.5355839899999999  0.47783075826416416  1.0000
  Si  Si2       1.0  0.564821855  0.03505554999999999  0.49655550339520765  1.0000
  Si  Si3       1.0  0.06454768500000004  0.03558398999999999  0.4583577835528116  1.0000
  Si  Si4       1.0  0.7940434150000002  0.52598744  0.5171199056245339  1.0000
  Si  Si5       1.0  0.8193352749999999  0.5355839899999999  0.490688436320095  1.0000
  Si  Si6       1.0  0.06331916500000002  0.03289751999999999  0.5107106860080497  1.0000
  Si  Si7       1.0  0.5693352749999999  0.03558398999999999  0.4712154616087425  1.0000
  Si  Si8       1.0  0.31933527500000003  0.5355839899999999  0.45174248689739  1.0000
  W   W1        1.0  0.8169414850000001  0.5355839899999999  0.4647866225807771  1.0000
  W   W2        1.0  0.06694148500000002  0.03558398999999999  0.4842595972921296  1.0000
  W   W3        1.0  0.5684530750000001  0.02751292999999999  0.5217954727857121  1.0000
  W   W4        1.0  0.316133845  0.5339148599999999  0.5037653894183036  1.0000
