data_image0
_chemical_formula_structural       COIr4V4Ir4V4Ir4V4Ir4V4
_chemical_formula_sum              "C1 O1 Ir16 V16"
_cell_length_a       5.6497944
_cell_length_b       8.93381520103836
_cell_length_c       105.33682053999999
_cell_angle_alpha    91.51830880796304
_cell_angle_beta     90.0
_cell_angle_gamma    90.0

_space_group_name_H-M_alt    "P 1"
_space_group_IT_number       1

loop_
  _space_group_symop_operation_xyz
  'x, y, z'

loop_
  _atom_site_type_symbol
  _atom_site_label
  _atom_site_symmetry_multiplicity
  _atom_site_fract_x
  _atom_site_fract_y
  _atom_site_fract_z
  _atom_site_occupancy
  C   C1        1.0  0.37619263500000005  0.358045285  0.5362892475357972  1.0000
  O   O1        1.0  0.376242865  0.390926285  0.5471416891303861  1.0000
  Ir  Ir1       1.0  0.376210315  0.18566683500000006  0.4528583108696139  1.0000
  Ir  Ir2       1.0  0.37620027500000003  0.13294619500000002  0.4949704313867017  1.0000
  Ir  Ir3       1.0  0.376187105  0.30969722499999996  0.5187639735789275  1.0000
  Ir  Ir4       1.0  0.376210315  0.36663059500000006  0.476641755564186  1.0000
  V   V1        1.0  0.126210315  0.436792265  0.45618547324767206  1.0000
  V   V2        1.0  0.12491354500000001  0.38358200500000006  0.4982421648764766  1.0000
  V   V3        1.0  0.126210315  0.11550516500000003  0.4733145931861278  1.0000
  V   V4        1.0  0.123746465  0.06320773500000001  0.5153752768488884  1.0000
  Ir  Ir5       1.0  0.376210315  0.6856668349999999  0.4528583108696139  1.0000
  Ir  Ir6       1.0  0.37621467499999994  0.6264426949999999  0.49461471096935744  1.0000
  Ir  Ir7       1.0  0.37624675500000004  0.814880835  0.5168738226576607  1.0000
  Ir  Ir8       1.0  0.376210315  0.866630595  0.476641755564186  1.0000
  V   V5        1.0  0.126210315  0.9367922649999999  0.45618547324767217  1.0000
  V   V6        1.0  0.127836775  0.883828675  0.4982187661900531  1.0000
  V   V7        1.0  0.126210315  0.615505165  0.47331459318612773  1.0000
  V   V8        1.0  0.124017845  0.564420815  0.5150377721831254  1.0000
  Ir  Ir9       1.0  0.876210315  0.18566683500000006  0.4528583108696139  1.0000
  Ir  Ir10      1.0  0.876203275  0.12715594500000005  0.49476173523170625  1.0000
  Ir  Ir11      1.0  0.876253535  0.316532675  0.5171567739988905  1.0000
  Ir  Ir12      1.0  0.876210315  0.36663059500000006  0.476641755564186  1.0000
  V   V9        1.0  0.626210315  0.436792265  0.45618547324767206  1.0000
  V   V10       1.0  0.627509075  0.38359775500000004  0.4982425137601164  1.0000
  V   V11       1.0  0.626210315  0.11550516500000003  0.4733145931861278  1.0000
  V   V12       1.0  0.628682635  0.06322842500000003  0.5153753640697983  1.0000
  Ir  Ir13      1.0  0.876210315  0.6856668349999999  0.4528583108696139  1.0000
  Ir  Ir14      1.0  0.876228985  0.628600665  0.4947234452522313  1.0000
  Ir  Ir15      1.0  0.876231995  0.8170528149999999  0.5171523626336364  1.0000
  Ir  Ir16      1.0  0.876210315  0.866630595  0.476641755564186  1.0000
  V   V13       1.0  0.626210315  0.9367922649999999  0.45618547324767217  1.0000
  V   V14       1.0  0.6245873949999999  0.8838220549999999  0.4982191519748472  1.0000
  V   V15       1.0  0.626210315  0.615505165  0.47331459318612773  1.0000
  V   V16       1.0  0.6283905750000001  0.5644059549999999  0.5150389865665642  1.0000
