data_image0
_chemical_formula_structural       COGa10Rh6
_chemical_formula_sum              "C1 O1 Ga10 Rh6"
_cell_length_a       5.048200487904426
_cell_length_b       6.758128010576472
_cell_length_c       102.08344785
_cell_angle_alpha    100.93681067231253
_cell_angle_beta     104.73406018446802
_cell_angle_gamma    101.40113063984131

_space_group_name_H-M_alt    "P 1"
_space_group_IT_number       1

loop_
  _space_group_symop_operation_xyz
  'x, y, z'

loop_
  _atom_site_type_symbol
  _atom_site_label
  _atom_site_symmetry_multiplicity
  _atom_site_fract_x
  _atom_site_fract_y
  _atom_site_fract_z
  _atom_site_occupancy
  C   C1        1.0  0.91824051  0.862923635  0.5396742151044662  1.0000
  O   O1        1.0  0.99751703  0.870754415  0.5516106900338235  1.0000
  Ga  Ga1       1.0  0.90370061  0.5460955749999999  0.48073891514332323  1.0000
  Ga  Ga2       1.0  0.34977438999999994  0.45210475499999997  0.4745161056269964  1.0000
  Ga  Ga3       1.0  0.04131220999999985  0.199521645  0.5175310351937292  1.0000
  Ga  Ga4       1.0  0.26774530999999996  0.824019725  0.5168668347109252  1.0000
  Ga  Ga5       1.0  0.6780842499999999  0.14195652499999997  0.45988103494984495  1.0000
  Ga  Ga6       1.0  0.5530818699999999  0.8456970149999998  0.49474077712781017  1.0000
  Ga  Ga7       1.0  0.7918700999999999  0.49044857500000005  0.5077501569688657  1.0000
  Ga  Ga8       1.0  0.44611939999999994  0.525501525  0.44838930996617654  1.0000
  Ga  Ga9       1.0  0.16788408999999996  0.905334375  0.46556254256988183  1.0000
  Ga  Ga10      1.0  0.08175949000000005  0.09466562499999998  0.4893575996665215  1.0000
  Rh  Rh1       1.0  0.9746027599999999  0.512875625  0.45597187995343685  1.0000
  Rh  Rh2       1.0  0.26208841  0.484085555  0.5000291594999406  1.0000
  Rh  Rh3       1.0  0.79143102  0.852223955  0.5203423592174313  1.0000
  Rh  Rh4       1.0  0.48631758  0.15909862499999997  0.5113742289818057  1.0000
  Rh  Rh5       1.0  0.6710841  0.8039065449999999  0.4714823233445319  1.0000
  Rh  Rh6       1.0  0.5823908999999999  0.19429378499999997  0.4837726974257877  1.0000
