data_image0
_chemical_formula_structural       COAl6Re12
_chemical_formula_sum              "C1 O1 Al6 Re12"
_cell_length_a       5.285296852652949
_cell_length_b       6.729605233016839
_cell_length_c       102.00408207000001
_cell_angle_alpha    91.20486631830178
_cell_angle_beta     90.2580455934826
_cell_angle_gamma    112.4564279906696

_space_group_name_H-M_alt    "P 1"
_space_group_IT_number       1

loop_
  _space_group_symop_operation_xyz
  'x, y, z'

loop_
  _atom_site_type_symbol
  _atom_site_label
  _atom_site_symmetry_multiplicity
  _atom_site_fract_x
  _atom_site_fract_y
  _atom_site_fract_z
  _atom_site_occupancy
  C   C1        1.0  0.028044464999999973  0.46051926499999996  0.5360274155567367  1.0000
  O   O1        1.0  0.880563775  0.321909015  0.5447265519221778  1.0000
  Al  Al1       1.0  0.5293262550000001  0.9866909749999999  0.4901636331087087  1.0000
  Al  Al2       1.0  0.44599291500000005  0.15335764500000001  0.46401755151663104  1.0000
  Al  Al3       1.0  0.48765958500000006  0.570024305  0.47709059231266976  1.0000
  Al  Al4       1.0  0.623780825  0.236773165  0.5305317345020382  1.0000
  Al  Al5       1.0  0.5811308749999999  0.40765481499999995  0.5028747253594782  1.0000
  Al  Al6       1.0  0.6139192849999999  0.8213265249999999  0.5172356592811156  1.0000
  Re  Re1       1.0  0.7558542249999999  0.5435290949999999  0.45527344807782205  1.0000
  Re  Re2       1.0  0.7975208949999999  0.9601957649999999  0.4683464888738609  1.0000
  Re  Re3       1.0  0.839187565  0.37686243499999994  0.48141952966989976  1.0000
  Re  Re4       1.0  0.136131605  0.7631861849999999  0.47276165495544  1.0000
  Re  Re5       1.0  0.17779827500000003  0.17985285500000003  0.48583469575147875  1.0000
  Re  Re6       1.0  0.094464945  0.34651952499999994  0.45968861729693067  1.0000
  Re  Re7       1.0  0.8808542250000001  0.7935290949999999  0.49449256732840907  1.0000
  Re  Re8       1.0  0.9279622750000001  0.211354135  0.5072808898688069  1.0000
  Re  Re9       1.0  0.971955535  0.623989185  0.520445348863054  1.0000
  Re  Re10      1.0  0.25201033500000003  0.013309025000000009  0.5123160600252651  1.0000
  Re  Re11      1.0  0.30843221499999995  0.423555555  0.523543151004065  1.0000
  Re  Re12      1.0  0.21946494499999997  0.5965195249999999  0.4989077365475177  1.0000
