data_image0
_chemical_formula_structural       CORe16
_chemical_formula_sum              "C1 O1 Re16"
_cell_length_a       5.56464258
_cell_length_b       5.564642577372407
_cell_length_c       101.49434596
_cell_angle_alpha    90.0
_cell_angle_beta     90.0
_cell_angle_gamma    119.9999998967275

_space_group_name_H-M_alt    "P 1"
_space_group_IT_number       1

loop_
  _space_group_symop_operation_xyz
  'x, y, z'

loop_
  _atom_site_type_symbol
  _atom_site_label
  _atom_site_symmetry_multiplicity
  _atom_site_fract_x
  _atom_site_fract_y
  _atom_site_fract_z
  _atom_site_occupancy
  C   C1        1.0  0.08296765999999992  0.502402425  0.534418919947742  1.0000
  O   O1        1.0  0.09071234999999994  0.499244685  0.5463342329800119  1.0000
  Re  Re1       1.0  0.24919091999999987  0.33744830499999995  0.45366576701998806  1.0000
  Re  Re2       1.0  0.4158575799999999  0.17078164499999998  0.4758305100283786  1.0000
  Re  Re3       1.0  0.2509756999999999  0.33545475499999994  0.49880568028338784  1.0000
  Re  Re4       1.0  0.41867309999999985  0.167983405  0.5188331413584882  1.0000
  Re  Re5       1.0  0.24919091999999982  0.8374483049999999  0.45366576701998806  1.0000
  Re  Re6       1.0  0.4158575799999998  0.6707816449999999  0.4758305100283786  1.0000
  Re  Re7       1.0  0.25060037999999984  0.8335404949999999  0.49881843387676994  1.0000
  Re  Re8       1.0  0.4244544699999998  0.6703807949999999  0.5199297176595427  1.0000
  Re  Re9       1.0  0.7491909199999999  0.33744830499999995  0.45366576701998806  1.0000
  Re  Re10      1.0  0.9158575799999997  0.17078164499999998  0.4758305100283786  1.0000
  Re  Re11      1.0  0.7531974899999998  0.33599429499999994  0.4988236004784685  1.0000
  Re  Re12      1.0  0.9165594999999997  0.162551695  0.519958622701478  1.0000
  Re  Re13      1.0  0.7491909199999999  0.8374483049999999  0.45366576701998806  1.0000
  Re  Re14      1.0  0.9158575799999997  0.6707816449999999  0.4758305100283786  1.0000
  Re  Re15      1.0  0.7511719699999999  0.835251555  0.4984538486715024  1.0000
  Re  Re16      1.0  0.9170323399999998  0.669845115  0.5200261515820574  1.0000
