data_image0
_chemical_formula_structural       CORe12Si12
_chemical_formula_sum              "C1 O1 Re12 Si12"
_cell_length_a       6.81297224
_cell_length_b       6.812972235567533
_cell_length_c       103.37661123000001
_cell_angle_alpha    90.0
_cell_angle_beta     90.0
_cell_angle_gamma    59.999999978478584

_space_group_name_H-M_alt    "P 1"
_space_group_IT_number       1

loop_
  _space_group_symop_operation_xyz
  'x, y, z'

loop_
  _atom_site_type_symbol
  _atom_site_label
  _atom_site_symmetry_multiplicity
  _atom_site_fract_x
  _atom_site_fract_y
  _atom_site_fract_z
  _atom_site_occupancy
  C   C1        1.0  0.6878283899999998  0.686592065  0.5343853145981238  1.0000
  O   O1        1.0  0.6868436099999999  0.6872829250000001  0.5461756257881453  1.0000
  Re  Re1       1.0  0.69669516  0.437578155  0.5203852947064042  1.0000
  Re  Re2       1.0  0.032574070000000045  0.7644131049999999  0.4932051880374933  1.0000
  Re  Re3       1.0  0.3659073999999999  0.09774643500000002  0.4662998356099209  1.0000
  Re  Re4       1.0  0.43737806999999995  0.927162055  0.5203764901985235  1.0000
  Re  Re5       1.0  0.7644138300000001  0.26441310500000004  0.4932051880374933  1.0000
  Re  Re6       1.0  0.09774715999999989  0.597746435  0.4662998356099209  1.0000
  Re  Re7       1.0  0.9269846700000001  0.6968629850000002  0.5203874449822561  1.0000
  Re  Re8       1.0  0.26441382999999996  0.03257334500000003  0.4932051880374933  1.0000
  Re  Re9       1.0  0.5977471599999998  0.36590667500000007  0.4662998356099209  1.0000
  Re  Re10      1.0  0.6871339100000001  0.6871331850000001  0.48072972663942726  1.0000
  Re  Re11      1.0  0.02046723999999996  0.020466515000000032  0.4538243742118548  1.0000
  Re  Re12      1.0  0.35378604  0.353822735  0.5070509950526426  1.0000
  Si  Si1       1.0  0.64556627  0.9574150650000001  0.5010113125083226  1.0000
  Si  Si2       1.0  0.97953421  0.290933025  0.4740964646433916  1.0000
  Si  Si3       1.0  0.28712431999999993  0.654246485  0.5260077397907287  1.0000
  Si  Si4       1.0  0.9573746999999999  0.45844666500000003  0.5010124070181032  1.0000
  Si  Si5       1.0  0.29093374999999994  0.7909330250000001  0.4740964646433916  1.0000
  Si  Si6       1.0  0.65416836  0.12002247500000003  0.5260082240870917  1.0000
  Si  Si7       1.0  0.45840397000000005  0.6455783350000001  0.5010102179985421  1.0000
  Si  Si8       1.0  0.7909337499999999  0.979533485  0.4740964646433916  1.0000
  Si  Si9       1.0  0.12000829999999992  0.2872228150000001  0.5260029291135222  1.0000
  Si  Si10      1.0  0.6871339100000001  0.6871331850000001  0.4573398363103726  1.0000
  Si  Si11      1.0  0.020465789999999956  0.02048242500000003  0.5132484000078441  1.0000
  Si  Si12      1.0  0.35380056999999987  0.35379984500000006  0.48424518873794514  1.0000
