data_image0
_chemical_formula_structural       CONi6Sn8
_chemical_formula_sum              "C1 O1 Ni6 Sn8"
_cell_length_a       5.321214204353461
_cell_length_b       6.534832164461771
_cell_length_c       38.62146672
_cell_angle_alpha    87.64525045951748
_cell_angle_beta     86.21379972301618
_cell_angle_gamma    104.39494912624443

_space_group_name_H-M_alt    "P 1"
_space_group_IT_number       1

loop_
  _space_group_symop_operation_xyz
  'x, y, z'

loop_
  _atom_site_type_symbol
  _atom_site_label
  _atom_site_symmetry_multiplicity
  _atom_site_fract_x
  _atom_site_fract_y
  _atom_site_fract_z
  _atom_site_occupancy
  C   C1        1.0  0.34944345500000007  0.043382949999999955  0.5985312142872103  1.0000
  O   O1        1.0  0.347155605  0.12230938999999995  0.6250951075880213  1.0000
  Ni  Ni1       1.0  0.49560779499999996  0.20137899999999995  0.45901231973795054  1.0000
  Ni  Ni2       1.0  0.9301246650000001  0.8291414899999999  0.379377106051023  1.0000
  Ni  Ni3       1.0  0.18609093499999996  0.8236165099999999  0.43708958374312307  1.0000
  Ni  Ni4       1.0  0.3582553150000001  0.9281767599999999  0.5576523553906984  1.0000
  Ni  Ni5       1.0  0.803967085  0.57441146  0.4801867930686557  1.0000
  Ni  Ni6       1.0  0.06987533500000001  0.59039784  0.5342061771507961  1.0000
  Sn  Sn1       1.0  0.254516455  0.20085378999999998  0.40094872780566376  1.0000
  Sn  Sn2       1.0  0.8616991350000002  0.4519042199999999  0.4155179701131178  1.0000
  Sn  Sn3       1.0  0.41134572499999994  0.7520783699999999  0.3749048924119783  1.0000
  Sn  Sn4       1.0  0.704869875  0.9006796399999999  0.4415617973821677  1.0000
  Sn  Sn5       1.0  0.12255551500000002  0.95661705  0.5015781210408089  1.0000
  Sn  Sn6       1.0  0.7281276849999999  0.20433452999999996  0.519985904179803  1.0000
  Sn  Sn7       1.0  0.28710581500000004  0.5013342999999999  0.4755518917318719  1.0000
  Sn  Sn8       1.0  0.5849507949999999  0.63525406  0.5457331010131531  1.0000
