data_image0
_chemical_formula_structural       COPt12Si4
_chemical_formula_sum              "C1 O1 Pt12 Si4"
_cell_length_a       5.561720115329228
_cell_length_b       5.623481074948487
_cell_length_c       106.07718928
_cell_angle_alpha    90.83129280474834
_cell_angle_beta     92.67898078677207
_cell_angle_gamma    118.98701364647677

_space_group_name_H-M_alt    "P 1"
_space_group_IT_number       1

loop_
  _space_group_symop_operation_xyz
  'x, y, z'

loop_
  _atom_site_type_symbol
  _atom_site_label
  _atom_site_symmetry_multiplicity
  _atom_site_fract_x
  _atom_site_fract_y
  _atom_site_fract_z
  _atom_site_occupancy
  C   C1        1.0  0.09464800999999992  0.45720718499999996  0.5385499845095669  1.0000
  O   O1        1.0  0.10026266999999991  0.45198519499999995  0.5495325283410856  1.0000
  Pt  Pt1       1.0  0.8560542099999998  0.650918715  0.4755350349361362  1.0000
  Pt  Pt2       1.0  0.5460800299999999  0.006435724999999988  0.5162389030805988  1.0000
  Pt  Pt3       1.0  0.44487954999999996  0.993564275  0.45222806337879334  1.0000
  Pt  Pt4       1.0  0.20423227999999996  0.37389703500000004  0.49581620033890766  1.0000
  Pt  Pt5       1.0  0.91381968  0.519447495  0.45046747165891426  1.0000
  Pt  Pt6       1.0  0.66453275  0.894611195  0.4920215807453995  1.0000
  Pt  Pt7       1.0  0.10230866999999995  0.451467185  0.520851049091354  1.0000
  Pt  Pt8       1.0  0.38711407999999997  0.12503549499999997  0.4772956266560153  1.0000
  Pt  Pt9       1.0  0.7348039800000001  0.42201242499999997  0.49950088838190904  1.0000
  Pt  Pt10      1.0  0.9704198500000001  0.05072841499999999  0.4576599702846805  1.0000
  Pt  Pt11      1.0  0.3305139099999999  0.593754575  0.4701031280302492  1.0000
  Pt  Pt12      1.0  0.029580149999999944  0.943780625  0.5131965713125661  1.0000
  Si  Si1       1.0  0.8638019399999999  0.21570392500000002  0.47613392942587657  1.0000
  Si  Si2       1.0  0.5600816000000001  0.590235135  0.5151704961524249  1.0000
  Si  Si3       1.0  0.19424246  0.819746035  0.4950509375771583  1.0000
  Si  Si4       1.0  0.43713181999999995  0.42877906499999996  0.451629168889053  1.0000
