data_image0
_chemical_formula_structural       COV2Pt2V2Pt2V2Pt2V2Pt2
_chemical_formula_sum              "C1 O1 V8 Pt8"
_cell_length_a       5.42824988
_cell_length_b       4.81926357
_cell_length_c       100.90514112
_cell_angle_alpha    90.0
_cell_angle_beta     90.0
_cell_angle_gamma    90.0

_space_group_name_H-M_alt    "P 1"
_space_group_IT_number       1

loop_
  _space_group_symop_operation_xyz
  'x, y, z'

loop_
  _atom_site_type_symbol
  _atom_site_label
  _atom_site_symmetry_multiplicity
  _atom_site_fract_x
  _atom_site_fract_y
  _atom_site_fract_z
  _atom_site_occupancy
  C   C1        1.0  0.37338308499999995  0.08890746999999996  0.5340625587790475  1.0000
  O   O1        1.0  0.37560951499999995  0.08490658999999996  0.5459734793742675  1.0000
  V   V1        1.0  0.12497825499999997  0.9150934099999999  0.45402652062573245  1.0000
  V   V2        1.0  0.12497825499999997  0.25636017  0.47590360252014796  1.0000
  Pt  Pt1       1.0  0.374978255  0.4042011099999999  0.45402652062573245  1.0000
  Pt  Pt2       1.0  0.374978255  0.76725247  0.47590360252014796  1.0000
  V   V3        1.0  0.12486913499999996  0.9098337  0.49854848949675223  1.0000
  V   V4        1.0  0.12596241499999997  0.25716886999999994  0.5187688094451691  1.0000
  Pt  Pt3       1.0  0.374883845  0.40583475999999996  0.4977412846643669  1.0000
  Pt  Pt4       1.0  0.3751630649999999  0.75838781  0.5204622850731957  1.0000
  V   V5        1.0  0.6249782549999999  0.9150934099999999  0.45402652062573245  1.0000
  V   V6        1.0  0.6249782549999999  0.25636017  0.47590360252014796  1.0000
  Pt  Pt5       1.0  0.8749782549999999  0.4042011099999999  0.45402652062573245  1.0000
  Pt  Pt6       1.0  0.8749782549999999  0.76725247  0.47590360252014796  1.0000
  V   V7        1.0  0.6251030649999999  0.90977191  0.4985540821540796  1.0000
  V   V8        1.0  0.6245974249999999  0.25724463999999997  0.5187414924075445  1.0000
  Pt  Pt7       1.0  0.8750422349999998  0.40055918999999995  0.4973978201597966  1.0000
  Pt  Pt8       1.0  0.8751308650000001  0.7702441099999999  0.5194921274804358  1.0000
