data_image0
_chemical_formula_structural       COAl8Pd8Al8Pd8
_chemical_formula_sum              "C1 O1 Al16 Pd16"
_cell_length_a       4.93878215
_cell_length_b       6.9844927
_cell_length_c       104.92246349
_cell_angle_alpha    90.0
_cell_angle_beta     90.0
_cell_angle_gamma    90.0

_space_group_name_H-M_alt    "P 1"
_space_group_IT_number       1

loop_
  _space_group_symop_operation_xyz
  'x, y, z'

loop_
  _atom_site_type_symbol
  _atom_site_label
  _atom_site_symmetry_multiplicity
  _atom_site_fract_x
  _atom_site_fract_y
  _atom_site_fract_z
  _atom_site_occupancy
  C   C1        1.0  0.8865967299999999  0.8937472550000001  0.5622210692204255  1.0000
  O   O1        1.0  0.8279490399999999  0.9084521750000001  0.5730831648604339  1.0000
  Al  Al1       1.0  0.12171917999999998  0.5422383150000001  0.4642930521728917  1.0000
  Al  Al2       1.0  0.12171917999999998  0.04223831500000005  0.43100898474978133  1.0000
  Al  Al3       1.0  0.62171918  0.7922383150000001  0.4269168351395661  1.0000
  Al  Al4       1.0  0.62171918  0.2922383150000001  0.46020090256267643  1.0000
  Al  Al5       1.0  0.8102460599999999  0.38650175500000006  0.4872100279351169  1.0000
  Al  Al6       1.0  0.8102460599999999  0.8865017550000001  0.45392596051200645  1.0000
  Al  Al7       1.0  0.31024606  0.4479748750000001  0.43728392680045125  1.0000
  Al  Al8       1.0  0.31024606  0.9479748750000001  0.4705679942235617  1.0000
  Pd  Pd1       1.0  0.81856197  0.5422383150000001  0.44411244280368894  1.0000
  Pd  Pd2       1.0  0.81856197  0.04223831500000005  0.47739651022679935  1.0000
  Pd  Pd3       1.0  0.31856197  0.2922383150000001  0.48038151193187917  1.0000
  Pd  Pd4       1.0  0.31856197  0.7922383150000001  0.44709744450876876  1.0000
  Pd  Pd5       1.0  0.11340326999999997  0.6896589650000001  0.4872100279351169  1.0000
  Pd  Pd6       1.0  0.11340326999999997  0.189658965  0.45392596051200645  1.0000
  Pd  Pd7       1.0  0.6134032700000001  0.644817665  0.4705679942235617  1.0000
  Pd  Pd8       1.0  0.6134032700000001  0.14481766500000007  0.43728392680045125  1.0000
  Al  Al9       1.0  0.13049987000000002  0.5447025050000001  0.5302472224546123  1.0000
  Al  Al10      1.0  0.12171917999999998  0.04223831500000005  0.4975771195960021  1.0000
  Al  Al11      1.0  0.62171918  0.7922383150000001  0.4934849699857869  1.0000
  Al  Al12      1.0  0.62410411  0.2882449550000001  0.5266623286887387  1.0000
  Al  Al13      1.0  0.8231867099999999  0.3888753850000001  0.5515331590904624  1.0000
  Al  Al14      1.0  0.8102460599999999  0.8865017550000001  0.5204940953582273  1.0000
  Al  Al15      1.0  0.31024606  0.4479748750000001  0.5038520616466721  1.0000
  Al  Al16      1.0  0.33713311999999995  0.960094215  0.5374275310800718  1.0000
  Pd  Pd9       1.0  0.81856197  0.5422383150000001  0.5106805776499097  1.0000
  Pd  Pd10      1.0  0.8458676699999998  0.03990578500000005  0.5450274486151278  1.0000
  Pd  Pd11      1.0  0.32632137  0.306637985  0.5464475699346493  1.0000
  Pd  Pd12      1.0  0.31856197  0.7922383150000001  0.5136655793549896  1.0000
  Pd  Pd13      1.0  0.11685688000000001  0.693133065  0.5526797253166469  1.0000
  Pd  Pd14      1.0  0.11340326999999997  0.189658965  0.5204940953582273  1.0000
  Pd  Pd15      1.0  0.61343645  0.6451106449999999  0.5367235930245134  1.0000
  Pd  Pd16      1.0  0.6134032700000001  0.14481766500000007  0.5038520616466721  1.0000
