data_image0
_chemical_formula_structural       COSb6Pd6Sb6Pd6
_chemical_formula_sum              "C1 O1 Sb12 Pd12"
_cell_length_a       5.72568644
_cell_length_b       11.048355718248757
_cell_length_c       99.23120162000001
_cell_angle_alpha    79.1066053684719
_cell_angle_beta     90.0
_cell_angle_gamma    90.0

_space_group_name_H-M_alt    "P 1"
_space_group_IT_number       1

loop_
  _space_group_symop_operation_xyz
  'x, y, z'

loop_
  _atom_site_type_symbol
  _atom_site_label
  _atom_site_symmetry_multiplicity
  _atom_site_fract_x
  _atom_site_fract_y
  _atom_site_fract_z
  _atom_site_occupancy
  C   C1        1.0  0.25241550999999995  0.7645603999999999  0.5347577033838107  1.0000
  O   O1        1.0  0.2524245  0.7739987399999999  0.5464058470992147  1.0000
  Sb  Sb1       1.0  0.75240217  0.6092385699999999  0.45826997502491  1.0000
  Sb  Sb2       1.0  0.75240217  0.27590522999999995  0.4863248989323578  1.0000
  Sb  Sb3       1.0  0.75240217  0.9425719  0.4722974355057503  1.0000
  Sb  Sb4       1.0  0.25240217  0.83146079  0.45359415290078525  1.0000
  Sb  Sb5       1.0  0.25240217  0.4981274499999999  0.481649079754  1.0000
  Sb  Sb6       1.0  0.25240217  0.16479411999999996  0.4676216163273927  1.0000
  Pd  Pd1       1.0  0.0024021699999999756  0.72034968  0.4769732576298752  1.0000
  Pd  Pd2       1.0  0.0024021699999999756  0.3870163399999999  0.4629457942032677  1.0000
  Pd  Pd3       1.0  0.0024021699999999756  0.053683009999999975  0.49100072105648274  1.0000
  Pd  Pd4       1.0  0.50240217  0.72034968  0.4769732576298752  1.0000
  Pd  Pd5       1.0  0.50240217  0.3870163399999999  0.4629457942032677  1.0000
  Pd  Pd6       1.0  0.50240217  0.053683009999999975  0.49100072105648274  1.0000
  Sb  Sb7       1.0  0.75242297  0.61929969  0.5016902885678832  1.0000
  Sb  Sb8       1.0  0.75239074  0.28457186  0.5285356863659192  1.0000
  Sb  Sb9       1.0  0.75240609  0.94631699  0.5146320865573726  1.0000
  Sb  Sb10      1.0  0.25240217  0.83146079  0.4956765402348404  1.0000
  Sb  Sb11      1.0  0.2523675  0.4988272099999999  0.5236294198216725  1.0000
  Sb  Sb12      1.0  0.25239803  0.18208507999999998  0.5080434747064227  1.0000
  Pd  Pd7       1.0  0.011012539999999973  0.72917205  0.5202713129978964  1.0000
  Pd  Pd8       1.0  0.9983016800000001  0.39692795999999997  0.5051567966778328  1.0000
  Pd  Pd9       1.0  0.0016983199999999754  0.08093828999999998  0.5292348995534705  1.0000
  Pd  Pd10      1.0  0.49379932  0.72916687  0.5202708240005458  1.0000
  Pd  Pd11      1.0  0.50648109  0.39696406999999995  0.5051587320468649  1.0000
  Pd  Pd12      1.0  0.50310146  0.08093744999999998  0.5292341307082385  1.0000
