data_image0
_chemical_formula_structural       COAl5Cu5Al5Cu5Al5Cu5Al5Cu5
_chemical_formula_sum              "C1 O1 Al20 Cu20"
_cell_length_a       8.54227902
_cell_length_b       6.753264521326609
_cell_length_c       101.38633725
_cell_angle_alpha    75.03678258052815
_cell_angle_beta     90.0
_cell_angle_gamma    71.56505120301192

_space_group_name_H-M_alt    "P 1"
_space_group_IT_number       1

loop_
  _space_group_symop_operation_xyz
  'x, y, z'

loop_
  _atom_site_type_symbol
  _atom_site_label
  _atom_site_symmetry_multiplicity
  _atom_site_fract_x
  _atom_site_fract_y
  _atom_site_fract_z
  _atom_site_occupancy
  C   C1        1.0  0.20746834999999988  0.18314759499999997  0.554660138659749  1.0000
  O   O1        1.0  0.23031987999999992  0.09203773499999997  0.5661155037927074  1.0000
  Al  Al1       1.0  0.40094530999999994  0.40544342499999997  0.43904402189664854  1.0000
  Al  Al2       1.0  0.30094530999999997  0.8054434249999999  0.4493630794667939  1.0000
  Al  Al3       1.0  0.0009453099999999027  0.005443424999999977  0.48032024598579637  1.0000
  Al  Al4       1.0  0.20094530999999996  0.20544342499999996  0.4596821339412225  1.0000
  Al  Al5       1.0  0.10094530999999995  0.6054434249999999  0.47000118841565114  1.0000
  Cu  Cu1       1.0  0.40094530999999994  0.40544342499999997  0.4648416627262951  1.0000
  Cu  Cu2       1.0  0.30094530999999997  0.8054434249999999  0.4751607172007237  1.0000
  Cu  Cu3       1.0  0.0009453099999999027  0.005443424999999977  0.45452260515614984  1.0000
  Cu  Cu4       1.0  0.20094530999999996  0.20544342499999996  0.4338844962072926  1.0000
  Cu  Cu5       1.0  0.10094530999999995  0.6054434249999999  0.4442035506817212  1.0000
  Al  Al6       1.0  0.40094530999999994  0.40544342499999997  0.490639300460225  1.0000
  Al  Al7       1.0  0.30094530999999997  0.8054434249999999  0.5009583549346537  1.0000
  Al  Al8       1.0  0.0047066099999999705  0.9942187249999999  0.5316705573949914  1.0000
  Al  Al9       1.0  0.20104664999999988  0.20613170499999994  0.5136864961075911  1.0000
  Al  Al10      1.0  0.0999984199999999  0.606198515  0.5228194731825939  1.0000
  Cu  Cu6       1.0  0.4003641899999999  0.41129843499999996  0.5181390375065693  1.0000
  Cu  Cu7       1.0  0.30237408999999993  0.802552175  0.5261416446032973  1.0000
  Cu  Cu8       1.0  0.9990546900000001  0.013365234999999974  0.505057916529549  1.0000
  Cu  Cu9       1.0  0.20094530999999996  0.20544342499999996  0.4854797716751524  1.0000
  Cu  Cu10      1.0  0.10094530999999995  0.6054434249999999  0.4957988292452977  1.0000
  Al  Al11      1.0  0.9009453099999999  0.40544342499999997  0.43904402189664854  1.0000
  Al  Al12      1.0  0.8009453100000001  0.8054434249999999  0.4493630794667939  1.0000
  Al  Al13      1.0  0.5009453099999999  0.005443424999999977  0.48032024598579637  1.0000
  Al  Al14      1.0  0.7009453099999998  0.20544342499999996  0.4596821339412225  1.0000
  Al  Al15      1.0  0.6009453099999998  0.6054434249999999  0.47000118841565114  1.0000
  Cu  Cu11      1.0  0.9009453099999999  0.40544342499999997  0.4648416627262951  1.0000
  Cu  Cu12      1.0  0.8009453100000001  0.8054434249999999  0.4751607172007237  1.0000
  Cu  Cu13      1.0  0.5009453099999999  0.005443424999999977  0.45452260515614984  1.0000
  Cu  Cu14      1.0  0.7009453099999998  0.20544342499999996  0.4338844962072926  1.0000
  Cu  Cu15      1.0  0.6009453099999998  0.6054434249999999  0.4442035506817212  1.0000
  Al  Al16      1.0  0.9009453099999999  0.40544342499999997  0.490639300460225  1.0000
  Al  Al17      1.0  0.8009453100000001  0.8054434249999999  0.5009583549346537  1.0000
  Al  Al18      1.0  0.50373063  0.9945565749999998  0.5316815533805388  1.0000
  Al  Al19      1.0  0.7006524199999998  0.20655790499999996  0.5137576480591183  1.0000
  Al  Al20      1.0  0.6014913099999999  0.608092855  0.5226416676009754  1.0000
  Cu  Cu16      1.0  0.89896298  0.41106951499999994  0.5180921838350429  1.0000
  Cu  Cu17      1.0  0.8014936799999999  0.8032368449999999  0.5262119916684951  1.0000
  Cu  Cu18      1.0  0.49894788999999995  0.013779884999999976  0.5050683212332161  1.0000
  Cu  Cu19      1.0  0.7009453099999998  0.20544342499999996  0.4854797716751524  1.0000
  Cu  Cu20      1.0  0.6009453099999998  0.6054434249999999  0.4957988292452977  1.0000
