data_image0
_chemical_formula_structural       COV12Co4V12Co4
_chemical_formula_sum              "C1 O1 V24 Co8"
_cell_length_a       4.65566661
_cell_length_b       6.58410686
_cell_length_c       109.50464117
_cell_angle_alpha    90.0
_cell_angle_beta     90.0
_cell_angle_gamma    90.0

_space_group_name_H-M_alt    "P 1"
_space_group_IT_number       1

loop_
  _space_group_symop_operation_xyz
  'x, y, z'

loop_
  _atom_site_type_symbol
  _atom_site_label
  _atom_site_symmetry_multiplicity
  _atom_site_fract_x
  _atom_site_fract_y
  _atom_site_fract_z
  _atom_site_occupancy
  C   C1        1.0  0.999986405  0.7706368400000001  0.5515756976069744  1.0000
  O   O1        1.0  2.7594999999996323e-05  0.80837031  0.5627648462220345  1.0000
  V   V1        1.0  2.2574999999996324e-05  0.6875  0.43723515377796535  1.0000
  V   V2        1.0  2.2574999999996324e-05  0.18749999999999997  0.467298293239246  1.0000
  V   V3        1.0  2.2574999999996324e-05  0.4375  0.4823298647736747  1.0000
  V   V4        1.0  2.2574999999996324e-05  0.9375000000000001  0.45226672531239415  1.0000
  V   V5        1.0  0.5000225749999999  0.6875  0.45226672531239415  1.0000
  V   V6        1.0  0.5000225749999999  0.18749999999999997  0.4823298647736747  1.0000
  V   V7        1.0  0.5000225749999999  0.9375000000000001  0.43723515377796535  1.0000
  V   V8        1.0  0.5000225749999999  0.4375  0.467298293239246  1.0000
  V   V9        1.0  0.7500225749999999  0.3125  0.4447509377413913  1.0000
  V   V10       1.0  0.7500225749999999  0.8125000000000001  0.4748140808102488  1.0000
  V   V11       1.0  0.250022575  0.3125  0.4447509377413913  1.0000
  V   V12       1.0  0.250022575  0.8125000000000001  0.4748140808102488  1.0000
  Co  Co1       1.0  0.5000225749999999  0.5625  0.48984564873710057  1.0000
  Co  Co2       1.0  0.5000225749999999  0.06249999999999999  0.45978250927582004  1.0000
  Co  Co3       1.0  2.2574999999996324e-05  0.5625  0.45978250927582004  1.0000
  Co  Co4       1.0  2.2574999999996324e-05  0.06249999999999999  0.48984564873710057  1.0000
  V   V13       1.0  2.2574999999996324e-05  0.6875  0.4973614363081035  1.0000
  V   V14       1.0  2.1744999999996323e-05  0.19686173999999998  0.5276417230369244  1.0000
  V   V15       1.0  2.4494999999996322e-05  0.45332075999999993  0.5434668929409168  1.0000
  V   V16       1.0  2.2574999999996324e-05  0.9375000000000001  0.5123930042349553  1.0000
  V   V17       1.0  0.5000225749999999  0.6875  0.5123930042349553  1.0000
  V   V18       1.0  0.500017105  0.17970479  0.5425973081795368  1.0000
  V   V19       1.0  0.5000225749999999  0.9375000000000001  0.4973614363081035  1.0000
  V   V20       1.0  0.500022375  0.42981937  0.5276779863997186  1.0000
  V   V21       1.0  0.7500225749999999  0.3125  0.5048772202715294  1.0000
  V   V22       1.0  0.750253885  0.8102352  0.5342739537012922  1.0000
  V   V23       1.0  0.250022575  0.3125  0.5048772202715294  1.0000
  V   V24       1.0  0.249794385  0.81023423  0.5342735243996435  1.0000
  Co  Co5       1.0  0.5000349649999999  0.55616173  0.5476305850117263  1.0000
  Co  Co6       1.0  0.5000225749999999  0.06249999999999999  0.5199087918059581  1.0000
  Co  Co7       1.0  2.2574999999996324e-05  0.5625  0.5199087918059581  1.0000
  Co  Co8       1.0  1.3594999999996323e-05  0.07178686  0.5481837888883373  1.0000
