data_image0
_chemical_formula_structural       COV4Co4Si4V4Co4Si4V4Co4Si4
_chemical_formula_sum              "C1 O1 V12 Co12 Si12"
_cell_length_a       5.99001237
_cell_length_b       7.736290535401762
_cell_length_c       105.6816485
_cell_angle_alpha    117.46613478758536
_cell_angle_beta     90.0
_cell_angle_gamma    90.0

_space_group_name_H-M_alt    "P 1"
_space_group_IT_number       1

loop_
  _space_group_symop_operation_xyz
  'x, y, z'

loop_
  _atom_site_type_symbol
  _atom_site_label
  _atom_site_symmetry_multiplicity
  _atom_site_fract_x
  _atom_site_fract_y
  _atom_site_fract_z
  _atom_site_occupancy
  C   C1        1.0  0.16671486500000005  0.6853223099999999  0.5447336513220697  1.0000
  O   O1        1.0  0.17155441500000004  0.7784074599999999  0.5574071646068623  1.0000
  V   V1        1.0  0.479117795  0.6780271899999999  0.44259283539313776  1.0000
  V   V2        1.0  0.02912781500000003  0.17802718999999995  0.44259283539313765  1.0000
  V   V3        1.0  0.979117795  0.8219728099999999  0.4474529188373523  1.0000
  V   V4        1.0  0.529127815  0.3219728099999999  0.44745291883735233  1.0000
  Co  Co1       1.0  0.646942295  0.93906652  0.46828805985520316  1.0000
  Co  Co2       1.0  0.14694229500000003  0.5609334799999999  0.4555210255101481  1.0000
  Co  Co3       1.0  0.861303315  0.4390665199999999  0.46828805985520316  1.0000
  Co  Co4       1.0  0.36130331500000007  0.06093347999999995  0.4555210255101481  1.0000
  Si  Si1       1.0  0.771085835  0.6237850199999999  0.457643105105512  1.0000
  Si  Si2       1.0  0.27108583500000005  0.8762149799999999  0.46616598025983935  1.0000
  Si  Si3       1.0  0.23715977500000004  0.3762149799999999  0.46616598025983935  1.0000
  Si  Si4       1.0  0.7371597750000001  0.12378501999999995  0.45764310510551187  1.0000
  V   V5        1.0  0.479117795  0.6780271899999999  0.47635616990433244  1.0000
  V   V6        1.0  0.02912781500000003  0.17802718999999995  0.47635616990433244  1.0000
  V   V7        1.0  0.979117795  0.8219728099999999  0.481216253348547  1.0000
  V   V8        1.0  0.529127815  0.3219728099999999  0.4812162533485471  1.0000
  Co  Co5       1.0  0.646942295  0.93906652  0.5020513943663979  1.0000
  Co  Co6       1.0  0.14694229500000003  0.5609334799999999  0.48928436002134285  1.0000
  Co  Co7       1.0  0.861303315  0.4390665199999999  0.5020513943663979  1.0000
  Co  Co8       1.0  0.36130331500000007  0.06093347999999995  0.4892843600213428  1.0000
  Si  Si5       1.0  0.771085835  0.6237850199999999  0.4914064396167067  1.0000
  Si  Si6       1.0  0.27108583500000005  0.8762149799999999  0.4999293147710341  1.0000
  Si  Si7       1.0  0.23715977500000004  0.3762149799999999  0.49992931477103403  1.0000
  Si  Si8       1.0  0.7371597750000001  0.12378501999999995  0.49140643961670666  1.0000
  V   V9        1.0  0.483764515  0.6794569099999999  0.5102018363067328  1.0000
  V   V10       1.0  0.02088220500000003  0.17872550999999998  0.5102519917401491  1.0000
  V   V11       1.0  0.978577495  0.8085463899999998  0.5137406861921884  1.0000
  V   V12       1.0  0.5283589150000001  0.3109002999999999  0.5146269602177733  1.0000
  Co  Co9       1.0  0.6189774750000001  0.9068811899999999  0.5338537814198501  1.0000
  Co  Co10      1.0  0.15921487500000003  0.5772081699999999  0.5257728615616072  1.0000
  Co  Co11      1.0  0.866091995  0.4087793799999999  0.5333817092293814  1.0000
  Co  Co12      1.0  0.366491265  0.06179709999999996  0.5225784044408327  1.0000
  Si  Si9       1.0  0.7733096150000001  0.61773562  0.5252768410379699  1.0000
  Si  Si10      1.0  0.249608135  0.8917146699999999  0.5331082464778415  1.0000
  Si  Si11      1.0  0.22471047500000005  0.3480793299999999  0.5340651297648897  1.0000
  Si  Si12      1.0  0.741899165  0.11170648999999996  0.5260222848189753  1.0000
