data_image0
_chemical_formula_structural       COPt12W6
_chemical_formula_sum              "C1 O1 Pt12 W6"
_cell_length_a       4.845183676416231
_cell_length_b       7.419409571303206
_cell_length_c       98.7893971
_cell_angle_alpha    88.89050844918394
_cell_angle_beta     89.91038542966893
_cell_angle_gamma    84.02521251446738

_space_group_name_H-M_alt    "P 1"
_space_group_IT_number       1

loop_
  _space_group_symop_operation_xyz
  'x, y, z'

loop_
  _atom_site_type_symbol
  _atom_site_label
  _atom_site_symmetry_multiplicity
  _atom_site_fract_x
  _atom_site_fract_y
  _atom_site_fract_z
  _atom_site_occupancy
  C   C1        1.0  0.80236068  0.021807195000000005  0.5342851303910889  1.0000
  O   O1        1.0  0.91635613  0.976327505  0.544701946201033  1.0000
  Pt  Pt1       1.0  0.32379802  0.845864305  0.46854450372651535  1.0000
  Pt  Pt2       1.0  0.73288893  0.39131884499999997  0.4552980537989671  1.0000
  Pt  Pt3       1.0  0.37404492999999994  0.4782179449999999  0.4774728557837638  1.0000
  Pt  Pt4       1.0  0.7831358399999999  0.023672495000000016  0.4642264029419962  1.0000
  Pt  Pt5       1.0  0.5056162000000001  0.7549552149999998  0.4950374064958312  1.0000
  Pt  Pt6       1.0  0.9147071100000002  0.30040975499999995  0.481790956568283  1.0000
  Pt  Pt7       1.0  0.5690590799999999  0.37909815499999994  0.5033114580282624  1.0000
  Pt  Pt8       1.0  0.96495402  0.9327633949999999  0.4907193086255314  1.0000
  Pt  Pt9       1.0  0.7149368700000001  0.6573393649999998  0.5210935231571828  1.0000
  Pt  Pt10      1.0  0.13197462000000004  0.19516373499999998  0.5096667001247613  1.0000
  Pt  Pt11      1.0  0.74001089  0.30908944499999996  0.5294946375667855  1.0000
  Pt  Pt12      1.0  0.18610695  0.8305789849999999  0.5175235287036156  1.0000
  W   W1        1.0  0.8489214700000001  0.662041125  0.4730086797551396  1.0000
  W   W2        1.0  0.2580123800000001  0.20749566500000002  0.45976222982759135  1.0000
  W   W3        1.0  0.035045980000000025  0.5670152249999999  0.49918138558937714  1.0000
  W   W4        1.0  0.43983056  0.11658657500000001  0.4862551325969072  1.0000
  W   W5        1.0  0.22845125  0.488892415  0.523509955943891  1.0000
  W   W6        1.0  0.6603229800000001  0.009293334999999958  0.5139481312874037  1.0000
