data_image0
_chemical_formula_structural       CONi24Sb8
_chemical_formula_sum              "C1 O1 Ni24 Sb8"
_cell_length_a       7.077652254791513
_cell_length_b       8.283946493429124
_cell_length_c       99.45292063
_cell_angle_alpha    92.58339731465887
_cell_angle_beta     93.99385266037203
_cell_angle_gamma    97.11241878829274

_space_group_name_H-M_alt    "P 1"
_space_group_IT_number       1

loop_
  _space_group_symop_operation_xyz
  'x, y, z'

loop_
  _atom_site_type_symbol
  _atom_site_label
  _atom_site_symmetry_multiplicity
  _atom_site_fract_x
  _atom_site_fract_y
  _atom_site_fract_z
  _atom_site_occupancy
  C   C1        1.0  0.9695027249999999  0.875597145  0.5310865352026126  1.0000
  O   O1        1.0  0.972163855  0.830266255  0.5424614255244623  1.0000
  Ni  Ni1       1.0  0.06374586500000001  0.496732415  0.520724564599889  1.0000
  Ni  Ni2       1.0  0.5834202049999999  0.385539635  0.46689091854022396  1.0000
  Ni  Ni3       1.0  0.08342021500000002  0.760539635  0.4854002546935931  1.0000
  Ni  Ni4       1.0  0.5838463150000001  0.135165095  0.5030776539359969  1.0000
  Ni  Ni5       1.0  0.13564627500000004  0.05009453500000002  0.5236703891208141  1.0000
  Ni  Ni6       1.0  0.652729495  0.9375215950000001  0.46945665606436  1.0000
  Ni  Ni7       1.0  0.15272949500000002  0.31252159500000004  0.487965992217729  1.0000
  Ni  Ni8       1.0  0.655696745  0.685600925  0.5063511173987869  1.0000
  Ni  Ni9       1.0  0.699161295  0.405000595  0.5169308377550064  1.0000
  Ni  Ni10      1.0  0.202336805  0.287128505  0.46203351789573605  1.0000
  Ni  Ni11      1.0  0.7023368050000001  0.662128505  0.48054285404910513  1.0000
  Ni  Ni12      1.0  0.20736818500000004  0.031825755000000025  0.4989010562901678  1.0000
  Ni  Ni13      1.0  0.03381290500000002  0.03593272500000002  0.47431405670884796  1.0000
  Ni  Ni14      1.0  0.533812905  0.410932725  0.492823392862217  1.0000
  Ni  Ni15      1.0  0.027836145000000027  0.7781208350000001  0.5133667599456458  1.0000
  Ni  Ni16      1.0  0.5411638750000001  0.153706415  0.5264803847293112  1.0000
  Ni  Ni17      1.0  0.938764195  0.22070672500000005  0.5090270136072265  1.0000
  Ni  Ni18      1.0  0.45657968499999996  0.5849662449999999  0.5240562243770389  1.0000
  Ni  Ni19      1.0  0.9522053650000001  0.474727075  0.4712930517067086  1.0000
  Ni  Ni20      1.0  0.45220536499999997  0.849727075  0.4898023878600776  1.0000
  Ni  Ni21      1.0  0.283944345  0.848334155  0.4650545228978754  1.0000
  Ni  Ni22      1.0  0.783944345  0.22333415500000003  0.48356385905124444  1.0000
  Ni  Ni23      1.0  0.27816937500000005  0.6016755550000001  0.5017592887094274  1.0000
  Ni  Ni24      1.0  0.783368745  0.9681742449999999  0.5200982797403099  1.0000
  Sb  Sb1       1.0  0.9053680449999999  0.752000505  0.4602996639756772  1.0000
  Sb  Sb2       1.0  0.405368045  0.127000505  0.47880900012904615  1.0000
  Sb  Sb3       1.0  0.9026410650000001  0.502837435  0.49722645001476234  1.0000
  Sb  Sb4       1.0  0.40330689500000005  0.8687315150000001  0.5169875473994866  1.0000
  Sb  Sb5       1.0  0.31048175499999997  0.314929835  0.5136859527072372  1.0000
  Sb  Sb6       1.0  0.830781665  0.19606072500000002  0.45753857447553786  1.0000
  Sb  Sb7       1.0  0.33078166500000006  0.5710607249999999  0.47604791062890695  1.0000
  Sb  Sb8       1.0  0.830781665  0.9460607249999999  0.49455724678227597  1.0000
