data_image0
_chemical_formula_structural       COIr8W8Ir8W8
_chemical_formula_sum              "C1 O1 Ir16 W16"
_cell_length_a       7.393100187165562
_cell_length_b       5.2874375354258705
_cell_length_c       105.93173007
_cell_angle_alpha    109.1604930999
_cell_angle_beta     98.87951023245823
_cell_angle_gamma    66.6623558737231

_space_group_name_H-M_alt    "P 1"
_space_group_IT_number       1

loop_
  _space_group_symop_operation_xyz
  'x, y, z'

loop_
  _atom_site_type_symbol
  _atom_site_label
  _atom_site_symmetry_multiplicity
  _atom_site_fract_x
  _atom_site_fract_y
  _atom_site_fract_z
  _atom_site_occupancy
  C   C1        1.0  0.17229445999999998  0.659685495  0.5675135988521216  1.0000
  O   O1        1.0  0.14240025999999995  0.629677545  0.5773788159557904  1.0000
  Ir  Ir1       1.0  0.72471057  0.21197773499999997  0.5192214809095498  1.0000
  Ir  Ir2       1.0  0.47471056999999994  0.9619777349999998  0.5022616285375285  1.0000
  Ir  Ir3       1.0  0.97234608  0.4500517649999999  0.536198815497396  1.0000
  Ir  Ir4       1.0  0.21831399999999998  0.7237563749999999  0.5519465573963003  1.0000
  Ir  Ir5       1.0  0.77528943  0.411398875  0.4988303892209421  1.0000
  Ir  Ir6       1.0  0.5492165799999998  0.16955084500000006  0.5489872259719653  1.0000
  Ir  Ir7       1.0  0.025289429999999957  0.6613988749999999  0.5157902415929633  1.0000
  Ir  Ir8       1.0  0.2763005599999999  0.909544055  0.532443629432622  1.0000
  W   W1        1.0  0.10133395999999995  0.08535434499999998  0.5106314276181467  1.0000
  W   W2        1.0  0.85133396  0.8353543449999999  0.49367157524612537  1.0000
  W   W3        1.0  0.35586056999999993  0.329106195  0.5275668306669883  1.0000
  W   W4        1.0  0.5874569399999999  0.617764085  0.5435569254643184  1.0000
  W   W5        1.0  0.64866604  0.7880222649999999  0.5243802982763369  1.0000
  W   W6        1.0  0.3986660399999999  0.538022265  0.5074204459043157  1.0000
  W   W7        1.0  0.89370419  0.03892916500000001  0.5412028301156722  1.0000
  W   W8        1.0  0.14866603999999997  0.288022265  0.4904605935322945  1.0000
  Ir  Ir9       1.0  0.72471057  0.21197773499999997  0.4513820714214649  1.0000
  Ir  Ir10      1.0  0.47471056999999994  0.9619777349999998  0.43442221904944367  1.0000
  Ir  Ir11      1.0  0.97471057  0.4619777349999998  0.46834192379348605  1.0000
  Ir  Ir12      1.0  0.22471056999999994  0.7119777350000001  0.4853017761655073  1.0000
  Ir  Ir13      1.0  0.77528943  0.411398875  0.4309909797328573  1.0000
  Ir  Ir14      1.0  0.52528943  0.16139887500000002  0.48187053684892084  1.0000
  Ir  Ir15      1.0  0.025289429999999957  0.6613988749999999  0.4479508321048785  1.0000
  Ir  Ir16      1.0  0.27528942999999995  0.9113988749999999  0.4649106844768997  1.0000
  W   W9        1.0  0.10133395999999995  0.08535434499999998  0.4427920181300618  1.0000
  W   W10       1.0  0.85133396  0.8353543449999999  0.4258321657580405  1.0000
  W   W11       1.0  0.3513339599999999  0.335354345  0.459751870502083  1.0000
  W   W12       1.0  0.60133396  0.5853543449999999  0.47671172287410424  1.0000
  W   W13       1.0  0.64866604  0.7880222649999999  0.45654088878825205  1.0000
  W   W14       1.0  0.3986660399999999  0.538022265  0.4395810364162308  1.0000
  W   W15       1.0  0.89866604  0.038022265  0.4735007411602732  1.0000
  W   W16       1.0  0.14866603999999997  0.288022265  0.42262118404420956  1.0000
