data_image0
_chemical_formula_structural       COSi12Pt36
_chemical_formula_sum              "C1 O1 Si12 Pt36"
_cell_length_a       13.761593791397901
_cell_length_b       5.58587712
_cell_length_c       108.35939275999999
_cell_angle_alpha    90.0
_cell_angle_beta     87.63272420530895
_cell_angle_gamma    90.0

_space_group_name_H-M_alt    "P 1"
_space_group_IT_number       1

loop_
  _space_group_symop_operation_xyz
  'x, y, z'

loop_
  _atom_site_type_symbol
  _atom_site_label
  _atom_site_symmetry_multiplicity
  _atom_site_fract_x
  _atom_site_fract_y
  _atom_site_fract_z
  _atom_site_occupancy
  C   C1        1.0  0.11375252500000003  0.88503284  0.54338689344525  1.0000
  O   O1        1.0  0.13359221500000004  0.84134316  0.5534900339003138  1.0000
  Si  Si1       1.0  0.11438181500000003  0.49135319  0.523663806947846  1.0000
  Si  Si2       1.0  0.7729464149999999  0.49899081999999995  0.4959068641831355  1.0000
  Si  Si3       1.0  0.439613075  0.49899081999999995  0.4664067363765066  1.0000
  Si  Si4       1.0  0.386443495  0.0010091799999999696  0.5061529823233561  1.0000
  Si  Si5       1.0  0.05184197500000003  0.9989908200000001  0.4763390356845831  1.0000
  Si  Si6       1.0  0.7185086350000001  0.9989908200000001  0.4468389078779542  1.0000
  Si  Si7       1.0  0.27294641500000005  0.01286327999999997  0.45165667070318444  1.0000
  Si  Si8       1.0  0.9284859750000001  0.03321539999999997  0.511133617720732  1.0000
  Si  Si9       1.0  0.6062797449999999  0.01286327999999997  0.4811567985098133  1.0000
  Si  Si10      1.0  0.5605382350000001  0.5447418599999999  0.5211282142211972  1.0000
  Si  Si11      1.0  0.21850863500000003  0.51286328  0.4910891013579052  1.0000
  Si  Si12      1.0  0.885175305  0.51286328  0.46158897001126087  1.0000
  Pt  Pt1       1.0  0.37580244500000004  0.6974627400000001  0.48708104627304843  1.0000
  Pt  Pt2       1.0  0.04246911500000002  0.6974627400000001  0.45758091846641963  1.0000
  Pt  Pt3       1.0  0.7101559350000001  0.7413281500000001  0.5176170463289345  1.0000
  Pt  Pt4       1.0  0.11565260500000005  0.19746274  0.4556647222480257  1.0000
  Pt  Pt5       1.0  0.7729565949999999  0.23680285999999995  0.5154419085983424  1.0000
  Pt  Pt6       1.0  0.44898593500000006  0.19746274  0.48516485359467004  1.0000
  Pt  Pt7       1.0  0.42114094500000004  0.8121532699999999  0.524865320061353  1.0000
  Pt  Pt8       1.0  0.07408088500000003  0.8143913599999999  0.496235802421388  1.0000
  Pt  Pt9       1.0  0.7407475550000001  0.8143913599999999  0.4667356746147591  1.0000
  Pt  Pt10      1.0  0.4173741650000001  0.31439136  0.4465099660996862  1.0000
  Pt  Pt11      1.0  0.07868345500000003  0.293339  0.5046145446966774  1.0000
  Pt  Pt12      1.0  0.7507074949999999  0.31439136  0.47601009744633044  1.0000
  Pt  Pt13      1.0  0.28231927500000004  0.31439136  0.47041478792134783  1.0000
  Pt  Pt14      1.0  0.9575308849999999  0.33497435999999997  0.5273854500003922  1.0000
  Pt  Pt15      1.0  0.615652605  0.31439136  0.49991491572797675  1.0000
  Pt  Pt16      1.0  0.5424691150000001  0.8143913599999999  0.5018311119463705  1.0000
  Pt  Pt17      1.0  0.20913577500000002  0.8143913599999999  0.4723309841397418  1.0000
  Pt  Pt18      1.0  0.8848909049999999  0.82688626  0.5290601428228343  1.0000
  Pt  Pt19      1.0  0.24246154500000003  0.21308824999999998  0.5188431342298925  1.0000
  Pt  Pt20      1.0  0.9173741649999999  0.19746274  0.49076015957963715  1.0000
  Pt  Pt21      1.0  0.584040835  0.19746274  0.4612600317730083  1.0000
  Pt  Pt22      1.0  0.24361525500000003  0.70285579  0.5111589075913097  1.0000
  Pt  Pt23      1.0  0.907414215  0.6974627400000001  0.4814857402880813  1.0000
  Pt  Pt24      1.0  0.5740808850000001  0.6974627400000001  0.4519856089414371  1.0000
  Pt  Pt25      1.0  0.41035894500000003  0.9231072100000001  0.46381773189631975  1.0000
  Pt  Pt26      1.0  0.08796103500000003  0.9195357700000001  0.5266313523631688  1.0000
  Pt  Pt27      1.0  0.7436922749999999  0.9231072100000001  0.493317863242964  1.0000
  Pt  Pt28      1.0  0.4182157550000001  0.4118087999999999  0.5097730198516415  1.0000
  Pt  Pt29      1.0  0.08109610500000003  0.42310721  0.47892803662475436  1.0000
  Pt  Pt30      1.0  0.747762775  0.42310721  0.4494279088181256  1.0000
  Pt  Pt31      1.0  0.24369227500000004  0.5887468899999999  0.44906766976301304  1.0000
  Pt  Pt32      1.0  0.9082717849999999  0.5981748499999999  0.5072013508272522  1.0000
  Pt  Pt33      1.0  0.577025615  0.5887468899999999  0.47856779756964185  1.0000
  Pt  Pt34      1.0  0.24776277500000002  0.08874688999999998  0.4936781022980765  1.0000
  Pt  Pt35      1.0  0.914429435  0.08874688999999998  0.4641779744914477  1.0000
  Pt  Pt36      1.0  0.575155865  0.12191923999999997  0.5224275450424032  1.0000
