data_image0
_chemical_formula_structural       COAl9Ni6Al9Ni6
_chemical_formula_sum              "C1 O1 Al18 Ni12"
_cell_length_a       4.95814823
_cell_length_b       10.757404565628512
_cell_length_c       102.52733397
_cell_angle_alpha    79.10660537146593
_cell_angle_beta     90.0
_cell_angle_gamma    90.0

_space_group_name_H-M_alt    "P 1"
_space_group_IT_number       1

loop_
  _space_group_symop_operation_xyz
  'x, y, z'

loop_
  _atom_site_type_symbol
  _atom_site_label
  _atom_site_symmetry_multiplicity
  _atom_site_fract_x
  _atom_site_fract_y
  _atom_site_fract_z
  _atom_site_occupancy
  C   C1        1.0  0.17992752499999995  0.760133045  0.540419272545074  1.0000
  O   O1        1.0  0.17760490499999995  0.7072145249999999  0.5514807635474963  1.0000
  Al  Al1       1.0  0.07063455499999995  0.7202208750000001  0.4661445289870697  1.0000
  Al  Al2       1.0  0.07063455499999995  0.386887535  0.45292555958614533  1.0000
  Al  Al3       1.0  0.07063455499999995  0.05355420500000002  0.479363498387994  1.0000
  Al  Al4       1.0  0.423318755  0.6091097649999999  0.4485192364525039  1.0000
  Al  Al5       1.0  0.423318755  0.27577642500000005  0.4749571752543526  1.0000
  Al  Al6       1.0  0.423318755  0.942443095  0.4617382058534283  1.0000
  Al  Al7       1.0  0.7179503549999999  0.831331985  0.4837698215216355  1.0000
  Al  Al8       1.0  0.7179503549999999  0.497998645  0.4705508521207111  1.0000
  Al  Al9       1.0  0.7179503549999999  0.164665315  0.4573318827197868  1.0000
  Ni  Ni1       1.0  0.9238193749999998  0.6091097649999999  0.4485192364525039  1.0000
  Ni  Ni2       1.0  0.9238193749999998  0.27577642500000005  0.4749571752543526  1.0000
  Ni  Ni3       1.0  0.9238193749999998  0.942443095  0.4617382058534283  1.0000
  Ni  Ni4       1.0  0.21744973499999992  0.831331985  0.4837698215216355  1.0000
  Ni  Ni5       1.0  0.21744973499999992  0.497998645  0.4705508521207111  1.0000
  Ni  Ni6       1.0  0.21744973499999992  0.164665315  0.4573318827197868  1.0000
  Al  Al10      1.0  0.10067854499999994  0.7146239850000001  0.5063529822524506  1.0000
  Al  Al11      1.0  0.07063455499999995  0.386887535  0.49258246461636596  1.0000
  Al  Al12      1.0  0.07647168499999994  0.06165526500000002  0.5187997270182072  1.0000
  Al  Al13      1.0  0.423318755  0.6091097649999999  0.4881761414827246  1.0000
  Al  Al14      1.0  0.42850776499999993  0.27962839500000003  0.514336570780829  1.0000
  Al  Al15      1.0  0.41638628499999986  0.946445795  0.5006253989099839  1.0000
  Al  Al16      1.0  0.693287025  0.838120415  0.5217276597676365  1.0000
  Al  Al17      1.0  0.7193503649999999  0.4945234950000001  0.5098512574374721  1.0000
  Al  Al18      1.0  0.7205283149999999  0.16383728500000003  0.4973032511441351  1.0000
  Ni  Ni7       1.0  0.9238193749999998  0.6091097649999999  0.4881761414827246  1.0000
  Ni  Ni8       1.0  0.929365445  0.27821802500000004  0.5139246656122135  1.0000
  Ni  Ni9       1.0  0.9227482149999999  0.9400754649999999  0.5014789487534351  1.0000
  Ni  Ni10      1.0  0.19049305499999994  0.8383792250000001  0.5235287463194607  1.0000
  Ni  Ni11      1.0  0.22046569499999996  0.493431075  0.5095939285395596  1.0000
  Ni  Ni12      1.0  0.22276396499999992  0.16542542500000001  0.49640970175999416  1.0000
