data_image0
_chemical_formula_structural       V4Rh4V4Rh4V4Rh4CO
_chemical_formula_sum              "V12 Rh12 C1 O1"
_cell_length_a       6.71839166
_cell_length_b       6.484786136304837
_cell_length_c       100.85199084
_cell_angle_alpha    64.37312560291396
_cell_angle_beta     90.0
_cell_angle_gamma    90.0

_space_group_name_H-M_alt    "P 1"
_space_group_IT_number       1

loop_
  _space_group_symop_operation_xyz
  'x, y, z'

loop_
  _atom_site_type_symbol
  _atom_site_label
  _atom_site_symmetry_multiplicity
  _atom_site_fract_x
  _atom_site_fract_y
  _atom_site_fract_z
  _atom_site_occupancy
  V   V1        1.0  0.10367515499999999  0.7506417599999999  0.45999810751599685  1.0000
  V   V2        1.0  0.10367515499999999  0.34334976  0.4713250309799978  1.0000
  V   V3        1.0  0.603675155  0.25064176  0.47390327040426494  1.0000
  V   V4        1.0  0.603675155  0.8433497600000001  0.4574198680917297  1.0000
  Rh  Rh1       1.0  0.8178500250000001  0.5469957599999999  0.4795667306066977  1.0000
  Rh  Rh2       1.0  0.389500285  0.5469957599999999  0.4795667306066977  1.0000
  Rh  Rh3       1.0  0.31785002500000004  0.04699575999999997  0.46566156771842954  1.0000
  Rh  Rh4       1.0  0.8895002849999999  0.04699575999999997  0.46566156771842954  1.0000
  V   V5        1.0  0.10367515499999999  0.7506417599999999  0.48780843023339754  1.0000
  V   V6        1.0  0.10367515499999999  0.34334976  0.49913535369739837  1.0000
  V   V7        1.0  0.603675155  0.25064176  0.5017135931216655  1.0000
  V   V8        1.0  0.603675155  0.8433497600000001  0.4852301908091303  1.0000
  Rh  Rh5       1.0  0.8143125049999999  0.54873454  0.5072201686176032  1.0000
  Rh  Rh6       1.0  0.393041965  0.54873801  0.5072199728329292  1.0000
  Rh  Rh7       1.0  0.31785002500000004  0.04699575999999997  0.4934718904358302  1.0000
  Rh  Rh8       1.0  0.8895002849999999  0.04699575999999997  0.4934718904358302  1.0000
  V   V9        1.0  0.10367865500000001  0.76599137  0.5148136833126337  1.0000
  V   V10       1.0  0.103673795  0.35841905  0.5263635229235342  1.0000
  V   V11       1.0  0.603671765  0.2792076  0.5306108756388681  1.0000
  V   V12       1.0  0.603669565  0.83219582  0.5139302967457785  1.0000
  Rh  Rh9       1.0  0.833328045  0.53543107  0.5341465510646177  1.0000
  Rh  Rh10      1.0  0.374016805  0.53541945  0.5341471996013499  1.0000
  Rh  Rh11      1.0  0.31102319500000003  0.060661889999999975  0.520678382627604  1.0000
  Rh  Rh12      1.0  0.896326205  0.06065829999999997  0.5206785325252449  1.0000
  C   C1        1.0  0.603678205  0.9472116300000001  0.5294516315256396  1.0000
  O   O1        1.0  0.603672355  0.9530042400000001  0.5425801319082703  1.0000
