data_image0
_chemical_formula_structural       COIn5Pt15In5Pt15
_chemical_formula_sum              "C1 O1 In10 Pt30"
_cell_length_a       9.11058801956357
_cell_length_b       5.76204179
_cell_length_c       105.28515566
_cell_angle_alpha    90.0
_cell_angle_beta     104.96321742292356
_cell_angle_gamma    71.56505115405083

_space_group_name_H-M_alt    "P 1"
_space_group_IT_number       1

loop_
  _space_group_symop_operation_xyz
  'x, y, z'

loop_
  _atom_site_type_symbol
  _atom_site_label
  _atom_site_symmetry_multiplicity
  _atom_site_fract_x
  _atom_site_fract_y
  _atom_site_fract_z
  _atom_site_occupancy
  C   C1        1.0  0.24354953999999993  0.85402697  0.5592624749769104  1.0000
  O   O1        1.0  0.23783719999999997  0.8569194699999998  0.570568464262047  1.0000
  In  In1       1.0  0.4427999799999999  0.25463164999999993  0.5512892816017417  1.0000
  In  In2       1.0  0.85734285  0.0472660899999999  0.5370585984475127  1.0000
  In  In3       1.0  0.04999999999999995  0.4506653999999999  0.49645932410718374  1.0000
  In  In4       1.0  0.24999999999999994  0.8506653999999999  0.5232704394548762  1.0000
  In  In5       1.0  0.65  0.6506654  0.50986488178103  1.0000
  Pt  Pt1       1.0  0.5444360299999998  0.45446284  0.5290955296197771  1.0000
  Pt  Pt2       1.0  0.9500000000000001  0.25066539999999987  0.516567660617953  1.0000
  Pt  Pt3       1.0  0.15370326999999992  0.64921858  0.5440556795462179  1.0000
  Pt  Pt4       1.0  0.35  0.050665400000000006  0.5031621029441068  1.0000
  Pt  Pt5       1.0  0.72201142  0.8610608799999997  0.5541717881808346  1.0000
  Pt  Pt6       1.0  0.54442027  0.95273391  0.5290910856774081  1.0000
  Pt  Pt7       1.0  0.9500000000000001  0.7506653999999998  0.516567660617953  1.0000
  Pt  Pt8       1.0  0.15371055999999994  0.14911856  0.5440570301561536  1.0000
  Pt  Pt9       1.0  0.35  0.5506654  0.5031621029441068  1.0000
  Pt  Pt10      1.0  0.72199078  0.36880672999999986  0.5541811754225957  1.0000
  Pt  Pt11      1.0  0.24999999999999994  0.3506653999999999  0.5232704394548762  1.0000
  Pt  Pt12      1.0  0.65  0.1506653999999999  0.50986488178103  1.0000
  Pt  Pt13      1.0  0.861938  0.5449052299999998  0.5372785937031087  1.0000
  Pt  Pt14      1.0  0.04999999999999995  0.9506654000000001  0.49645932410718374  1.0000
  Pt  Pt15      1.0  0.44046395999999993  0.7558631  0.5512983940295705  1.0000
  In  In6       1.0  0.44999999999999996  0.25066539999999987  0.48305376643333753  1.0000
  In  In7       1.0  0.85  0.050665399999999965  0.4696482087594915  1.0000
  In  In8       1.0  0.04999999999999995  0.4506653999999999  0.42943153573795295  1.0000
  In  In9       1.0  0.24999999999999994  0.8506653999999999  0.45624265108564527  1.0000
  In  In10      1.0  0.65  0.6506654  0.4428370934117991  1.0000
  Pt  Pt16      1.0  0.55  0.45066539999999994  0.4629454299225684  1.0000
  Pt  Pt17      1.0  0.9500000000000001  0.25066539999999987  0.4495398722487222  1.0000
  Pt  Pt18      1.0  0.14999999999999994  0.6506654  0.47635098759641453  1.0000
  Pt  Pt19      1.0  0.35  0.050665400000000006  0.43613431457487606  1.0000
  Pt  Pt20      1.0  0.75  0.8506653999999999  0.4897565452702607  1.0000
  Pt  Pt21      1.0  0.55  0.9506654000000001  0.4629454299225684  1.0000
  Pt  Pt22      1.0  0.9500000000000001  0.7506653999999998  0.4495398722487222  1.0000
  Pt  Pt23      1.0  0.14999999999999994  0.15066540000000003  0.47635098759641453  1.0000
  Pt  Pt24      1.0  0.35  0.5506654  0.43613431457487606  1.0000
  Pt  Pt25      1.0  0.75  0.35066539999999985  0.4897565452702607  1.0000
  Pt  Pt26      1.0  0.24999999999999994  0.3506653999999999  0.45624265108564527  1.0000
  Pt  Pt27      1.0  0.65  0.1506653999999999  0.4428370934117991  1.0000
  Pt  Pt28      1.0  0.85  0.5506654  0.4696482087594915  1.0000
  Pt  Pt29      1.0  0.04999999999999995  0.9506654000000001  0.42943153573795295  1.0000
  Pt  Pt30      1.0  0.44999999999999996  0.7506653999999998  0.48305376643333753  1.0000
