data_image0
_chemical_formula_structural       COAl4Co8Si8Al4Co8Si8
_chemical_formula_sum              "C1 O1 Al8 Co16 Si16"
_cell_length_a       6.84386834
_cell_length_b       6.106610255179175
_cell_length_c       106.63966156000001
_cell_angle_alpha    80.63977007583436
_cell_angle_beta     90.0
_cell_angle_gamma    90.0

_space_group_name_H-M_alt    "P 1"
_space_group_IT_number       1

loop_
  _space_group_symop_operation_xyz
  'x, y, z'

loop_
  _atom_site_type_symbol
  _atom_site_label
  _atom_site_symmetry_multiplicity
  _atom_site_fract_x
  _atom_site_fract_y
  _atom_site_fract_z
  _atom_site_occupancy
  C   C1        1.0  0.42731787000000004  0.147880865  0.5569658629567042  1.0000
  O   O1        1.0  0.44933608  0.180585065  0.5673970125528598  1.0000
  Al  Al1       1.0  0.07971633999999998  0.514243745  0.45157739666091395  1.0000
  Al  Al2       1.0  0.07971633999999998  0.014243745000000013  0.4802093833870392  1.0000
  Al  Al3       1.0  0.57971634  0.26424374500000003  0.46589339002397656  1.0000
  Al  Al4       1.0  0.57971634  0.7642437450000001  0.43726140673368946  1.0000
  Co  Co1       1.0  0.24638300999999999  0.6828938550000001  0.43260298744714026  1.0000
  Co  Co2       1.0  0.24638300999999999  0.182893855  0.46123497417326553  1.0000
  Co  Co3       1.0  0.7463830100000001  0.43289385500000005  0.44691898081020287  1.0000
  Co  Co4       1.0  0.7463830100000001  0.9328938550000001  0.47555096410049  1.0000
  Co  Co5       1.0  0.41304967  0.09559363500000001  0.48486779923775025  1.0000
  Co  Co6       1.0  0.41304967  0.5955936350000001  0.4562358159474631  1.0000
  Co  Co7       1.0  0.9130496699999999  0.8455936350000001  0.44191982258440043  1.0000
  Co  Co8       1.0  0.9130496699999999  0.345593635  0.4705518058746876  1.0000
  Si  Si1       1.0  0.41304967  0.34031449500000005  0.4416175169304947  1.0000
  Si  Si2       1.0  0.41304967  0.8403144950000001  0.47024950365662  1.0000
  Si  Si3       1.0  0.9130496699999999  0.09031449500000004  0.4559335102935574  1.0000
  Si  Si4       1.0  0.9130496699999999  0.590314495  0.48456549358384454  1.0000
  Si  Si5       1.0  0.24638300999999999  0.438172995  0.4758532697543958  1.0000
  Si  Si6       1.0  0.24638300999999999  0.9381729950000001  0.44722128646410864  1.0000
  Si  Si7       1.0  0.7463830100000001  0.18817299500000004  0.432905293101046  1.0000
  Si  Si8       1.0  0.7463830100000001  0.6881729950000001  0.46153727639133313  1.0000
  Al  Al5       1.0  0.07971633999999998  0.514243745  0.5088413666773264  1.0000
  Al  Al6       1.0  0.0767643  0.9857562550000001  0.5386533061140257  1.0000
  Al  Al7       1.0  0.5879020300000001  0.27506335499999995  0.523950468299813  1.0000
  Al  Al8       1.0  0.57971634  0.7642437450000001  0.4945253733142637  1.0000
  Co  Co9       1.0  0.24638300999999999  0.6828938550000001  0.48986695746355263  1.0000
  Co  Co10      1.0  0.24694780999999996  0.18248424500000002  0.518251649740108  1.0000
  Co  Co11      1.0  0.7463830100000001  0.43289385500000005  0.5041829508266154  1.0000
  Co  Co12      1.0  0.74534122  0.9290419750000001  0.5324715805048305  1.0000
  Co  Co13      1.0  0.38592732  0.120853815  0.5410747989336949  1.0000
  Co  Co14      1.0  0.41384285  0.598222035  0.5136033283818295  1.0000
  Co  Co15      1.0  0.9130496699999999  0.8455936350000001  0.4991837926008128  1.0000
  Co  Co16      1.0  0.9232357000000001  0.337175745  0.5281682035516791  1.0000
  Si  Si9       1.0  0.41304967  0.34031449500000005  0.4988814869469071  1.0000
  Si  Si10      1.0  0.41735380000000005  0.8533094250000001  0.5275339890625201  1.0000
  Si  Si11      1.0  0.9147744000000001  0.09144950500000001  0.5131971951354047  1.0000
  Si  Si12      1.0  0.8958425  0.6072641550000001  0.5394911592934463  1.0000
  Si  Si13      1.0  0.242902  0.452046105  0.5326918898817096  1.0000
  Si  Si14      1.0  0.24638300999999999  0.9381729950000001  0.504485253044683  1.0000
  Si  Si15      1.0  0.7463830100000001  0.18817299500000004  0.4901692631174583  1.0000
  Si  Si16      1.0  0.74371668  0.696063985  0.5180715774635958  1.0000
