data_image0
_chemical_formula_structural       COGa12Pt20
_chemical_formula_sum              "C1 O1 Ga12 Pt20"
_cell_length_a       11.843935333143914
_cell_length_b       5.572155369656541
_cell_length_c       100.20380159
_cell_angle_alpha    91.61883997284832
_cell_angle_beta     91.8604185584436
_cell_angle_gamma    85.86868686024334

_space_group_name_H-M_alt    "P 1"
_space_group_IT_number       1

loop_
  _space_group_symop_operation_xyz
  'x, y, z'

loop_
  _atom_site_type_symbol
  _atom_site_label
  _atom_site_symmetry_multiplicity
  _atom_site_fract_x
  _atom_site_fract_y
  _atom_site_fract_z
  _atom_site_occupancy
  C   C1        1.0  0.3473303750000001  0.8767023199999999  0.5349647931250221  1.0000
  O   O1        1.0  0.3657742950000001  0.8835755300000002  0.5464683155207606  1.0000
  Ga  Ga1       1.0  0.014403155000000053  0.10531592000000009  0.4629511754038402  1.0000
  Ga  Ga2       1.0  0.576903155  0.10531592000000006  0.48179015725304175  1.0000
  Ga  Ga3       1.0  0.389518395  0.8198650300000002  0.46832877935099876  1.0000
  Ga  Ga4       1.0  0.9520183950000002  0.8198650300000002  0.4871677612002003  1.0000
  Ga  Ga5       1.0  0.639287925  0.3907668100000001  0.4575735714566817  1.0000
  Ga  Ga6       1.0  0.20178792500000006  0.3907668100000001  0.4764125533058831  1.0000
  Ga  Ga7       1.0  0.14609256500000006  0.09629910000000005  0.5000699438646912  1.0000
  Ga  Ga8       1.0  0.7074864550000001  0.11977498000000011  0.5199915703512767  1.0000
  Ga  Ga9       1.0  0.5210866450000001  0.7965558899999999  0.5072829469218973  1.0000
  Ga  Ga10      1.0  0.06121753500000005  0.8707213300000001  0.5237527745845884  1.0000
  Ga  Ga11      1.0  0.767275475  0.39191457  0.4941572676194588  1.0000
  Ga  Ga12      1.0  0.31898447500000005  0.38265840999999995  0.5140476786666796  1.0000
  Pt  Pt1       1.0  0.7956531550000001  0.6053159200000002  0.472370666328441  1.0000
  Pt  Pt2       1.0  0.23315315500000003  0.6053159200000001  0.45353168447923947  1.0000
  Pt  Pt3       1.0  0.7956531550000001  0.1053159200000001  0.47237066632844094  1.0000
  Pt  Pt4       1.0  0.23315315500000003  0.10531592000000009  0.4535316844792394  1.0000
  Pt  Pt5       1.0  0.576903155  0.60531592  0.48179015725304175  1.0000
  Pt  Pt6       1.0  0.014403155000000053  0.60531592  0.4629511754038402  1.0000
  Pt  Pt7       1.0  0.985596845  0.3140160700000001  0.4857218557792072  1.0000
  Pt  Pt8       1.0  0.4230968450000001  0.31401607000000015  0.46688287393000566  1.0000
  Pt  Pt9       1.0  0.6057094750000002  0.8966157700000001  0.4590194768776747  1.0000
  Pt  Pt10      1.0  0.16820947500000002  0.8966157699999999  0.4778584587268762  1.0000
  Pt  Pt11      1.0  0.920185005  0.6302873200000002  0.5106117648722804  1.0000
  Pt  Pt12      1.0  0.3581531550000001  0.60531592  0.49120964817764246  1.0000
  Pt  Pt13      1.0  0.903532545  0.13415494000000006  0.5104576288441458  1.0000
  Pt  Pt14      1.0  0.3581531550000001  0.1053159200000001  0.49120964817764246  1.0000
  Pt  Pt15      1.0  0.6983705850000002  0.57812228  0.5164784709875635  1.0000
  Pt  Pt16      1.0  0.13729933500000005  0.6280295400000001  0.5004454484793837  1.0000
  Pt  Pt17      1.0  0.10429432500000005  0.31818796000000005  0.5206895018796405  1.0000
  Pt  Pt18      1.0  0.5291547450000001  0.2838985200000001  0.5064176770069191  1.0000
  Pt  Pt19      1.0  0.729072665  0.9037009000000001  0.4965784837090892  1.0000
  Pt  Pt20      1.0  0.317678695  0.8677638400000001  0.5164085979574441  1.0000
