data_image0
_chemical_formula_structural       COAl16Cu8
_chemical_formula_sum              "C1 O1 Al16 Cu8"
_cell_length_a       4.974408548678627
_cell_length_b       7.8305834261480545
_cell_length_c       108.34945389
_cell_angle_alpha    86.3138356446055
_cell_angle_beta     87.24261034805855
_cell_angle_gamma    79.64451612553613

_space_group_name_H-M_alt    "P 1"
_space_group_IT_number       1

loop_
  _space_group_symop_operation_xyz
  'x, y, z'

loop_
  _atom_site_type_symbol
  _atom_site_label
  _atom_site_symmetry_multiplicity
  _atom_site_fract_x
  _atom_site_fract_y
  _atom_site_fract_z
  _atom_site_occupancy
  C   C1        1.0  0.6981923900000001  0.860535545  0.5396524397342036  1.0000
  O   O1        1.0  0.6953319499999999  0.815128485  0.5501448607299664  1.0000
  Al  Al1       1.0  0.09414279  0.714008645  0.47402029785851785  1.0000
  Al  Al2       1.0  0.71914279  0.276508645  0.4518989046989515  1.0000
  Al  Al3       1.0  0.7930668000000001  0.5743806549999999  0.5185151866529428  1.0000
  Al  Al4       1.0  0.46914279000000003  0.15150864500000003  0.49614169101808425  1.0000
  Al  Al5       1.0  0.021343079999999987  0.892196185  0.49864326664214065  1.0000
  Al  Al6       1.0  0.6430597400000001  0.455855815  0.4769059291832075  1.0000
  Al  Al7       1.0  0.26805974  0.018355815000000004  0.4547845360236412  1.0000
  Al  Al8       1.0  0.36438192999999997  0.33294898500000003  0.5208184944241002  1.0000
  Al  Al9       1.0  0.35522901000000007  0.5480805150000001  0.49952930453577365  1.0000
  Al  Al10      1.0  0.9786569199999999  0.11007135500000001  0.478107832255776  1.0000
  Al  Al11      1.0  0.60365692  0.672571355  0.4559864390962096  1.0000
  Al  Al12      1.0  0.72188574  0.981644185  0.5224189719100604  1.0000
  Al  Al13      1.0  0.9062562499999999  0.28592663500000004  0.5024526979634425  1.0000
  Al  Al14      1.0  0.52757387  0.851918525  0.48099346358046574  1.0000
  Al  Al15      1.0  0.15257387000000006  0.414418525  0.45887207042089945  1.0000
  Al  Al16      1.0  0.23882968000000002  0.7171100349999999  0.5221744508786318  1.0000
  Cu  Cu1       1.0  0.15460833  0.39233858499999996  0.4830372290093834  1.0000
  Cu  Cu2       1.0  0.7796083300000001  0.954838585  0.460915835849817  1.0000
  Cu  Cu3       1.0  0.8631225099999998  0.269909245  0.5259663054257849  1.0000
  Cu  Cu4       1.0  0.5334001600000001  0.834438585  0.5051864137176041  1.0000
  Cu  Cu5       1.0  0.84210833  0.6110885850000001  0.4940979255891666  1.0000
  Cu  Cu6       1.0  0.46710832999999996  0.17358858500000002  0.47197653242960025  1.0000
  Cu  Cu7       1.0  0.09210833000000006  0.736088585  0.4498551392700338  1.0000
  Cu  Cu8       1.0  0.20458161  0.047320965000000006  0.5164883821385886  1.0000
