data_image0
_chemical_formula_structural       CONi6Sb6Ni6Sb6
_chemical_formula_sum              "C1 O1 Ni12 Sb12"
_cell_length_a       5.19909848
_cell_length_b       10.598864208861386
_cell_length_c       37.95204698
_cell_angle_alpha    100.8933946348215
_cell_angle_beta     90.0
_cell_angle_gamma    90.0

_space_group_name_H-M_alt    "P 1"
_space_group_IT_number       1

loop_
  _space_group_symop_operation_xyz
  'x, y, z'

loop_
  _atom_site_type_symbol
  _atom_site_label
  _atom_site_symmetry_multiplicity
  _atom_site_fract_x
  _atom_site_fract_y
  _atom_site_fract_z
  _atom_site_occupancy
  C   C1        1.0  0.597138175  0.40607857999999997  0.5972973407945693  1.0000
  O   O1        1.0  0.5847912749999999  0.41743094000000003  0.6284713675346074  1.0000
  Ni  Ni1       1.0  0.11524292499999998  0.71882839  0.5096218599012715  1.0000
  Ni  Ni2       1.0  0.11576743499999997  0.38890337  0.5428348540625628  1.0000
  Ni  Ni3       1.0  0.11262548499999998  0.052768340000000025  0.47708273155288256  1.0000
  Ni  Ni4       1.0  0.617669335  0.72230956  0.5131939963896065  1.0000
  Ni  Ni5       1.0  0.616327765  0.38970855  0.5498515501329119  1.0000
  Ni  Ni6       1.0  0.612625485  0.052768340000000025  0.47708273155288256  1.0000
  Sb  Sb1       1.0  0.887374515  0.61656344  0.5595078333369777  1.0000
  Sb  Sb2       1.0  0.854038955  0.27589059  0.4905115013696796  1.0000
  Sb  Sb3       1.0  0.865305625  0.9472316599999999  0.528408378456863  1.0000
  Sb  Sb4       1.0  0.34372768499999995  0.83740059  0.5664113838574327  1.0000
  Sb  Sb5       1.0  0.37441196499999996  0.49892883  0.5014109500868303  1.0000
  Sb  Sb6       1.0  0.357669095  0.16452855000000002  0.5355352054520359  1.0000
  Ni  Ni7       1.0  0.11262548499999998  0.71943501  0.4067133265316706  1.0000
  Ni  Ni8       1.0  0.11262548499999998  0.38610167  0.4418980290422766  1.0000
  Ni  Ni9       1.0  0.11262548499999998  0.052768340000000025  0.37152863246539247  1.0000
  Ni  Ni10      1.0  0.612625485  0.71943501  0.4067133265316706  1.0000
  Ni  Ni11      1.0  0.612625485  0.38610167  0.4418980290422766  1.0000
  Ni  Ni12      1.0  0.612625485  0.052768340000000025  0.37152863246539247  1.0000
  Sb  Sb7       1.0  0.8626254849999999  0.6083238999999999  0.4536262632124786  1.0000
  Sb  Sb8       1.0  0.8626254849999999  0.27499056  0.38325686663559444  1.0000
  Sb  Sb9       1.0  0.8626254849999999  0.9416572299999999  0.41844156070187266  1.0000
  Sb  Sb10      1.0  0.36262548499999997  0.83054612  0.4653544973826806  1.0000
  Sb  Sb11      1.0  0.36262548499999997  0.49721277999999997  0.39498509236146856  1.0000
  Sb  Sb12      1.0  0.36262548499999997  0.16387945  0.4301697948720745  1.0000
