data_image0
_chemical_formula_structural       COPt24Si10
_chemical_formula_sum              "C1 O1 Pt24 Si10"
_cell_length_a       7.3679147487228835
_cell_length_b       7.367914744606751
_cell_length_c       31.250127650000003
_cell_angle_alpha    90.25948246199957
_cell_angle_beta     90.25948246185462
_cell_angle_gamma    81.68828938504335

_space_group_name_H-M_alt    "P 1"
_space_group_IT_number       1

loop_
  _space_group_symop_operation_xyz
  'x, y, z'

loop_
  _atom_site_type_symbol
  _atom_site_label
  _atom_site_symmetry_multiplicity
  _atom_site_fract_x
  _atom_site_fract_y
  _atom_site_fract_z
  _atom_site_occupancy
  C   C1        1.0  0.8510411449999999  0.31535254000000007  0.6547336160178844  1.0000
  O   O1        1.0  0.8823296949999999  0.29265616  0.6916961064710071  1.0000
  Pt  Pt1       1.0  0.7866172249999998  0.00893246000000002  0.5861850122392558  1.0000
  Pt  Pt2       1.0  0.052920894999999864  0.28545947000000005  0.43167828354716564  1.0000
  Pt  Pt3       1.0  0.767741125  0.51624148  0.5286131794628377  1.0000
  Pt  Pt4       1.0  0.03456988499999986  0.7803397400000002  0.37758670828986535  1.0000
  Pt  Pt5       1.0  0.04399097499999987  0.6793808000000001  0.5760898995312727  1.0000
  Pt  Pt6       1.0  0.30950477499999984  0.9496784900000002  0.4234946415344063  1.0000
  Pt  Pt7       1.0  0.18445159499999988  0.8246253100000002  0.5010270410214459  1.0000
  Pt  Pt8       1.0  0.4344515949999998  0.07462531000000004  0.3460281847607739  1.0000
  Pt  Pt9       1.0  0.656439305  0.39665288000000004  0.6104294869388439  1.0000
  Pt  Pt10      1.0  0.9095167049999998  0.65528656  0.455119107776905  1.0000
  Pt  Pt11      1.0  0.17786771499999984  0.41040629000000006  0.35421182677353347  1.0000
  Pt  Pt12      1.0  0.9278677149999998  0.16040629000000003  0.5092106830342054  1.0000
  Pt  Pt13      1.0  0.9029328249999999  0.24106754000000005  0.3083038935289927  1.0000
  Pt  Pt14      1.0  0.6529328249999998  0.9910675400000001  0.4633027497896645  1.0000
  Pt  Pt15      1.0  0.7779860049999999  0.11612072000000002  0.38577035030262474  1.0000
  Pt  Pt16      1.0  0.5208822949999999  0.84477766  0.5433483751315658  1.0000
  Pt  Pt17      1.0  0.5623385149999998  0.43987294  0.34529678855775975  1.0000
  Pt  Pt18      1.0  0.3123385149999998  0.18987294000000005  0.5002956448184316  1.0000
  Pt  Pt19      1.0  0.3064411449999998  0.5614358300000001  0.43474822809399005  1.0000
  Pt  Pt20      1.0  0.018781204999999895  0.29230747  0.6013919996266243  1.0000
  Pt  Pt21      1.0  0.3728829949999999  0.15730483000000003  0.5895625737161692  1.0000
  Pt  Pt22      1.0  0.6559964549999999  0.3793102000000001  0.45204916323008076  1.0000
  Pt  Pt23      1.0  0.3868933549999998  0.50859676  0.5507262958897567  1.0000
  Pt  Pt24      1.0  0.6500990849999999  0.75087309  0.3865017589055476  1.0000
  Si  Si1       1.0  0.8006174849999997  0.9450272700000001  0.31878508978805836  1.0000
  Si  Si2       1.0  0.5506174849999997  0.69502727  0.4737839460487302  1.0000
  Si  Si3       1.0  0.6072423149999999  0.21351074000000006  0.5350680758320422  1.0000
  Si  Si4       1.0  0.8604749349999999  0.45755856  0.3779314877457315  1.0000
  Si  Si5       1.0  0.3519626649999999  0.7331874700000002  0.3538670473176672  1.0000
  Si  Si6       1.0  0.10196266499999988  0.48318747000000006  0.5088659035783392  1.0000
  Si  Si7       1.0  0.4118201149999999  0.24571876000000004  0.413013457675249  1.0000
  Si  Si8       1.0  0.12679610499999988  0.98734943  0.5699910045351277  1.0000
  Si  Si9       1.0  0.7282078750000001  0.6967170800000001  0.596190634807588  1.0000
  Si  Si10      1.0  0.9812187949999999  0.9703730100000001  0.44339870186198954  1.0000
