data_image0
_chemical_formula_structural       COIn32Ir16
_chemical_formula_sum              "C1 O1 In32 Ir16"
_cell_length_a       10.08847858
_cell_length_b       11.894527177179787
_cell_length_c       103.14821891
_cell_angle_alpha    92.98275228377005
_cell_angle_beta     90.0
_cell_angle_gamma    115.09248793854395

_space_group_name_H-M_alt    "P 1"
_space_group_IT_number       1

loop_
  _space_group_symop_operation_xyz
  'x, y, z'

loop_
  _atom_site_type_symbol
  _atom_site_label
  _atom_site_symmetry_multiplicity
  _atom_site_fract_x
  _atom_site_fract_y
  _atom_site_fract_z
  _atom_site_occupancy
  C   C1        1.0  0.931395795  0.393382805  0.548732137698321  1.0000
  O   O1        1.0  0.8809550449999999  0.3795665749999999  0.5589388835260287  1.0000
  In  In1       1.0  0.307653985  0.40108142499999994  0.47188076410235164  1.0000
  In  In2       1.0  0.04792880500000002  0.25822428500000005  0.4489261275627312  1.0000
  In  In3       1.0  0.15507165499999992  0.9725100049999998  0.4833580839789865  1.0000
  In  In4       1.0  0.27193969500000004  0.829652855  0.460403447439366  1.0000
  In  In5       1.0  0.5604043949999999  0.09487887500000002  0.47549306967657734  1.0000
  In  In6       1.0  0.295178385  0.564426845  0.44531382198850544  1.0000
  In  In7       1.0  0.902321245  0.27871255500000003  0.4797457784047608  1.0000
  In  In8       1.0  0.024690114999999988  0.523450305  0.46401575301359166  1.0000
  In  In9       1.0  0.7362254149999999  0.25822428500000005  0.4489261275627312  1.0000
  In  In10      1.0  0.6193573750000001  0.40108142499999994  0.47188076410235164  1.0000
  In  In11      1.0  0.5836430850000001  0.829652855  0.460403447439366  1.0000
  In  In12      1.0  0.8433682649999998  0.9725100049999998  0.4833580839789865  1.0000
  In  In13      1.0  0.9889758249999999  0.9520217249999999  0.4525384331369569  1.0000
  In  In14      1.0  0.866606955  0.707283985  0.46826845852812604  1.0000
  In  In15      1.0  0.3308926750000001  0.135855415  0.4567911418651403  1.0000
  In  In16      1.0  0.453261545  0.38059315499999996  0.4410611164739712  1.0000
  In  In17      1.0  0.45244210499999993  0.702697395  0.5199985822302828  1.0000
  In  In18      1.0  0.190785945  0.543938575  0.4948354006419722  1.0000
  In  In19      1.0  0.3195991650000001  0.262537375  0.5300957972529948  1.0000
  In  In20      1.0  0.426087045  0.12512609500000002  0.5053829314696556  1.0000
  In  In21      1.0  0.7233799649999999  0.401078165  0.521194062938825  1.0000
  In  In22      1.0  0.438035525  0.8501411249999999  0.49122309506774636  1.0000
  In  In23      1.0  0.083105325  0.560345395  0.5255131270952734  1.0000
  In  In24      1.0  0.14870379499999994  0.802668175  0.5097286046413129  1.0000
  In  In25      1.0  0.8790825549999999  0.543938575  0.4948354006419722  1.0000
  In  In26      1.0  0.7562818049999999  0.6909340549999999  0.5173500179085933  1.0000
  In  In27      1.0  0.7249182149999999  0.10987247500000002  0.5095523841885375  1.0000
  In  In28      1.0  0.01102417499999998  0.26600098499999997  0.5293182419793407  1.0000
  In  In29      1.0  0.13183297500000005  0.23773601500000002  0.498447709429847  1.0000
  In  In30      1.0  0.9818374249999998  0.9833156149999999  0.5159233376371074  1.0000
  In  In31      1.0  0.477846055  0.42099181499999994  0.5007179147653505  1.0000
  In  In32      1.0  0.596118685  0.6663074449999999  0.48697038955321215  1.0000
  Ir  Ir1       1.0  0.369989915  0.21404990499999998  0.4839018398475103  1.0000
  Ir  Ir2       1.0  0.128450015  0.730970105  0.4828143281104626  1.0000
  Ir  Ir3       1.0  0.092735725  0.15954152500000002  0.4713370082338278  1.0000
  Ir  Ir4       1.0  0.334275625  0.642621325  0.47242451997087553  1.0000
  Ir  Ir5       1.0  0.7985613449999999  0.07119275500000001  0.46094720330788985  1.0000
  Ir  Ir6       1.0  0.557021445  0.5881129549999999  0.45985969157084217  1.0000
  Ir  Ir7       1.0  0.521307155  0.01668438500000001  0.44838237169420725  1.0000
  Ir  Ir8       1.0  0.7628470549999999  0.49976418499999997  0.4494698834312551  1.0000
  Ir  Ir9       1.0  0.523900625  0.49750853500000003  0.5252164847804317  1.0000
  Ir  Ir10      1.0  0.256295295  0.022575275000000013  0.5240672838337282  1.0000
  Ir  Ir11      1.0  0.255998645  0.445968095  0.5165268191756383  1.0000
  Ir  Ir12      1.0  0.44120723499999986  0.9258952149999999  0.516187685991341  1.0000
  Ir  Ir13      1.0  0.9363704049999998  0.35163556500000004  0.5064435385357698  1.0000
  Ir  Ir14      1.0  0.6908081250000001  0.8711988549999999  0.5056002416408442  1.0000
  Ir  Ir15      1.0  0.664164295  0.30239867500000006  0.4942916447734482  1.0000
  Ir  Ir16      1.0  0.9057041949999999  0.785478475  0.4953791565104961  1.0000
