data_image0
_chemical_formula_structural       COPd4Sn16
_chemical_formula_sum              "C1 O1 Pd4 Sn16"
_cell_length_a       6.5732851
_cell_length_b       6.731076877751779
_cell_length_c       104.54123523999999
_cell_angle_alpha    91.24059351048554
_cell_angle_beta     90.0
_cell_angle_gamma    90.0

_space_group_name_H-M_alt    "P 1"
_space_group_IT_number       1

loop_
  _space_group_symop_operation_xyz
  'x, y, z'

loop_
  _atom_site_type_symbol
  _atom_site_label
  _atom_site_symmetry_multiplicity
  _atom_site_fract_x
  _atom_site_fract_y
  _atom_site_fract_z
  _atom_site_occupancy
  C   C1        1.0  0.68293152  0.75968879  0.550789348936044  1.0000
  O   O1        1.0  0.73937445  0.70040063  0.5605684769350252  1.0000
  Pd  Pd1       1.0  0.08155754999999995  0.12780599999999998  0.4506013141922893  1.0000
  Pd  Pd2       1.0  0.5815575499999999  0.377806  0.47813529299265833  1.0000
  Pd  Pd3       1.0  0.08155754999999995  0.6278059999999999  0.505669275097105  1.0000
  Pd  Pd4       1.0  0.5998841499999998  0.8461754300000001  0.5338300704567328  1.0000
  Sn  Sn1       1.0  0.41048657  0.4030391599999999  0.4530166378622776  1.0000
  Sn  Sn2       1.0  0.75262853  0.73252701  0.4893050841199729  1.0000
  Sn  Sn3       1.0  0.75262853  0.023084989999999975  0.4669655051694213  1.0000
  Sn  Sn4       1.0  0.41048657  0.85257284  0.4481859905223011  1.0000
  Sn  Sn5       1.0  0.91048657  0.77308499  0.43943152306497474  1.0000
  Sn  Sn6       1.0  0.25262852999999996  0.10257283999999998  0.4757199726267477  1.0000
  Sn  Sn7       1.0  0.25262852999999996  0.65303916  0.4805506166626466  1.0000
  Sn  Sn8       1.0  0.91048657  0.4825270099999999  0.4617711053196039  1.0000
  Sn  Sn9       1.0  0.41048657  0.90303916  0.5080845954630155  1.0000
  Sn  Sn10      1.0  0.8573085099999999  0.18777027999999998  0.5420158169510337  1.0000
  Sn  Sn11      1.0  0.7663029999999997  0.49876392999999997  0.5221953493556711  1.0000
  Sn  Sn12      1.0  0.41048657  0.35257284  0.5032539514271167  1.0000
  Sn  Sn13      1.0  0.91048657  0.27308498999999997  0.4944994839697903  1.0000
  Sn  Sn14      1.0  0.26222565  0.5863104499999999  0.5298738241219322  1.0000
  Sn  Sn15      1.0  0.30048256999999995  0.13893067999999997  0.5344571678625866  1.0000
  Sn  Sn16      1.0  0.91844245  0.97691501  0.5163428135951363  1.0000
