data_image0
_chemical_formula_structural       COIn4Pd12In4Pd12
_chemical_formula_sum              "C1 O1 In8 Pd24"
_cell_length_a       9.145001316599561
_cell_length_b       5.81753587
_cell_length_c       112.3360806
_cell_angle_alpha    90.0
_cell_angle_beta     73.89466840779173
_cell_angle_gamma    50.49513046005108

_space_group_name_H-M_alt    "P 1"
_space_group_IT_number       1

loop_
  _space_group_symop_operation_xyz
  'x, y, z'

loop_
  _atom_site_type_symbol
  _atom_site_label
  _atom_site_symmetry_multiplicity
  _atom_site_fract_x
  _atom_site_fract_y
  _atom_site_fract_z
  _atom_site_occupancy
  C   C1        1.0  0.26284555000000004  0.52261088  0.5564893593377384  1.0000
  O   O1        1.0  0.13484996000000002  0.6515138199999999  0.5668220449356359  1.0000
  In  In1       1.0  0.92740199  0.6199132500000002  0.542934896398326  1.0000
  In  In2       1.0  0.68146925  0.3779193800000001  0.5269019640380865  1.0000
  In  In3       1.0  0.1875  0.864218  0.49598959237096957  1.0000
  In  In4       1.0  0.4375  0.11421800000000007  0.5116925035819702  1.0000
  Pd  Pd1       1.0  0.6789265600000001  0.8805330999999998  0.527013167021455  1.0000
  Pd  Pd2       1.0  0.4375  0.614218  0.5116925035819702  1.0000
  Pd  Pd3       1.0  0.92662974  0.12855344000000013  0.5425327235184269  1.0000
  Pd  Pd4       1.0  0.1875  0.3642180000000001  0.49598959237096957  1.0000
  Pd  Pd5       1.0  0.06250000000000001  0.239218  0.5195439573031213  1.0000
  Pd  Pd6       1.0  0.8125  0.989218  0.5038410498608191  1.0000
  Pd  Pd7       1.0  0.27983842000000003  0.5306398599999999  0.5381565674794284  1.0000
  Pd  Pd8       1.0  0.56395436  0.7511644  0.5495259428615134  1.0000
  Pd  Pd9       1.0  0.06250000000000001  0.739218  0.5195439573031213  1.0000
  Pd  Pd10      1.0  0.8125  0.489218  0.5038410498608191  1.0000
  Pd  Pd11      1.0  0.30076989  0.010782000000000042  0.5352595916398836  1.0000
  Pd  Pd12      1.0  0.56505676  0.24962924000000009  0.5500863294684871  1.0000
  In  In5       1.0  0.9375  0.614218  0.48028668492866744  1.0000
  In  In6       1.0  0.6875  0.3642180000000001  0.4645837737176669  1.0000
  In  In7       1.0  0.1875  0.864218  0.4331779550643642  1.0000
  In  In8       1.0  0.4375  0.11421800000000007  0.44888086250666626  1.0000
  Pd  Pd13      1.0  0.6875  0.864218  0.4645837737176669  1.0000
  Pd  Pd14      1.0  0.4375  0.614218  0.44888086250666626  1.0000
  Pd  Pd15      1.0  0.9375  0.114218  0.48028668492866744  1.0000
  Pd  Pd16      1.0  0.1875  0.3642180000000001  0.4331779550643642  1.0000
  Pd  Pd17      1.0  0.06250000000000001  0.239218  0.4567323199965158  1.0000
  Pd  Pd18      1.0  0.8125  0.989218  0.4410294087855153  1.0000
  Pd  Pd19      1.0  0.31250000000000006  0.489218  0.47243522743881794  1.0000
  Pd  Pd20      1.0  0.5625  0.739218  0.4881381386498185  1.0000
  Pd  Pd21      1.0  0.06250000000000001  0.739218  0.4567323199965158  1.0000
  Pd  Pd22      1.0  0.8125  0.489218  0.4410294087855153  1.0000
  Pd  Pd23      1.0  0.31250000000000006  0.989218  0.47243522743881794  1.0000
  Pd  Pd24      1.0  0.5625  0.23921800000000007  0.4881381386498185  1.0000
