data_image0
_chemical_formula_structural       COV4Sn4Rh8V4Sn4Rh8
_chemical_formula_sum              "C1 O1 V8 Sn8 Rh16"
_cell_length_a       5.8021813
_cell_length_b       8.45481020326965
_cell_length_c       104.8130878
_cell_angle_alpha    110.0676253180315
_cell_angle_beta     90.0
_cell_angle_gamma    69.9323746819685

_space_group_name_H-M_alt    "P 1"
_space_group_IT_number       1

loop_
  _space_group_symop_operation_xyz
  'x, y, z'

loop_
  _atom_site_type_symbol
  _atom_site_label
  _atom_site_symmetry_multiplicity
  _atom_site_fract_x
  _atom_site_fract_y
  _atom_site_fract_z
  _atom_site_occupancy
  C   C1        1.0  0.34050481  0.3316803499999999  0.5500028756731291  1.0000
  O   O1        1.0  0.30988105  0.3920321499999999  0.5623010528918391  1.0000
  V   V1        1.0  0.7522538599999999  0.50805046  0.44461862251969264  1.0000
  V   V2        1.0  0.25225386  0.50805046  0.47229733080870895  1.0000
  V   V3        1.0  0.002253859999999965  0.00805045999999998  0.45845797666420085  1.0000
  V   V4        1.0  0.5022538599999999  0.00805045999999998  0.48613668163177237  1.0000
  Sn  Sn1       1.0  0.7522538599999999  0.50805046  0.47229733080870895  1.0000
  Sn  Sn2       1.0  0.25225386  0.50805046  0.44461862251969264  1.0000
  Sn  Sn3       1.0  0.002253859999999965  0.00805045999999998  0.48613668163177237  1.0000
  Sn  Sn4       1.0  0.5022538599999999  0.00805045999999998  0.45845797666420085  1.0000
  Rh  Rh1       1.0  0.6272538599999999  0.25805046  0.4515383012526691  1.0000
  Rh  Rh2       1.0  0.12725386  0.25805046  0.47921700622024066  1.0000
  Rh  Rh3       1.0  0.12725386  0.25805046  0.4515383012526691  1.0000
  Rh  Rh4       1.0  0.6272538599999999  0.25805046  0.47921700622024066  1.0000
  Rh  Rh5       1.0  0.8772538599999998  0.75805046  0.46537765207573245  1.0000
  Rh  Rh6       1.0  0.3772538599999999  0.75805046  0.43769894710816093  1.0000
  Rh  Rh7       1.0  0.3772538599999999  0.75805046  0.46537765207573245  1.0000
  Rh  Rh8       1.0  0.8772538599999998  0.75805046  0.43769894710816093  1.0000
  V   V5        1.0  0.7522538599999999  0.50805046  0.49997603577628047  1.0000
  V   V6        1.0  0.25894654000000006  0.4919105099999999  0.5263511999026325  1.0000
  V   V7        1.0  0.0023459599999998606  0.007886980000000099  0.5145737056454143  1.0000
  V   V8        1.0  0.50648237  0.99211302  0.5391359521669123  1.0000
  Sn  Sn5       1.0  0.7482008299999998  0.51506215  0.5300983807740683  1.0000
  Sn  Sn6       1.0  0.25225386  0.50805046  0.49997603577628047  1.0000
  Sn  Sn7       1.0  0.99774614  0.01450048999999998  0.5430082485398435  1.0000
  Sn  Sn8       1.0  0.5062685699999999  0.0002684199999998249  0.5128066339421543  1.0000
  Rh  Rh9       1.0  0.6272538599999999  0.25805046  0.5068957111878122  1.0000
  Rh  Rh10      1.0  0.14849993999999997  0.25065344999999994  0.5339403822496266  1.0000
  Rh  Rh11      1.0  0.12725386  0.25805046  0.5068957111878122  1.0000
  Rh  Rh12      1.0  0.61185231  0.25131061  0.534003453163585  1.0000
  Rh  Rh13      1.0  0.8801524  0.75314508  0.5212410940796679  1.0000
  Rh  Rh14      1.0  0.3772538599999999  0.75805046  0.49305636036474876  1.0000
  Rh  Rh15      1.0  0.38113522  0.7536978100000001  0.5212489758680097  1.0000
  Rh  Rh16      1.0  0.8772538599999998  0.75805046  0.49305636036474876  1.0000
