data_image0
_chemical_formula_structural       COSi8Rh8Si8Rh8
_chemical_formula_sum              "C1 O1 Si16 Rh16"
_cell_length_a       5.640079002616123
_cell_length_b       6.537318335111262
_cell_length_c       30.776089990000003
_cell_angle_alpha    89.76182367118652
_cell_angle_beta     72.48364442225179
_cell_angle_gamma    72.48364435776898

_space_group_name_H-M_alt    "P 1"
_space_group_IT_number       1

loop_
  _space_group_symop_operation_xyz
  'x, y, z'

loop_
  _atom_site_type_symbol
  _atom_site_label
  _atom_site_symmetry_multiplicity
  _atom_site_fract_x
  _atom_site_fract_y
  _atom_site_fract_z
  _atom_site_occupancy
  C   C1        1.0  0.07674692500000006  0.7225725499999999  0.6964898349256825  1.0000
  O   O1        1.0  0.948800835  0.75709899  0.7366455140061126  1.0000
  Si  Si1       1.0  0.5265581850000001  0.45009802  0.6652800131011989  1.0000
  Si  Si2       1.0  0.5328060149999999  0.9672387  0.560356959636227  1.0000
  Si  Si3       1.0  0.14879185500000008  0.42983697  0.5524122548346755  1.0000
  Si  Si4       1.0  0.23582972500000005  0.92397487  0.6532287390453175  1.0000
  Si  Si5       1.0  0.648791855  0.5327613  0.5305495261396148  1.0000
  Si  Si6       1.0  0.6355458350000002  0.04063628999999999  0.6379837640622035  1.0000
  Si  Si7       1.0  0.05119916499999988  0.55126595  0.643666957576884  1.0000
  Si  Si8       1.0  0.03280601500000002  0.07016303  0.5384942309411663  1.0000
  Rh  Rh1       1.0  0.9720440749999999  0.72171619  0.5089287599328957  1.0000
  Rh  Rh2       1.0  0.9736791450000001  0.2178554  0.6178691936348987  1.0000
  Rh  Rh3       1.0  0.709553795  0.17194829000000003  0.49835728690723957  1.0000
  Rh  Rh4       1.0  0.706266615  0.67308156  0.6068847848903982  1.0000
  Rh  Rh5       1.0  0.20955379500000001  0.27828381  0.47576997072997357  1.0000
  Rh  Rh6       1.0  0.20878738500000008  0.77711064  0.5812071291649065  1.0000
  Rh  Rh7       1.0  0.4720440749999999  0.8280517100000001  0.4863414565005591  1.0000
  Rh  Rh8       1.0  0.471791575  0.33090033  0.5918721499737821  1.0000
  Si  Si9       1.0  0.532806015  0.4672387  0.45414921726818375  1.0000
  Si  Si10      1.0  0.5328060149999999  0.9672387  0.3479414621552111  1.0000
  Si  Si11      1.0  0.14879185500000008  0.42983697  0.3399967573536595  1.0000
  Si  Si12      1.0  0.14879185500000008  0.92983697  0.4462044997217027  1.0000
  Si  Si13      1.0  0.648791855  0.5327613  0.31813402865859886  1.0000
  Si  Si14      1.0  0.648791855  0.0327613  0.4243417837715716  1.0000
  Si  Si15      1.0  0.03280601500000002  0.57016303  0.43228648857312324  1.0000
  Si  Si16      1.0  0.03280601500000002  0.07016303  0.32607874620508004  1.0000
  Rh  Rh9       1.0  0.9720440749999999  0.72171619  0.29651327519680937  1.0000
  Rh  Rh10      1.0  0.9720440749999999  0.22171619000000004  0.40272101756485246  1.0000
  Rh  Rh11      1.0  0.709553795  0.17194829000000003  0.2859417894262237  1.0000
  Rh  Rh12      1.0  0.709553795  0.67194829  0.39214954453919637  1.0000
  Rh  Rh13      1.0  0.20955379500000001  0.27828381  0.2633544859938871  1.0000
  Rh  Rh14      1.0  0.20955379500000001  0.77828381  0.36956222836193026  1.0000
  Rh  Rh15      1.0  0.4720440749999999  0.8280517100000001  0.27392595901954314  1.0000
  Rh  Rh16      1.0  0.47204407500000006  0.32805171  0.38013370138758634  1.0000
