data_image0
_chemical_formula_structural       Al6Co3Os3Al6Co3Os3Al6Co3Os3Al6Co3Os3CO
_chemical_formula_sum              "Al24 Co12 Os12 C1 O1"
_cell_length_a       8.39115536
_cell_length_b       8.39115535232532
_cell_length_c       100.83107344
_cell_angle_alpha    90.0
_cell_angle_beta     90.0
_cell_angle_gamma    120.00000003025524

_space_group_name_H-M_alt    "P 1"
_space_group_IT_number       1

loop_
  _space_group_symop_operation_xyz
  'x, y, z'

loop_
  _atom_site_type_symbol
  _atom_site_label
  _atom_site_symmetry_multiplicity
  _atom_site_fract_x
  _atom_site_fract_y
  _atom_site_fract_z
  _atom_site_occupancy
  Al  Al1       1.0  0.42152056999999993  0.16209443499999998  0.5304834230949558  1.0000
  Al  Al2       1.0  0.25010931999999986  0.333527135  0.49667029939183216  1.0000
  Al  Al3       1.0  0.0834426499999999  0.00019380499999999278  0.46269590364716734  1.0000
  Al  Al4       1.0  0.08322401999999986  0.9998422149999999  0.51378166569787  1.0000
  Al  Al5       1.0  0.4167759799999999  0.16686047499999998  0.47968309999065195  1.0000
  Al  Al6       1.0  0.25010931999999986  0.333527135  0.44570870424598713  1.0000
  Co  Co1       1.0  0.0834426499999999  0.00019380499999999278  0.488176699691242  1.0000
  Co  Co2       1.0  0.4167759799999999  0.16686047499999998  0.4542023039465772  1.0000
  Co  Co3       1.0  0.2501143899999999  0.333520405  0.5234148441047541  1.0000
  Os  Os1       1.0  0.25010931999999986  0.333527135  0.4711895033477575  1.0000
  Os  Os2       1.0  0.08591146999999989  0.005204064999999993  0.5382894907560968  1.0000
  Os  Os3       1.0  0.4167759799999999  0.16686047499999998  0.5051638990924222  1.0000
  Al  Al7       1.0  0.4215972299999998  0.6764211949999999  0.5304793563597444  1.0000
  Al  Al8       1.0  0.2501093199999999  0.833527135  0.49667029939183216  1.0000
  Al  Al9       1.0  0.08344264999999991  0.500193805  0.46269590364716734  1.0000
  Al  Al10      1.0  0.08328769999999992  0.500361835  0.5137787975793525  1.0000
  Al  Al11      1.0  0.41677597999999977  0.6668604749999999  0.47968309999065195  1.0000
  Al  Al12      1.0  0.2501093199999999  0.833527135  0.44570870424598713  1.0000
  Co  Co4       1.0  0.08344264999999991  0.500193805  0.488176699691242  1.0000
  Co  Co5       1.0  0.41677597999999977  0.6668604749999999  0.4542023039465772  1.0000
  Co  Co6       1.0  0.24649522999999987  0.8317235149999999  0.5222174657776335  1.0000
  Os  Os4       1.0  0.2501093199999999  0.833527135  0.4711895033477575  1.0000
  Os  Os5       1.0  0.08596428999999992  0.497674355  0.5382926952211354  1.0000
  Os  Os6       1.0  0.41677597999999977  0.6668604749999999  0.5051638990924222  1.0000
  Al  Al13      1.0  0.90722145  0.162031635  0.5304799312065263  1.0000
  Al  Al14      1.0  0.7501093199999999  0.333527135  0.49667029939183216  1.0000
  Al  Al15      1.0  0.5834426499999998  0.00019380499999999278  0.46269590364716734  1.0000
  Al  Al16      1.0  0.5834667099999998  0.0001577849999999928  0.5140235875198121  1.0000
  Al  Al17      1.0  0.9167759799999997  0.16686047499999998  0.47968309999065195  1.0000
  Al  Al18      1.0  0.7501093199999999  0.333527135  0.44570870424598713  1.0000
  Co  Co7       1.0  0.5834426499999998  0.00019380499999999278  0.488176699691242  1.0000
  Co  Co8       1.0  0.9167759799999997  0.16686047499999998  0.4542023039465772  1.0000
  Co  Co9       1.0  0.7519147099999999  0.337144035  0.5222175666815899  1.0000
  Os  Os7       1.0  0.7501093199999999  0.333527135  0.4711895033477575  1.0000
  Os  Os8       1.0  0.5834403999999999  0.0001933949999999928  0.5387254570015311  1.0000
  Os  Os9       1.0  0.9167759799999997  0.16686047499999998  0.5051638990924222  1.0000
  Al  Al19      1.0  0.9167487199999999  0.6669088849999999  0.5308366022307314  1.0000
  Al  Al20      1.0  0.7501093199999999  0.833527135  0.49667029939183216  1.0000
  Al  Al21      1.0  0.58344265  0.500193805  0.46269590364716734  1.0000
  Al  Al22      1.0  0.5837903399999999  0.500417125  0.5137808126007842  1.0000
  Al  Al23      1.0  0.9167759799999997  0.6668604749999999  0.47968309999065195  1.0000
  Al  Al24      1.0  0.7501093199999999  0.833527135  0.44570870424598713  1.0000
  Co  Co10      1.0  0.58344265  0.500193805  0.488176699691242  1.0000
  Co  Co11      1.0  0.9167759799999997  0.6668604749999999  0.4542023039465772  1.0000
  Co  Co12      1.0  0.7519204599999998  0.8317171749999999  0.5222187652982837  1.0000
  Os  Os10      1.0  0.7501093199999999  0.833527135  0.4711895033477575  1.0000
  Os  Os11      1.0  0.57843272  0.497726505  0.5382901236990958  1.0000
  Os  Os12      1.0  0.9167759799999997  0.6668604749999999  0.5051638990924222  1.0000
  C   C1        1.0  0.2500730799999999  0.33355678499999997  0.5419863915634323  1.0000
  O   O1        1.0  0.2501957699999999  0.333444245  0.5542912957540129  1.0000
