data_image0
_chemical_formula_structural       COPt18W6Pt18W6
_chemical_formula_sum              "C1 O1 Pt36 W12"
_cell_length_a       8.797969160152308
_cell_length_b       8.99044417697189
_cell_length_c       108.95026985
_cell_angle_alpha    108.02655170803072
_cell_angle_beta     71.56505119767196
_cell_angle_gamma    78.71331629726323

_space_group_name_H-M_alt    "P 1"
_space_group_IT_number       1

loop_
  _space_group_symop_operation_xyz
  'x, y, z'

loop_
  _atom_site_type_symbol
  _atom_site_label
  _atom_site_symmetry_multiplicity
  _atom_site_fract_x
  _atom_site_fract_y
  _atom_site_fract_z
  _atom_site_occupancy
  C   C1        1.0  0.33715776499999994  0.7099482100000001  0.548146196697554  1.0000
  O   O1        1.0  0.28018630499999997  0.7537982  0.5606434536707212  1.0000
  Pt  Pt1       1.0  0.7916666649999998  0.25239971  0.4563805963849074  1.0000
  Pt  Pt2       1.0  0.12499999499999992  0.25239971  0.47340464286548567  1.0000
  Pt  Pt3       1.0  0.45833333499999995  0.25239971  0.43935654632927884  1.0000
  Pt  Pt4       1.0  0.12499999499999992  0.25239971  0.44786856956956794  1.0000
  Pt  Pt5       1.0  0.45833333499999995  0.25239971  0.4648926196251965  1.0000
  Pt  Pt6       1.0  0.7916666649999998  0.25239971  0.48191666968082514  1.0000
  Pt  Pt7       1.0  0.041666664999999915  0.0023997100000000045  0.4563805963849074  1.0000
  Pt  Pt8       1.0  0.37499999499999986  0.0023997100000000045  0.47340464286548567  1.0000
  Pt  Pt9       1.0  0.708333335  0.0023997100000000045  0.43935654632927884  1.0000
  Pt  Pt10      1.0  0.958333335  0.7523997099999999  0.4648926196251965  1.0000
  Pt  Pt11      1.0  0.29166666499999994  0.7523997099999999  0.4819166696808251  1.0000
  Pt  Pt12      1.0  0.6249999949999999  0.7523997099999999  0.44786856956956794  1.0000
  Pt  Pt13      1.0  0.6249999949999999  0.7523997099999999  0.47340464286548567  1.0000
  Pt  Pt14      1.0  0.958333335  0.7523997099999999  0.43935654632927884  1.0000
  Pt  Pt15      1.0  0.29166666499999994  0.7523997099999999  0.45638059638490736  1.0000
  Pt  Pt16      1.0  0.8749999949999998  0.5023997099999999  0.44786856956956783  1.0000
  Pt  Pt17      1.0  0.2083333349999999  0.5023997099999999  0.4648926196251965  1.0000
  Pt  Pt18      1.0  0.5416666649999999  0.5023997099999999  0.481916669680825  1.0000
  W   W1        1.0  0.041666664999999915  0.0023997100000000045  0.4819166696808251  1.0000
  W   W2        1.0  0.37499999499999986  0.0023997100000000045  0.4478685695695679  1.0000
  W   W3        1.0  0.708333335  0.0023997100000000045  0.46489261962519657  1.0000
  W   W4        1.0  0.8749999949999998  0.5023997099999999  0.47340464286548556  1.0000
  W   W5        1.0  0.2083333349999999  0.5023997099999999  0.43935654632927873  1.0000
  W   W6        1.0  0.5416666649999999  0.5023997099999999  0.4563805963849074  1.0000
  Pt  Pt19      1.0  0.7865071149999999  0.25329093  0.5073988669682256  1.0000
  Pt  Pt20      1.0  0.1286996749999999  0.23964659  0.5244202607614568  1.0000
  Pt  Pt21      1.0  0.45833333499999995  0.25239971  0.4904286929211142  1.0000
  Pt  Pt22      1.0  0.12499999499999992  0.25239971  0.4989407197364537  1.0000
  Pt  Pt23      1.0  0.458138075  0.24569089  0.5158646755328609  1.0000
  Pt  Pt24      1.0  0.7992475249999998  0.23044098  0.531858145829016  1.0000
  Pt  Pt25      1.0  0.042115604999999876  0.9976002900000001  0.5067778485499427  1.0000
  Pt  Pt26      1.0  0.3797714449999999  0.008716850000000003  0.5245756431740769  1.0000
  Pt  Pt27      1.0  0.708333335  0.0023997100000000045  0.49042869292111424  1.0000
  Pt  Pt28      1.0  0.9531820349999998  0.76320754  0.5179864107046492  1.0000
  Pt  Pt29      1.0  0.295727025  0.7598372699999999  0.5326651097652152  1.0000
  Pt  Pt30      1.0  0.6249999949999999  0.7523997099999999  0.4989407197364537  1.0000
  Pt  Pt31      1.0  0.6357214550000001  0.75742572  0.524581130876338  1.0000
  Pt  Pt32      1.0  0.958333335  0.7523997099999999  0.4904286929211142  1.0000
  Pt  Pt33      1.0  0.29377729499999994  0.74283119  0.5072308860782322  1.0000
  Pt  Pt34      1.0  0.8749999949999998  0.5023997099999999  0.4989407197364537  1.0000
  Pt  Pt35      1.0  0.19556012499999986  0.50416318  0.5174925568267087  1.0000
  Pt  Pt36      1.0  0.5503681450000001  0.50715852  0.532831217328834  1.0000
  W   W7        1.0  0.06477485499999996  0.9892951299999999  0.5302863713750932  1.0000
  W   W8        1.0  0.37499999499999986  0.0023997100000000045  0.49894071973645376  1.0000
  W   W9        1.0  0.7073903049999997  0.9962373299999999  0.5159642478347337  1.0000
  W   W10       1.0  0.8797254849999997  0.49090808  0.5226593268193683  1.0000
  W   W11       1.0  0.2083333349999999  0.5023997099999999  0.49042869292111424  1.0000
  W   W12       1.0  0.5373034849999998  0.5003015199999999  0.5084164442696383  1.0000
