data_image0
_chemical_formula_structural       COAl12Ni20
_chemical_formula_sum              "C1 O1 Al12 Ni20"
_cell_length_a       5.051436684605726
_cell_length_b       10.7933628199275
_cell_length_c       41.55582737
_cell_angle_alpha    90.19924908019793
_cell_angle_beta     92.40998116749277
_cell_angle_gamma    83.63768761024565

_space_group_name_H-M_alt    "P 1"
_space_group_IT_number       1

loop_
  _space_group_symop_operation_xyz
  'x, y, z'

loop_
  _atom_site_type_symbol
  _atom_site_label
  _atom_site_symmetry_multiplicity
  _atom_site_fract_x
  _atom_site_fract_y
  _atom_site_fract_z
  _atom_site_occupancy
  C   C1        1.0  0.9533733099999999  0.04378773  0.5657858997530752  1.0000
  O   O1        1.0  0.9546642799999999  0.06270284  0.5946877181534087  1.0000
  Al  Al1       1.0  0.6399598299999998  0.73746227  0.4600458435746456  1.0000
  Al  Al2       1.0  0.6399598299999999  0.17496226999999998  0.41726578354729066  1.0000
  Al  Al3       1.0  0.9193774499999999  0.35970747999999997  0.4480923418739461  1.0000
  Al  Al4       1.0  0.91937745  0.79720748  0.4053122818465912  1.0000
  Al  Al5       1.0  0.3605422099999999  0.55271706  0.42921928524799013  1.0000
  Al  Al6       1.0  0.3605422099999999  0.11521705999999997  0.47199934527534504  1.0000
  Al  Al7       1.0  0.5512326599999999  0.8650599400000001  0.5497455881163192  1.0000
  Al  Al8       1.0  0.6398421299999999  0.30121683  0.5019534504802076  1.0000
  Al  Al9       1.0  0.9280687699999998  0.48182872000000004  0.5358378590495223  1.0000
  Al  Al10      1.0  0.9193774499999999  0.92220748  0.490872401901301  1.0000
  Al  Al11      1.0  0.34094161999999983  0.68042511  0.5139909516843719  1.0000
  Al  Al12      1.0  0.37318200999999984  0.25027674999999994  0.5547148035273336  1.0000
  Ni  Ni1       1.0  0.13995982999999992  0.95621227  0.4386558135609681  1.0000
  Ni  Ni2       1.0  0.13995982999999984  0.5187122700000001  0.4814358735883231  1.0000
  Ni  Ni3       1.0  0.13995982999999992  0.17496226999999998  0.41726578354729066  1.0000
  Ni  Ni4       1.0  0.1399598299999999  0.73746227  0.4600458435746456  1.0000
  Ni  Ni5       1.0  0.6399598299999998  0.5187122700000001  0.4814358735883232  1.0000
  Ni  Ni6       1.0  0.63995983  0.95621227  0.4386558135609681  1.0000
  Ni  Ni7       1.0  0.4169212699999999  0.7725416400000001  0.4077241805620758  1.0000
  Ni  Ni8       1.0  0.41692126999999995  0.33504164  0.4505042405894307  1.0000
  Ni  Ni9       1.0  0.8629983899999999  0.5773829  0.42680738653250544  1.0000
  Ni  Ni10      1.0  0.86299839  0.13988289999999998  0.4695874465598605  1.0000
  Ni  Ni11      1.0  0.16659368999999988  0.07767476  0.5289744726318791  1.0000
  Ni  Ni12      1.0  0.12652537999999985  0.6521693100000001  0.5630654233310061  1.0000
  Ni  Ni13      1.0  0.13808250999999988  0.29929212  0.502493156872703  1.0000
  Ni  Ni14      1.0  0.04533571999999989  0.87624736  0.5462424624744665  1.0000
  Ni  Ni15      1.0  0.62588956  0.6436197400000001  0.5624299991210029  1.0000
  Ni  Ni16      1.0  0.6736666899999998  0.06734552999999999  0.5297104470949706  1.0000
  Ni  Ni17      1.0  0.41692126999999995  0.89754164  0.49328430061678563  1.0000
  Ni  Ni18      1.0  0.4300302399999999  0.45989817000000005  0.5366151898522434  1.0000
  Ni  Ni19      1.0  0.83995337  0.7074888500000001  0.5127988459540544  1.0000
  Ni  Ni20      1.0  0.86465585  0.26169993999999996  0.5518886706242113  1.0000
