data_image0
_chemical_formula_structural       COV6Pt18V6Pt18
_chemical_formula_sum              "C1 O1 V12 Pt36"
_cell_length_a       7.95323841
_cell_length_b       8.720125533989862
_cell_length_c       103.09054978
_cell_angle_alpha    71.56505115630019
_cell_angle_beta     90.0
_cell_angle_gamma    90.0

_space_group_name_H-M_alt    "P 1"
_space_group_IT_number       1

loop_
  _space_group_symop_operation_xyz
  'x, y, z'

loop_
  _atom_site_type_symbol
  _atom_site_label
  _atom_site_symmetry_multiplicity
  _atom_site_fract_x
  _atom_site_fract_y
  _atom_site_fract_z
  _atom_site_occupancy
  C   C1        1.0  0.10999782000000001  0.9051823450000002  0.5509344205100241  1.0000
  O   O1        1.0  0.10994921000000002  0.800228515  0.5613313137302988  1.0000
  V   V1        1.0  0.10976506000000001  0.7481368150000002  0.46541746238437337  1.0000
  V   V2        1.0  0.10976506000000001  0.41480347500000003  0.44758494497459206  1.0000
  V   V3        1.0  0.10976506000000001  0.08147014500000002  0.4832499765843018  1.0000
  V   V4        1.0  0.6097650600000001  0.7481368150000002  0.4386686862697014  1.0000
  V   V5        1.0  0.6097650600000001  0.41480347500000003  0.47433371787941114  1.0000
  V   V6        1.0  0.6097650600000001  0.08147014500000002  0.4565012036794827  1.0000
  Pt  Pt1       1.0  0.8597650600000001  0.581470145  0.4565012036794827  1.0000
  Pt  Pt2       1.0  0.8597650600000001  0.24813681500000004  0.43866868626970146  1.0000
  Pt  Pt3       1.0  0.8597650600000001  0.914803475  0.47433371787941114  1.0000
  Pt  Pt4       1.0  0.8597650600000001  0.914803475  0.4475849449745921  1.0000
  Pt  Pt5       1.0  0.8597650600000001  0.581470145  0.48324997658430185  1.0000
  Pt  Pt6       1.0  0.8597650600000001  0.24813681500000004  0.46541746238437337  1.0000
  Pt  Pt7       1.0  0.6097650600000001  0.7481368150000002  0.46541746238437337  1.0000
  Pt  Pt8       1.0  0.6097650600000001  0.41480347500000003  0.44758494497459206  1.0000
  Pt  Pt9       1.0  0.6097650600000001  0.08147014500000002  0.4832499765843018  1.0000
  Pt  Pt10      1.0  0.35976506  0.914803475  0.4475849449745921  1.0000
  Pt  Pt11      1.0  0.35976506  0.581470145  0.48324997658430185  1.0000
  Pt  Pt12      1.0  0.35976506  0.24813681500000004  0.46541746238437337  1.0000
  Pt  Pt13      1.0  0.35976506  0.581470145  0.4565012036794827  1.0000
  Pt  Pt14      1.0  0.35976506  0.24813681500000004  0.43866868626970146  1.0000
  Pt  Pt15      1.0  0.35976506  0.914803475  0.47433371787941114  1.0000
  Pt  Pt16      1.0  0.10976506000000001  0.7481368150000002  0.4386686862697014  1.0000
  Pt  Pt17      1.0  0.10976506000000001  0.41480347500000003  0.47433371787941114  1.0000
  Pt  Pt18      1.0  0.10976506000000001  0.08147014500000002  0.4565012036794827  1.0000
  V   V7        1.0  0.10982745000000001  0.7540183850000002  0.5182579448903896  1.0000
  V   V8        1.0  0.10976506000000001  0.41480347500000003  0.5010824939940831  1.0000
  V   V9        1.0  0.11000716000000002  0.10191761500000003  0.5341505588252967  1.0000
  V   V10       1.0  0.6097650600000001  0.7481368150000002  0.49216623528919246  1.0000
  V   V11       1.0  0.60998859  0.42176422500000005  0.5256249937830325  1.0000
  V   V12       1.0  0.6099820200000001  0.07659076500000003  0.511448543738063  1.0000
  Pt  Pt19      1.0  0.8578673000000001  0.5839818750000001  0.5096872846250567  1.0000
  Pt  Pt20      1.0  0.8597650600000001  0.24813681500000004  0.4921662352891925  1.0000
  Pt  Pt21      1.0  0.87352228  0.9231738250000001  0.528131834312449  1.0000
  Pt  Pt22      1.0  0.8597650600000001  0.914803475  0.5010824939940831  1.0000
  Pt  Pt23      1.0  0.8902349400000001  0.5956142050000001  0.5350078110232969  1.0000
  Pt  Pt24      1.0  0.8627003700000001  0.25643472500000003  0.5190790926632296  1.0000
  Pt  Pt25      1.0  0.6098692600000001  0.7482831750000002  0.5214119399075968  1.0000
  Pt  Pt26      1.0  0.6097650600000001  0.41480347500000003  0.5010824939940831  1.0000
  Pt  Pt27      1.0  0.6099469300000001  0.09542607500000003  0.5353843556544415  1.0000
  Pt  Pt28      1.0  0.35976506  0.914803475  0.5010824939940831  1.0000
  Pt  Pt29      1.0  0.32910608  0.596110715  0.5349932575503527  1.0000
  Pt  Pt30      1.0  0.3571693  0.256574225  0.5190866358174904  1.0000
  Pt  Pt31      1.0  0.36192098  0.5840296450000002  0.5096838565021842  1.0000
  Pt  Pt32      1.0  0.35976506  0.24813681500000004  0.4921662352891925  1.0000
  Pt  Pt33      1.0  0.34627977000000004  0.923409235  0.5281322997411162  1.0000
  Pt  Pt34      1.0  0.10976506000000001  0.7481368150000002  0.49216623528919246  1.0000
  Pt  Pt35      1.0  0.10985049000000001  0.389491385  0.5304448607153011  1.0000
  Pt  Pt36      1.0  0.10982554000000001  0.08211560500000004  0.5096104054388004  1.0000
