data_image0
_chemical_formula_structural       COAl6Ni10Al6Ni10Al6Ni10
_chemical_formula_sum              "C1 O1 Al18 Ni30"
_cell_length_a       6.70761941
_cell_length_b       8.456034699023546
_cell_length_c       104.18653375
_cell_angle_alpha    63.307229971142974
_cell_angle_beta     90.0
_cell_angle_gamma    90.0

_space_group_name_H-M_alt    "P 1"
_space_group_IT_number       1

loop_
  _space_group_symop_operation_xyz
  'x, y, z'

loop_
  _atom_site_type_symbol
  _atom_site_label
  _atom_site_symmetry_multiplicity
  _atom_site_fract_x
  _atom_site_fract_y
  _atom_site_fract_z
  _atom_site_occupancy
  C   C1        1.0  0.111548025  0.873426975  0.5540807235691142  1.0000
  O   O1        1.0  0.11157598499999999  0.7979309250000001  0.5666336495546256  1.0000
  Al  Al1       1.0  0.6115268650000001  0.008705404999999994  0.4617828906813733  1.0000
  Al  Al2       1.0  0.6115268650000001  0.729287785  0.4537407455464301  1.0000
  Al  Al3       1.0  0.6115268650000001  0.288123025  0.4333663504453742  1.0000
  Al  Al4       1.0  0.11152686499999999  0.508705405  0.44355354799590213  1.0000
  Al  Al5       1.0  0.11152686499999999  0.229287785  0.4355114061422405  1.0000
  Al  Al6       1.0  0.11152686499999999  0.788123025  0.45159568984956383  1.0000
  Ni  Ni1       1.0  0.11152686499999999  0.008705404999999994  0.4617828906813733  1.0000
  Ni  Ni2       1.0  0.36152686500000003  0.7587054049999999  0.43443887665316666  1.0000
  Ni  Ni3       1.0  0.8615268650000001  0.7587054049999999  0.43443887665316666  1.0000
  Ni  Ni4       1.0  0.8345654250000001  0.008705404999999994  0.4435535479959022  1.0000
  Ni  Ni5       1.0  0.38848830500000003  0.008705404999999994  0.4435535479959022  1.0000
  Ni  Ni6       1.0  0.6115268650000001  0.508705405  0.44355354799590213  1.0000
  Ni  Ni7       1.0  0.8615268650000001  0.258705405  0.4526682193386377  1.0000
  Ni  Ni8       1.0  0.36152686500000003  0.258705405  0.4526682193386377  1.0000
  Ni  Ni9       1.0  0.33456542499999997  0.508705405  0.4617828906813733  1.0000
  Ni  Ni10      1.0  0.8884883050000001  0.508705405  0.4617828906813733  1.0000
  Al  Al7       1.0  0.6115268650000001  0.008705404999999994  0.49824157277103404  1.0000
  Al  Al8       1.0  0.6115268650000001  0.729287785  0.4901994276360909  1.0000
  Al  Al9       1.0  0.6115268650000001  0.288123025  0.469825032535035  1.0000
  Al  Al10      1.0  0.11152686499999999  0.508705405  0.480012230085563  1.0000
  Al  Al11      1.0  0.11152686499999999  0.229287785  0.47197008823190123  1.0000
  Al  Al12      1.0  0.11152686499999999  0.788123025  0.48805437193922463  1.0000
  Ni  Ni11      1.0  0.11152686499999999  0.008705404999999994  0.49824157277103404  1.0000
  Ni  Ni12      1.0  0.36152686500000003  0.7587054049999999  0.47089755874282746  1.0000
  Ni  Ni13      1.0  0.8615268650000001  0.7587054049999999  0.47089755874282746  1.0000
  Ni  Ni14      1.0  0.8345654250000001  0.008705404999999994  0.480012230085563  1.0000
  Ni  Ni15      1.0  0.38848830500000003  0.008705404999999994  0.480012230085563  1.0000
  Ni  Ni16      1.0  0.6115268650000001  0.508705405  0.480012230085563  1.0000
  Ni  Ni17      1.0  0.8615268650000001  0.258705405  0.4891269014282985  1.0000
  Ni  Ni18      1.0  0.36152686500000003  0.258705405  0.4891269014282985  1.0000
  Ni  Ni19      1.0  0.33456542499999997  0.508705405  0.49824157277103404  1.0000
  Ni  Ni20      1.0  0.8884883050000001  0.508705405  0.49824157277103404  1.0000
  Al  Al13      1.0  0.611573305  0.028967124999999993  0.5343915748735881  1.0000
  Al  Al14      1.0  0.611523445  0.7347452550000001  0.5262774056114566  1.0000
  Al  Al15      1.0  0.6115239450000001  0.288574535  0.5063014237005242  1.0000
  Al  Al16      1.0  0.111556305  0.499717645  0.51686143388353  1.0000
  Al  Al17      1.0  0.11153511499999998  0.22420363499999998  0.508949345618985  1.0000
  Al  Al18      1.0  0.11154412499999998  0.7749018750000001  0.5258589864485099  1.0000
  Ni  Ni21      1.0  0.111511695  0.999315785  0.535012744415531  1.0000
  Ni  Ni22      1.0  0.35922194500000004  0.7598332050000001  0.507266396065903  1.0000
  Ni  Ni23      1.0  0.863826215  0.7598217749999999  0.5072678988927938  1.0000
  Ni  Ni24      1.0  0.8318804550000001  0.0006530149999999235  0.5169306853279177  1.0000
  Ni  Ni25      1.0  0.39118097500000004  0.0006842149999999325  0.5169298125070597  1.0000
  Ni  Ni26      1.0  0.611480715  0.507959795  0.5165777408544433  1.0000
  Ni  Ni27      1.0  0.857521945  0.259962035  0.5251331473105223  1.0000
  Ni  Ni28      1.0  0.365559135  0.25991290499999997  0.5251374950084049  1.0000
  Ni  Ni29      1.0  0.34523247500000004  0.5149068750000001  0.5328678199699217  1.0000
  Ni  Ni30      1.0  0.877823165  0.514920055  0.5328605814631072  1.0000
