data_image0
_chemical_formula_structural       COAl18Ni30
_chemical_formula_sum              "C1 O1 Al18 Ni30"
_cell_length_a       8.456034701289958
_cell_length_b       10.134430479610119
_cell_length_c       98.68311496
_cell_angle_alpha    88.16467436181625
_cell_angle_beta     86.4384125422142
_cell_angle_gamma    70.32188756141869

_space_group_name_H-M_alt    "P 1"
_space_group_IT_number       1

loop_
  _space_group_symop_operation_xyz
  'x, y, z'

loop_
  _atom_site_type_symbol
  _atom_site_label
  _atom_site_symmetry_multiplicity
  _atom_site_fract_x
  _atom_site_fract_y
  _atom_site_fract_z
  _atom_site_occupancy
  C   C1        1.0  0.7990686600000001  0.15681302500000002  0.5338380372941722  1.0000
  O   O1        1.0  0.7983376600000001  0.12733191500000002  0.5453177777628656  1.0000
  Al  Al1       1.0  0.58638882  0.619784215  0.5052449669629349  1.0000
  Al  Al2       1.0  0.5  0.364821785  0.4802098857805145  1.0000
  Al  Al3       1.0  0.4166666700000001  0.11482178500000004  0.45598832077054824  1.0000
  Al  Al4       1.0  0.20220052000000008  0.30967619500000004  0.47486703365628347  1.0000
  Al  Al5       1.0  0.36088021000000003  0.8198856150000001  0.5223229934086335  1.0000
  Al  Al6       1.0  0.2897256600000001  0.5611918650000001  0.4983565512465343  1.0000
  Al  Al7       1.0  0.7977994800000001  0.419967385  0.4855527379047456  1.0000
  Al  Al8       1.0  0.7144661500000001  0.16996738500000003  0.4613311699881914  1.0000
  Al  Al9       1.0  0.8746870500000002  0.678378275  0.5104736628467077  1.0000
  Al  Al10      1.0  0.11823788000000003  0.24797729500000004  0.5176698716906276  1.0000
  Al  Al11      1.0  0.03947185000000015  0.9920926649999998  0.49216048186548456  1.0000
  Al  Al12      1.0  0.95833333  0.739821785  0.4680991018222374  1.0000
  Al  Al13      1.0  0.8189673200000002  0.18803008500000004  0.5129291221600862  1.0000
  Al  Al14      1.0  0.7438671800000001  0.9346761949999999  0.4869778176145606  1.0000
  Al  Al15      1.0  0.66053385  0.684676195  0.4627562526045943  1.0000
  Al  Al16      1.0  0.3355768900000001  0.04779053500000003  0.49732187570602876  1.0000
  Al  Al17      1.0  0.25613282000000015  0.794967385  0.4734419539464685  1.0000
  Al  Al18      1.0  0.4114771900000001  0.30446612500000003  0.520756159406084  1.0000
  Ni  Ni1       1.0  0.4166666700000001  0.6148217850000001  0.45598832077054824  1.0000
  Ni  Ni2       1.0  0.5839031200000001  0.12041504500000004  0.5045150558853386  1.0000
  Ni  Ni3       1.0  0.5000000000000001  0.864821785  0.48020988578051454  1.0000
  Ni  Ni4       1.0  0.22916667000000004  0.5523217850000001  0.47415449525466996  1.0000
  Ni  Ni5       1.0  0.38513758000000003  0.05978204500000003  0.5207665998698835  1.0000
  Ni  Ni6       1.0  0.3121965800000001  0.804049695  0.4979486581377255  1.0000
  Ni  Ni7       1.0  0.30905633000000005  0.303660445  0.4977552305249944  1.0000
  Ni  Ni8       1.0  0.22916667000000004  0.05232178500000002  0.47415449525466996  1.0000
  Ni  Ni9       1.0  0.3856669700000001  0.5596131249999999  0.5208660574952432  1.0000
  Ni  Ni10      1.0  0.58502901  0.378556565  0.503263670962883  1.0000
  Ni  Ni11      1.0  0.49550643000000016  0.12830250500000004  0.4789037901536887  1.0000
  Ni  Ni12      1.0  0.41217309000000024  0.8783025049999998  0.45468222223713456  1.0000
  Ni  Ni13      1.0  0.5044935700000002  0.601341065  0.48151598140734037  1.0000
  Ni  Ni14      1.0  0.42116024000000013  0.351341065  0.45729441639737406  1.0000
  Ni  Ni15      1.0  0.5885608700000001  0.859482255  0.5061069417691487  1.0000
  Ni  Ni16      1.0  0.04099248000000006  0.49361558499999997  0.49198541516862815  1.0000
  Ni  Ni17      1.0  0.95833333  0.23982178500000007  0.4680991018222374  1.0000
  Ni  Ni18      1.0  0.12112814000000008  0.746419115  0.5156573269638753  1.0000
  Ni  Ni19      1.0  0.8557504100000001  0.430061415  0.5096434192607887  1.0000
  Ni  Ni20      1.0  0.7708333300000001  0.17732178500000007  0.48626527630635913  1.0000
  Ni  Ni21      1.0  0.6875000000000003  0.9273217849999998  0.4620437112963928  1.0000
  Ni  Ni22      1.0  0.7708333300000002  0.677321785  0.4862652763063592  1.0000
  Ni  Ni23      1.0  0.6875000000000002  0.42732178499999995  0.4620437112963928  1.0000
  Ni  Ni24      1.0  0.8529874700000003  0.9319240749999999  0.5095322626190613  1.0000
  Ni  Ni25      1.0  0.9538397600000003  0.5033025050000001  0.4667930061954116  1.0000
  Ni  Ni26      1.0  0.11436810000000006  0.007907335000000034  0.5146322140976182  1.0000
  Ni  Ni27      1.0  0.037173090000000034  0.7533025050000001  0.4910145712053779  1.0000
  Ni  Ni28      1.0  0.04400818000000005  0.22860556500000007  0.493960575361586  1.0000
  Ni  Ni29      1.0  0.96282691  0.9763410649999998  0.46940520035565114  1.0000
  Ni  Ni30      1.0  0.13097025000000012  0.48539783499999994  0.5162348456369591  1.0000
