data_image0
_chemical_formula_structural       COAl36Co8
_chemical_formula_sum              "C1 O1 Al36 Co8"
_cell_length_a       10.678808904592712
_cell_length_b       6.235511081830167
_cell_length_c       102.03642672000001
_cell_angle_alpha    86.06601613518423
_cell_angle_beta     107.4866882820146
_cell_angle_gamma    93.93398385135153

_space_group_name_H-M_alt    "P 1"
_space_group_IT_number       1

loop_
  _space_group_symop_operation_xyz
  'x, y, z'

loop_
  _atom_site_type_symbol
  _atom_site_label
  _atom_site_symmetry_multiplicity
  _atom_site_fract_x
  _atom_site_fract_y
  _atom_site_fract_z
  _atom_site_occupancy
  C   C1        1.0  0.25312942000000005  0.7489718200000002  0.5514993264509231  1.0000
  O   O1        1.0  0.26830349000000003  0.66057044  0.5622398738111121  1.0000
  Al  Al1       1.0  0.55940148  0.48983851  0.4932540081108027  1.0000
  Al  Al2       1.0  0.05940148000000004  0.48983851  0.44092559235028833  1.0000
  Al  Al3       1.0  0.55940148  0.48983851  0.4409255923502883  1.0000
  Al  Al4       1.0  0.05940148000000004  0.48983851  0.4932540081108028  1.0000
  Al  Al5       1.0  0.9087649600000001  0.08419411000000002  0.45314991086312284  1.0000
  Al  Al6       1.0  0.40876496  0.08419411  0.5054783266236372  1.0000
  Al  Al7       1.0  0.68391013  0.91769609  0.529881415950571  1.0000
  Al  Al8       1.0  0.17620531000000003  0.8954829100000001  0.4774888654384148  1.0000
  Al  Al9       1.0  0.21098752  0.9143153199999999  0.5328872500966133  1.0000
  Al  Al10      1.0  0.71003799  0.89548291  0.4810296864582633  1.0000
  Al  Al11      1.0  0.44259764000000007  0.08419411  0.4566907318829713  1.0000
  Al  Al12      1.0  0.93900541  0.08230391000000001  0.5083187736752713  1.0000
  Al  Al13      1.0  0.5913155  0.40516904000000004  0.5212461380451755  1.0000
  Al  Al14      1.0  0.08964761000000004  0.40219435999999986  0.4680867868285988  1.0000
  Al  Al15      1.0  0.81892774  0.5774826599999999  0.44409105537198384  1.0000
  Al  Al16      1.0  0.31892774  0.5774826599999999  0.4964194711324983  1.0000
  Al  Al17      1.0  0.5291553400000001  0.5774826599999999  0.46609281049278733  1.0000
  Al  Al18      1.0  0.03529514000000004  0.57961724  0.5194823146360955  1.0000
  Al  Al19      1.0  0.29987521000000006  0.40219436  0.4377601261888878  1.0000
  Al  Al20      1.0  0.7998752100000001  0.40219436  0.49008854194940227  1.0000
  Al  Al21      1.0  0.15643485000000007  0.09968335000000003  0.45083624035702624  1.0000
  Al  Al22      1.0  0.65643485  0.09968335000000002  0.5031646561175406  1.0000
  Al  Al23      1.0  0.6540981  0.8799936700000002  0.45108079824976016  1.0000
  Al  Al24      1.0  0.15409810000000004  0.87999367  0.5034092108705697  1.0000
  Al  Al25      1.0  0.9510365700000001  0.90789026  0.5344584431920167  1.0000
  Al  Al26      1.0  0.46236811000000005  0.87999367  0.4833433601040648  1.0000
  Al  Al27      1.0  0.47207954  0.09066926000000002  0.5338179622341472  1.0000
  Al  Al28      1.0  0.96470486  0.09968335000000002  0.48309880221133084  1.0000
  Al  Al29      1.0  0.85150769  0.29843498  0.5265398468819972  1.0000
  Al  Al30      1.0  0.34442941000000005  0.27389915000000004  0.475359997961722  1.0000
  Al  Al31      1.0  0.38288246000000004  0.6909295699999999  0.5230522564187322  1.0000
  Al  Al32      1.0  0.8884235500000001  0.70577787  0.47075571180248355  1.0000
  Al  Al33      1.0  0.27437354  0.70577787  0.45881959935966415  1.0000
  Al  Al34      1.0  0.7738784900000001  0.7005872499999999  0.5109386344809519  1.0000
  Al  Al35      1.0  0.7303794  0.27389915000000004  0.4634238855189027  1.0000
  Al  Al36      1.0  0.23334176000000004  0.28840353  0.5164353848928417  1.0000
  Co  Co1       1.0  0.70187845  0.22611230999999998  0.438412886532554  1.0000
  Co  Co2       1.0  0.20187845000000004  0.22611230999999998  0.49074129915336356  1.0000
  Co  Co3       1.0  0.53647506  0.756374  0.5086017489969517  1.0000
  Co  Co4       1.0  0.03539247000000004  0.75356471  0.45583677925041294  1.0000
  Co  Co5       1.0  0.41692450000000003  0.75356471  0.44343829816802255  1.0000
  Co  Co6       1.0  0.9169245  0.75356471  0.495766713928537  1.0000
  Co  Co7       1.0  0.5834104800000001  0.22611231000000004  0.47834281807097323  1.0000
  Co  Co8       1.0  0.07521034000000004  0.21682207  0.5291963919995287  1.0000
