data_image0
_chemical_formula_structural       COSn8Pd16Sn8Pd16
_chemical_formula_sum              "C1 O1 Sn16 Pd32"
_cell_length_a       9.412706456975558
_cell_length_b       12.366279116769974
_cell_length_c       105.26560288
_cell_angle_alpha    69.1164712810013
_cell_angle_beta     62.07441365668064
_cell_angle_gamma    80.38985445524935

_space_group_name_H-M_alt    "P 1"
_space_group_IT_number       1

loop_
  _space_group_symop_operation_xyz
  'x, y, z'

loop_
  _atom_site_type_symbol
  _atom_site_label
  _atom_site_symmetry_multiplicity
  _atom_site_fract_x
  _atom_site_fract_y
  _atom_site_fract_z
  _atom_site_occupancy
  C   C1        1.0  0.854645645  0.8120326950000001  0.5357443356371002  1.0000
  O   O1        1.0  0.822424285  0.805985145  0.5482570285328828  1.0000
  Sn  Sn1       1.0  0.6210564850000001  0.14535720500000002  0.49596102698377  1.0000
  Sn  Sn2       1.0  0.600552015  0.650415615  0.5181821492351957  1.0000
  Sn  Sn3       1.0  0.40761920499999993  0.317867055  0.5192942062064114  1.0000
  Sn  Sn4       1.0  0.397343625  0.849017465  0.4968007666498383  1.0000
  Sn  Sn5       1.0  0.9000248650000001  0.391570435  0.5163592497906971  1.0000
  Sn  Sn6       1.0  0.897343625  0.895357205  0.4948601997302987  1.0000
  Sn  Sn7       1.0  0.12105648499999999  0.09901746500000001  0.49790159055315514  1.0000
  Sn  Sn8       1.0  0.12250411499999998  0.596433355  0.5195258693872069  1.0000
  Pd  Pd1       1.0  0.21774556499999997  0.472710645  0.4991418914370367  1.0000
  Pd  Pd2       1.0  0.24124416499999995  0.978335975  0.5174277614542632  1.0000
  Pd  Pd3       1.0  0.795397675  0.025113965000000012  0.5137894401100167  1.0000
  Pd  Pd4       1.0  0.800654545  0.521664025  0.4936199021965716  1.0000
  Pd  Pd5       1.0  0.2838626649999999  0.22753561499999997  0.5062411668980407  1.0000
  Pd  Pd6       1.0  0.29373933499999993  0.7185348050000001  0.5250088762303945  1.0000
  Pd  Pd7       1.0  0.730182835  0.268301715  0.5070479376940842  1.0000
  Pd  Pd8       1.0  0.732768435  0.7821872450000001  0.5256400486805033  1.0000
  Pd  Pd9       1.0  0.587029035  0.42269775499999995  0.5253766327357516  1.0000
  Pd  Pd10      1.0  0.566908745  0.9072596650000001  0.5084895426590594  1.0000
  Pd  Pd11      1.0  0.439065875  0.08313162500000003  0.5245495968553896  1.0000
  Pd  Pd12      1.0  0.44738176499999993  0.563939895  0.5059881096308741  1.0000
  Pd  Pd13      1.0  0.9441262950000001  0.16517654500000004  0.521838259899616  1.0000
  Pd  Pd14      1.0  0.948866325  0.661173805  0.502509470048731  1.0000
  Pd  Pd15      1.0  0.090277075  0.359370725  0.5300576293523812  1.0000
  Pd  Pd16      1.0  0.05113367499999999  0.8340475950000001  0.5148069222208731  1.0000
  Sn  Sn9       1.0  0.6210564850000001  0.14535720500000002  0.45408409625431573  1.0000
  Sn  Sn10      1.0  0.6210564850000001  0.645357205  0.4750225616190428  1.0000
  Sn  Sn11      1.0  0.397343625  0.349017465  0.4758623012851111  1.0000
  Sn  Sn12      1.0  0.397343625  0.849017465  0.454923835920384  1.0000
  Sn  Sn13      1.0  0.897343625  0.395357205  0.4739217343655716  1.0000
  Sn  Sn14      1.0  0.897343625  0.895357205  0.4529832690008445  1.0000
  Sn  Sn15      1.0  0.12105648499999999  0.09901746500000001  0.4560246598237009  1.0000
  Sn  Sn16      1.0  0.12105648499999999  0.599017465  0.47696312518842804  1.0000
  Pd  Pd17      1.0  0.21774556499999997  0.472710645  0.45726496070758244  1.0000
  Pd  Pd18      1.0  0.21774556499999997  0.972710645  0.4782034260723096  1.0000
  Pd  Pd19      1.0  0.800654545  0.02166402500000001  0.47268143683184444  1.0000
  Pd  Pd20      1.0  0.800654545  0.521664025  0.45174297146711734  1.0000
  Pd  Pd21      1.0  0.300654545  0.222710645  0.464262220615175  1.0000
  Pd  Pd22      1.0  0.300654545  0.722710645  0.4852006859799021  1.0000
  Pd  Pd23      1.0  0.717745565  0.27166402500000003  0.46568417692425207  1.0000
  Pd  Pd24      1.0  0.717745565  0.771664025  0.4866226422889791  1.0000
  Pd  Pd25      1.0  0.569533785  0.411173805  0.4869870553401868  1.0000
  Pd  Pd26      1.0  0.569533785  0.9111738050000001  0.4660485899754597  1.0000
  Pd  Pd27      1.0  0.44886632499999995  0.08320086500000001  0.48483627292869436  1.0000
  Pd  Pd28      1.0  0.44886632499999995  0.583200865  0.46389780756396726  1.0000
  Pd  Pd29      1.0  0.948866325  0.161173805  0.4815710046840039  1.0000
  Pd  Pd30      1.0  0.948866325  0.661173805  0.4606325393192768  1.0000
  Pd  Pd31      1.0  0.06953378499999997  0.333200865  0.49025232358487736  1.0000
  Pd  Pd32      1.0  0.06953378499999997  0.8332008650000001  0.46931385822015026  1.0000
