data_image0
_chemical_formula_structural       COSn16V8
_chemical_formula_sum              "C1 O1 Sn16 V8"
_cell_length_a       5.56165772
_cell_length_b       9.85303410392785
_cell_length_c       31.845948829999998
_cell_angle_alpha    90.0
_cell_angle_beta     90.0
_cell_angle_gamma    106.39338596849075

_space_group_name_H-M_alt    "P 1"
_space_group_IT_number       1

loop_
  _space_group_symop_operation_xyz
  'x, y, z'

loop_
  _atom_site_type_symbol
  _atom_site_label
  _atom_site_symmetry_multiplicity
  _atom_site_fract_x
  _atom_site_fract_y
  _atom_site_fract_z
  _atom_site_occupancy
  C   C1        1.0  0.2898031750000001  0.28480947500000003  0.6249859343792599  1.0000
  O   O1        1.0  0.21949600500000002  0.254728705  0.6597312286223707  1.0000
  Sn  Sn1       1.0  0.5695147350000002  0.5926935750000001  0.608584338533602  1.0000
  Sn  Sn2       1.0  0.544252525  0.5818950350000001  0.5144786685928068  1.0000
  Sn  Sn3       1.0  0.5538209150000001  0.08280837500000002  0.5848076627302711  1.0000
  Sn  Sn4       1.0  0.5419748150000001  0.08509088500000002  0.3901230150877771  1.0000
  Sn  Sn5       1.0  0.6259244450000001  0.7529901450000002  0.4151488828434431  1.0000
  Sn  Sn6       1.0  0.458025185  0.417191625  0.4151488828434431  1.0000
  Sn  Sn7       1.0  0.458025185  0.917191625  0.49002899430925684  1.0000
  Sn  Sn8       1.0  0.625924445  0.252990145  0.49002899430925684  1.0000
  Sn  Sn9       1.0  0.04197481500000008  0.5850908850000001  0.46500312655359083  1.0000
  Sn  Sn10      1.0  0.04197481500000008  0.5850908850000001  0.36529465111411336  1.0000
  Sn  Sn11      1.0  0.04197481500000006  0.08509088500000002  0.4401747625799271  1.0000
  Sn  Sn12      1.0  0.050833835000000056  0.08689903500000001  0.5399329464326  1.0000
  Sn  Sn13      1.0  0.14520967500000007  0.7710221850000001  0.568774920323285  1.0000
  Sn  Sn14      1.0  0.9564715050000001  0.402868095  0.5668303257613801  1.0000
  Sn  Sn15      1.0  0.958025185  0.917191625  0.34026877137762934  1.0000
  Sn  Sn16      1.0  0.12592444500000005  0.252990145  0.34026877137762934  1.0000
  V   V1        1.0  0.9143908250000002  0.32992290500000004  0.4151488828434431  1.0000
  V   V2        1.0  0.1695588050000001  0.840258865  0.4151488828434431  1.0000
  V   V3        1.0  0.16955880500000006  0.340258865  0.49002899430925684  1.0000
  V   V4        1.0  0.914390825  0.8299229050000001  0.49002899430925684  1.0000
  V   V5        1.0  0.41093102500000006  0.329242515  0.5673108524030874  1.0000
  V   V6        1.0  0.692428935  0.840535385  0.5596565954282342  1.0000
  V   V7        1.0  0.669558805  0.340258865  0.34026877137762934  1.0000
  V   V8        1.0  0.4143908250000001  0.8299229050000001  0.34026877137762934  1.0000
