data_image0
_chemical_formula_structural       COIn4Ni8In4Ni8
_chemical_formula_sum              "C1 O1 In8 Ni16"
_cell_length_a       7.55665237
_cell_length_b       6.864796816033053
_cell_length_c       100.53984694
_cell_angle_alpha    108.52803956771653
_cell_angle_beta     90.0
_cell_angle_gamma    56.60612071837424

_space_group_name_H-M_alt    "P 1"
_space_group_IT_number       1

loop_
  _space_group_symop_operation_xyz
  'x, y, z'

loop_
  _atom_site_type_symbol
  _atom_site_label
  _atom_site_symmetry_multiplicity
  _atom_site_fract_x
  _atom_site_fract_y
  _atom_site_fract_z
  _atom_site_occupancy
  C   C1        1.0  0.995665975  0.7665677949999999  0.5374125966406852  1.0000
  O   O1        1.0  0.9840167550000001  0.7858406750000001  0.5497940994339584  1.0000
  In  In1       1.0  0.04600069500000002  0.251304005  0.47190294568134694  1.0000
  In  In2       1.0  0.546000695  0.251304005  0.4502059005660416  1.0000
  In  In3       1.0  0.462667355  0.7513040049999999  0.4827514697577928  1.0000
  In  In4       1.0  0.9626673550000001  0.7513040049999999  0.461054421604901  1.0000
  Ni  Ni1       1.0  0.004334025000000016  0.0013040049999999998  0.4881757302772226  1.0000
  Ni  Ni2       1.0  0.5043340249999999  0.0013040049999999998  0.4664786851619172  1.0000
  Ni  Ni3       1.0  0.754334025  0.5013040049999999  0.4556301610854713  1.0000
  Ni  Ni4       1.0  0.25433402499999996  0.5013040049999999  0.4773272062007767  1.0000
  Ni  Ni5       1.0  0.7960006950000001  0.7513040049999999  0.4827514697577928  1.0000
  Ni  Ni6       1.0  0.2960006949999999  0.7513040049999999  0.461054421604901  1.0000
  Ni  Ni7       1.0  0.712667355  0.251304005  0.47190294568134694  1.0000
  Ni  Ni8       1.0  0.21266735500000003  0.251304005  0.4502059005660416  1.0000
  In  In5       1.0  0.011995095000000006  0.270816525  0.5167182496756335  1.0000
  In  In6       1.0  0.546000695  0.251304005  0.4935999907966523  1.0000
  In  In7       1.0  0.476679545  0.7148735850000001  0.5263750921653871  1.0000
  In  In8       1.0  0.9735512250000001  0.745591485  0.5028290439217752  1.0000
  Ni  Ni9       1.0  0.009780115000000018  0.9621765449999999  0.5278155490387607  1.0000
  Ni  Ni10      1.0  0.494403705  0.998695995  0.5096336687432843  1.0000
  Ni  Ni11      1.0  0.755167775  0.5068764950000001  0.49849340575844237  1.0000
  Ni  Ni12      1.0  0.235798505  0.497197755  0.5199090215335148  1.0000
  Ni  Ni13      1.0  0.794040335  0.775182115  0.5250147242944269  1.0000
  Ni  Ni14      1.0  0.297637315  0.774356555  0.5051619527854394  1.0000
  Ni  Ni15      1.0  0.6604938249999999  0.22565238499999996  0.519480983086801  1.0000
  Ni  Ni16      1.0  0.21266735500000003  0.251304005  0.4935999907966523  1.0000
