data_image0
_chemical_formula_structural       Si12W6Si12W6CO
_chemical_formula_sum              "Si24 W12 C1 O1"
_cell_length_a       6.4775359
_cell_length_b       10.200754540631582
_cell_length_c       104.07909383
_cell_angle_alpha    61.76319749990481
_cell_angle_beta     90.0
_cell_angle_gamma    90.0

_space_group_name_H-M_alt    "P 1"
_space_group_IT_number       1

loop_
  _space_group_symop_operation_xyz
  'x, y, z'

loop_
  _atom_site_type_symbol
  _atom_site_label
  _atom_site_symmetry_multiplicity
  _atom_site_fract_x
  _atom_site_fract_y
  _atom_site_fract_z
  _atom_site_occupancy
  Si  Si1       1.0  0.015034245000000035  0.834131265  0.4931920752775432  1.0000
  Si  Si2       1.0  0.015034245000000035  0.16746460499999996  0.465905861805364  1.0000
  Si  Si3       1.0  0.0054323650000000345  0.5109822049999999  0.5202783571983718  1.0000
  Si  Si4       1.0  0.26503424500000006  0.6108451349999999  0.4975655992465852  1.0000
  Si  Si5       1.0  0.26503424500000006  0.944178465  0.4702793825000602  1.0000
  Si  Si6       1.0  0.26503426500000005  0.261108625  0.5256435724409629  1.0000
  Si  Si7       1.0  0.26503424500000006  0.834131265  0.4522627534321015  1.0000
  Si  Si8       1.0  0.26503424500000006  0.15335063499999999  0.5075670621379714  1.0000
  Si  Si9       1.0  0.26503424500000006  0.5007979349999999  0.4795489669042807  1.0000
  Si  Si10      1.0  0.018958935000000034  0.9374426849999998  0.5125529411513532  1.0000
  Si  Si11      1.0  0.015034245000000035  0.277511805  0.48392249087332273  1.0000
  Si  Si12      1.0  0.015034245000000035  0.6108451349999999  0.4566362774011435  1.0000
  W   W1        1.0  0.015034245000000035  0.722488205  0.47491417633934335  1.0000
  W   W2        1.0  0.994567635  0.06904709499999998  0.5276113658279566  1.0000
  W   W3        1.0  0.016620845000000037  0.387461825  0.5028613950849807  1.0000
  W   W4        1.0  0.26503424500000006  0.7247155949999999  0.5147039472803101  1.0000
  W   W5        1.0  0.26503424500000006  0.055821534999999985  0.4885572847126059  1.0000
  W   W6        1.0  0.26503424500000006  0.38915486499999996  0.46127106796608086  1.0000
  Si  Si13      1.0  0.5150342450000001  0.834131265  0.4931920752775432  1.0000
  Si  Si14      1.0  0.5150342450000001  0.16746460499999996  0.465905861805364  1.0000
  Si  Si15      1.0  0.5246361150000001  0.5109822249999999  0.520278353924026  1.0000
  Si  Si16      1.0  0.7650342450000002  0.6108451349999999  0.4975655992465852  1.0000
  Si  Si17      1.0  0.7650342450000002  0.944178465  0.4702793825000602  1.0000
  Si  Si18      1.0  0.7650342350000001  0.28252805499999994  0.5253497621226819  1.0000
  Si  Si19      1.0  0.7650342450000002  0.834131265  0.4522627534321015  1.0000
  Si  Si20      1.0  0.7650342450000002  0.16378422499999998  0.5064656082462701  1.0000
  Si  Si21      1.0  0.7650342450000002  0.5007979349999999  0.4795489669042807  1.0000
  Si  Si22      1.0  0.511109555  0.937442695  0.5125529378770074  1.0000
  Si  Si23      1.0  0.5150342450000001  0.277511805  0.48392249087332273  1.0000
  Si  Si24      1.0  0.5150342450000001  0.6108451349999999  0.4566362774011435  1.0000
  W   W7        1.0  0.5150342450000001  0.722488205  0.47491417633934335  1.0000
  W   W8        1.0  0.5355008550000001  0.06904709499999998  0.5276113658279566  1.0000
  W   W9        1.0  0.5134476450000001  0.387461825  0.5028613950849807  1.0000
  W   W10       1.0  0.7650342450000002  0.729283055  0.5146860660781822  1.0000
  W   W11       1.0  0.7650342450000002  0.055821534999999985  0.4885572847126059  1.0000
  W   W12       1.0  0.7650342450000002  0.38915486499999996  0.46127106796608086  1.0000
  C   C1        1.0  0.265034205  0.400111395  0.5347289061356182  1.0000
  O   O1        1.0  0.26503432500000007  0.368555545  0.5477372465678984  1.0000
