data_image0
_chemical_formula_structural       COIn9Ni13
_chemical_formula_sum              "C1 O1 In9 Ni13"
_cell_length_a       6.826261678469524
_cell_length_b       6.826261678756332
_cell_length_c       99.97820516
_cell_angle_alpha    89.9025748420851
_cell_angle_beta     89.90257484208101
_cell_angle_gamma    77.56223315399194

_space_group_name_H-M_alt    "P 1"
_space_group_IT_number       1

loop_
  _space_group_symop_operation_xyz
  'x, y, z'

loop_
  _atom_site_type_symbol
  _atom_site_label
  _atom_site_symmetry_multiplicity
  _atom_site_fract_x
  _atom_site_fract_y
  _atom_site_fract_z
  _atom_site_occupancy
  C   C1        1.0  0.16854382  0.6380039500000001  0.5334521126849078  1.0000
  O   O1        1.0  0.1722807799999999  0.6320746500000001  0.5453377009189881  1.0000
  In  In1       1.0  0.68401485  0.10658126000000002  0.49696884260447116  1.0000
  In  In2       1.0  0.67200805  0.6732351700000001  0.515219963317279  1.0000
  In  In3       1.0  0.9179068100000001  0.9179068100000001  0.4586704552662332  1.0000
  In  In4       1.0  0.10656703999999996  0.68517118  0.49697794597162204  1.0000
  In  In5       1.0  0.13740808  0.13771677000000002  0.5117249689757893  1.0000
  In  In6       1.0  0.5369617999999999  0.5369618  0.48357653616338103  1.0000
  In  In7       1.0  0.38404222000000005  0.9630382000000001  0.46932561368572245  1.0000
  In  In8       1.0  0.9630382000000002  0.38404222  0.46932561368572245  1.0000
  In  In9       1.0  0.40201408999999994  0.40201409000000005  0.45466229908101197  1.0000
  Ni  Ni1       1.0  0.40082955  0.89238439  0.4966938015772482  1.0000
  Ni  Ni2       1.0  0.28210621  0.75671628  0.5193166584436173  1.0000
  Ni  Ni3       1.0  0.65371812  0.6537181200000001  0.45937106371538966  1.0000
  Ni  Ni4       1.0  0.9002488700000001  0.4020378  0.4965008707628249  1.0000
  Ni  Ni5       1.0  0.40925248000000003  0.40483369  0.5098078016528982  1.0000
  Ni  Ni6       1.0  0.50836061  0.04963977000000002  0.5184899611630834  1.0000
  Ni  Ni7       1.0  0.78856468  0.7885646799999999  0.48204137743020975  1.0000
  Ni  Ni8       1.0  0.18149579  0.6625868300000001  0.4716439438504281  1.0000
  Ni  Ni9       1.0  0.28535891  0.2853589100000001  0.4851116948965523  1.0000
  Ni  Ni10      1.0  0.66258683  0.18149579000000002  0.47164394385042824  1.0000
  Ni  Ni11      1.0  0.05158843999999997  0.51531083  0.5195488512769714  1.0000
  Ni  Ni12      1.0  0.036961799999999975  0.03696180000000002  0.483576536163381  1.0000
  Ni  Ni13      1.0  0.7606402000000001  0.28893033  0.5181272207674714  1.0000
