data_image0
_chemical_formula_structural       COAl18Ir4
_chemical_formula_sum              "C1 O1 Al18 Ir4"
_cell_length_a       6.432790828200162
_cell_length_b       6.49111758
_cell_length_c       34.73087342
_cell_angle_alpha    90.0
_cell_angle_beta     85.0101390511952
_cell_angle_gamma    90.0

_space_group_name_H-M_alt    "P 1"
_space_group_IT_number       1

loop_
  _space_group_symop_operation_xyz
  'x, y, z'

loop_
  _atom_site_type_symbol
  _atom_site_label
  _atom_site_symmetry_multiplicity
  _atom_site_fract_x
  _atom_site_fract_y
  _atom_site_fract_z
  _atom_site_occupancy
  C   C1        1.0  0.37148233499999994  0.21749373500000002  0.6270906805837968  1.0000
  O   O1        1.0  0.332148615  0.237619545  0.6610201894188494  1.0000
  Al  Al1       1.0  0.009088415000000015  0.506643755  0.38174009869785297  1.0000
  Al  Al2       1.0  0.007442325000000014  0.013204695000000032  0.5110917141145265  1.0000
  Al  Al3       1.0  0.220781595  0.615339665  0.497490542383272  1.0000
  Al  Al4       1.0  0.7959328849999999  0.11048487500000001  0.3917808944184273  1.0000
  Al  Al5       1.0  0.45017968499999994  0.5477507850000001  0.5643471824556823  1.0000
  Al  Al6       1.0  0.561444225  0.12001564500000005  0.5801720913343135  1.0000
  Al  Al7       1.0  0.6086678549999999  0.486795305  0.45030730424440235  1.0000
  Al  Al8       1.0  0.40950897499999994  0.986795305  0.4401101117030831  1.0000
  Al  Al9       1.0  0.39717922499999997  0.31201271500000005  0.38211948868701173  1.0000
  Al  Al10      1.0  0.617496745  0.8126088250000001  0.5060519405556496  1.0000
  Al  Al11      1.0  0.6209976049999999  0.701274795  0.3813606985537158  1.0000
  Al  Al12      1.0  0.39896422499999995  0.21342500500000003  0.5076438958832851  1.0000
  Al  Al13      1.0  0.118335685  0.225757775  0.5786891801636261  1.0000
  Al  Al14      1.0  0.9925576749999999  0.645531285  0.5716777160186929  1.0000
  Al  Al15      1.0  0.910994475  0.791232895  0.4393703418441366  1.0000
  Al  Al16      1.0  0.10718235500000002  0.291232895  0.45104707410334877  1.0000
  Al  Al17      1.0  0.22224394500000003  0.902802635  0.3716993029772786  1.0000
  Al  Al18      1.0  0.8088761549999999  0.413041855  0.5182780977606177  1.0000
  Ir  Ir1       1.0  0.27327052500000004  0.6294912850000001  0.4245003766595773  1.0000
  Ir  Ir2       1.0  0.7449063049999999  0.12949128500000004  0.4659170392879082  1.0000
  Ir  Ir3       1.0  0.7449063049999999  0.38379622500000005  0.33897981058115034  1.0000
  Ir  Ir4       1.0  0.286478525  0.892283405  0.5491770868875686  1.0000
