data_image0
_chemical_formula_structural       COSb4Pd4Sb4Pd4
_chemical_formula_sum              "C1 O1 Sb8 Pd8"
_cell_length_a       7.086713526895499
_cell_length_b       7.23284663
_cell_length_c       103.40708757
_cell_angle_alpha    90.0
_cell_angle_beta     72.86477871526536
_cell_angle_gamma    59.31549532227066

_space_group_name_H-M_alt    "P 1"
_space_group_IT_number       1

loop_
  _space_group_symop_operation_xyz
  'x, y, z'

loop_
  _atom_site_type_symbol
  _atom_site_label
  _atom_site_symmetry_multiplicity
  _atom_site_fract_x
  _atom_site_fract_y
  _atom_site_fract_z
  _atom_site_occupancy
  C   C1        1.0  0.07344915499999999  0.8876819149999999  0.5364559061317007  1.0000
  O   O1        1.0  0.987990735  0.900053585  0.5481846698677402  1.0000
  Sb  Sb1       1.0  0.5061576050000001  0.3874447349999998  0.5078788834002942  1.0000
  Sb  Sb2       1.0  0.616118745  0.8345479149999998  0.5259964116409687  1.0000
  Sb  Sb3       1.0  0.012009265000000102  0.8082797549999997  0.4972461782484599  1.0000
  Sb  Sb4       1.0  0.990711825  0.3440913849999998  0.5175825410345343  1.0000
  Pd  Pd1       1.0  0.262009265  0.34994641499999996  0.49219830623554867  1.0000
  Pd  Pd2       1.0  0.269332975  0.8508764849999998  0.5179614819597352  1.0000
  Pd  Pd3       1.0  0.785182375  0.10050176499999994  0.5201513764491406  1.0000
  Pd  Pd4       1.0  0.748472305  0.6010037349999999  0.5007926015179364  1.0000
  Sb  Sb5       1.0  0.512009265  0.39161308499999997  0.4669589461709933  1.0000
  Sb  Sb6       1.0  0.512009265  0.8916130849999998  0.4871504342226377  1.0000
  Sb  Sb7       1.0  0.012009265000000102  0.8082797549999997  0.45686320214517107  1.0000
  Sb  Sb8       1.0  0.012009265000000102  0.308279755  0.47705469019681546  1.0000
  Pd  Pd5       1.0  0.262009265  0.34994641499999996  0.45181533013225994  1.0000
  Pd  Pd6       1.0  0.262009265  0.8499464149999999  0.47200681818390433  1.0000
  Pd  Pd7       1.0  0.762009265  0.09994641499999997  0.4821025622097265  1.0000
  Pd  Pd8       1.0  0.762009265  0.5999464149999998  0.4619110741580822  1.0000
