data_image0
_chemical_formula_structural       COCu6Si2Cu6Si2Cu6Si2Cu6Si2
_chemical_formula_sum              "C1 O1 Cu24 Si8"
_cell_length_a       7.30327684
_cell_length_b       7.45766428
_cell_length_c       99.21310736
_cell_angle_alpha    90.0
_cell_angle_beta     90.0
_cell_angle_gamma    90.0

_space_group_name_H-M_alt    "P 1"
_space_group_IT_number       1

loop_
  _space_group_symop_operation_xyz
  'x, y, z'

loop_
  _atom_site_type_symbol
  _atom_site_label
  _atom_site_symmetry_multiplicity
  _atom_site_fract_x
  _atom_site_fract_y
  _atom_site_fract_z
  _atom_site_occupancy
  C   C1        1.0  0.396464655  1.189999999873237e-06  0.5283328173725372  1.0000
  O   O1        1.0  0.39646424500000005  0.99999881  0.5406274992185739  1.0000
  Cu  Cu1       1.0  0.14646320499999999  0.25000600999999995  0.45937250078142605  1.0000
  Cu  Cu2       1.0  0.39646320499999993  0.25000600999999995  0.4777755047653142  1.0000
  Cu  Cu3       1.0  0.39646320499999993  6.009999999981121e-06  0.45937250078142605  1.0000
  Cu  Cu4       1.0  0.39646320499999993  0.75000601  0.4777755047653142  1.0000
  Cu  Cu5       1.0  0.14646320499999999  0.75000601  0.45937250078142605  1.0000
  Cu  Cu6       1.0  0.14646320499999999  0.5000060099999999  0.4777755047653142  1.0000
  Si  Si1       1.0  0.14646320499999999  6.009999999981121e-06  0.4777755047653142  1.0000
  Si  Si2       1.0  0.39646320499999993  0.5000060099999999  0.45937250078142605  1.0000
  Cu  Cu7       1.0  0.14206428499999998  0.24315721999999995  0.49669921659408534  1.0000
  Cu  Cu8       1.0  0.396462035  0.2779413699999999  0.5137210147671296  1.0000
  Cu  Cu9       1.0  0.396463685  7.289999999981122e-06  0.4956623825161912  1.0000
  Cu  Cu10      1.0  0.3964620549999999  0.7220694  0.5137211060460294  1.0000
  Cu  Cu11      1.0  0.142067195  0.7568562899999999  0.49669924309441105  1.0000
  Cu  Cu12      1.0  0.10353531499999999  0.5000057199999999  0.5136039863841952  1.0000
  Si  Si3       1.0  0.179105645  6.2599999999811215e-06  0.5152865362324341  1.0000
  Si  Si4       1.0  0.396463295  0.5000058399999998  0.49629755410137333  1.0000
  Cu  Cu13      1.0  0.646463205  0.25000600999999995  0.45937250078142605  1.0000
  Cu  Cu14      1.0  0.896463205  0.25000600999999995  0.4777755047653142  1.0000
  Cu  Cu15      1.0  0.896463205  6.009999999981121e-06  0.45937250078142605  1.0000
  Cu  Cu16      1.0  0.896463205  0.75000601  0.4777755047653142  1.0000
  Cu  Cu17      1.0  0.646463205  0.75000601  0.45937250078142605  1.0000
  Cu  Cu18      1.0  0.646463205  0.5000060099999999  0.4777755047653142  1.0000
  Si  Si5       1.0  0.646463205  6.009999999981121e-06  0.4777755047653142  1.0000
  Si  Si6       1.0  0.896463205  0.5000060099999999  0.45937250078142605  1.0000
  Cu  Cu19      1.0  0.650863165  0.24315764999999995  0.4966997053778711  1.0000
  Cu  Cu20      1.0  0.8964646849999999  0.18439367999999998  0.515537629763271  1.0000
  Cu  Cu21      1.0  0.8964630449999998  6.109999999981121e-06  0.49398812432542716  1.0000
  Cu  Cu22      1.0  0.8964646749999999  0.81561515  0.5155368141421344  1.0000
  Cu  Cu23      1.0  0.6508602449999998  0.75685587  0.4966997230447549  1.0000
  Cu  Cu24      1.0  0.689392545  0.5000057399999999  0.5136042425540107  1.0000
  Si  Si7       1.0  0.6138222649999999  6.249999999981121e-06  0.5152865332879535  1.0000
  Si  Si8       1.0  0.896463005  0.5000069699999999  0.4950707627441171  1.0000
