data_image0
_chemical_formula_structural       COGa9Ag18
_chemical_formula_sum              "C1 O1 Ga9 Ag18"
_cell_length_a       8.494677861803998
_cell_length_b       13.7918329
_cell_length_c       103.97871144999999
_cell_angle_alpha    90.0
_cell_angle_beta     71.45711438656292
_cell_angle_gamma    35.72855719858223

_space_group_name_H-M_alt    "P 1"
_space_group_IT_number       1

loop_
  _space_group_symop_operation_xyz
  'x, y, z'

loop_
  _atom_site_type_symbol
  _atom_site_label
  _atom_site_symmetry_multiplicity
  _atom_site_fract_x
  _atom_site_fract_y
  _atom_site_fract_z
  _atom_site_occupancy
  C   C1        1.0  0.3381240900000001  0.5114693899999999  0.5448485171759718  1.0000
  O   O1        1.0  0.33535729000000003  0.52882823  0.5558440311340178  1.0000
  Ga  Ga1       1.0  0.38206960000000006  0.11574472  0.4713880770017552  1.0000
  Ga  Ga2       1.0  0.7030671  0.45390462  0.49966000933569277  1.0000
  Ga  Ga3       1.0  0.04873627000000015  0.7824113899999999  0.44415596886598224  1.0000
  Ga  Ga4       1.0  0.38206960000000006  0.4490780499999999  0.4713880770017552  1.0000
  Ga  Ga5       1.0  0.6688337299999998  0.8072469800000001  0.5010007504832529  1.0000
  Ga  Ga6       1.0  0.04873626999999996  0.11574471999999998  0.44415596886598224  1.0000
  Ga  Ga7       1.0  0.048736269999999894  0.9490780499999999  0.485004127801789  1.0000
  Ga  Ga8       1.0  0.3374341200000001  0.3051023299999999  0.5157911760491328  1.0000
  Ga  Ga9       1.0  0.7154029400000004  0.6157447199999998  0.4577720229338687  1.0000
  Ag  Ag1       1.0  0.6135590399999999  0.013900820000000038  0.4902999118759171  1.0000
  Ag  Ag2       1.0  0.9512637300000002  0.3506409999999999  0.516985380145253  1.0000
  Ag  Ag3       1.0  0.28022571  0.6805674899999998  0.463067803740144  1.0000
  Ag  Ag4       1.0  0.2524240700000001  0.34723415999999996  0.46079651212135186  1.0000
  Ag  Ag5       1.0  0.5857573999999999  0.6805674899999999  0.4880286202571249  1.0000
  Ag  Ag6       1.0  0.90535344  0.020075390000000026  0.5150160054387871  1.0000
  Ag  Ag7       1.0  0.6135590399999999  0.31943252  0.49029991187591715  1.0000
  Ag  Ag8       1.0  0.9361710599999999  0.65553388  0.5173000318796092  1.0000
  Ag  Ag9       1.0  0.28022571000000024  0.9860991799999997  0.463067803740144  1.0000
  Ag  Ag10      1.0  0.83575263  0.3750453400000001  0.4676041486468957  1.0000
  Ag  Ag11      1.0  0.1765051600000001  0.70436664  0.4954500248795746  1.0000
  Ag  Ag12      1.0  0.5067174599999998  0.04022827  0.520541120880739  1.0000
  Ag  Ag13      1.0  0.8080368899999999  0.06942774000000007  0.46533987637573504  1.0000
  Ag  Ag14      1.0  0.14137023000000004  0.40276107999999994  0.4925719812436554  1.0000
  Ag  Ag15      1.0  0.4812594200000001  0.7312037599999999  0.5183239416350522  1.0000
  Ag  Ag16      1.0  0.8357526299999998  0.7360944099999999  0.4676041486468957  1.0000
  Ag  Ag17      1.0  0.16995903999999998  0.06769745  0.4956305900813344  1.0000
  Ag  Ag18      1.0  0.4963188699999998  0.40899032999999996  0.5211104853949553  1.0000
