data_image0
_chemical_formula_structural       COFe18Si6
_chemical_formula_sum              "C1 O1 Fe18 Si6"
_cell_length_a       5.56544307
_cell_length_b       6.81624786119204
_cell_length_c       99.97082816
_cell_angle_alpha    94.34775317821152
_cell_angle_beta     90.0
_cell_angle_gamma    114.09484258240876

_space_group_name_H-M_alt    "P 1"
_space_group_IT_number       1

loop_
  _space_group_symop_operation_xyz
  'x, y, z'

loop_
  _atom_site_type_symbol
  _atom_site_label
  _atom_site_symmetry_multiplicity
  _atom_site_fract_x
  _atom_site_fract_y
  _atom_site_fract_z
  _atom_site_occupancy
  C   C1        1.0  0.3501252999999999  0.498056555  0.5347671857674784  1.0000
  O   O1        1.0  0.31538547  0.548755725  0.5459186578369152  1.0000
  Fe  Fe1       1.0  0.38722922000000004  0.240990965  0.4790643192915058  1.0000
  Fe  Fe2       1.0  0.9705625500000001  0.407657635  0.45408134216308493  1.0000
  Fe  Fe3       1.0  0.8083523199999999  0.06796408500000004  0.5022668545040795  1.0000
  Fe  Fe4       1.0  0.8872292199999999  0.240990965  0.4790643192915058  1.0000
  Fe  Fe5       1.0  0.47056255  0.407657635  0.45408134216308493  1.0000
  Fe  Fe6       1.0  0.29794537  0.05067569500000002  0.5040365457447786  1.0000
  Fe  Fe7       1.0  0.28306255  0.5326576350000001  0.4728185757588899  1.0000
  Fe  Fe8       1.0  0.008604119999999979  0.10979786500000002  0.5218889741926587  1.0000
  Fe  Fe9       1.0  0.68630323  0.36842870499999997  0.4999661470653178  1.0000
  Fe  Fe10      1.0  0.67889588  0.8243243050000001  0.4665728292283166  1.0000
  Fe  Fe11      1.0  0.44118041  0.4198645550000001  0.5187671502124535  1.0000
  Fe  Fe12      1.0  0.09556255000000002  0.6576576350000001  0.4915558093546949  1.0000
  Fe  Fe13      1.0  0.17889588  0.8243243050000001  0.4665728292283166  1.0000
  Fe  Fe14      1.0  0.024378719999999958  0.46619647499999994  0.5155295541122851  1.0000
  Fe  Fe15      1.0  0.59556255  0.6576576350000001  0.4915558093546949  1.0000
  Fe  Fe16      1.0  0.57472922  0.11599096500000003  0.4603270856957008  1.0000
  Fe  Fe17      1.0  0.44350558  0.7729657550000001  0.5129333949762274  1.0000
  Fe  Fe18      1.0  0.9913958800000002  0.9493243050000001  0.4853100628241217  1.0000
  Si  Si1       1.0  0.21071821  0.3640095550000001  0.4975124898371816  1.0000
  Si  Si2       1.0  0.78306255  0.5326576350000001  0.4728185757588899  1.0000
  Si  Si3       1.0  0.61470738  0.16276532500000002  0.5217957407162434  1.0000
  Si  Si4       1.0  0.49139588000000006  0.9493243050000001  0.4853100628241217  1.0000
  Si  Si5       1.0  0.07472921999999999  0.11599096500000003  0.4603270856957008  1.0000
  Si  Si6       1.0  0.8815647699999999  0.7467553550000002  0.5115508389652764  1.0000
