data_image0
_chemical_formula_structural       COV6Ni12V6Ni12
_chemical_formula_sum              "C1 O1 V12 Ni24"
_cell_length_a       10.51041864652784
_cell_length_b       5.08168934
_cell_length_c       103.82913106000001
_cell_angle_alpha    90.0
_cell_angle_beta     111.50292515895812
_cell_angle_gamma    90.0

_space_group_name_H-M_alt    "P 1"
_space_group_IT_number       1

loop_
  _space_group_symop_operation_xyz
  'x, y, z'

loop_
  _atom_site_type_symbol
  _atom_site_label
  _atom_site_symmetry_multiplicity
  _atom_site_fract_x
  _atom_site_fract_y
  _atom_site_fract_z
  _atom_site_occupancy
  C   C1        1.0  0.43705896499999997  0.37542281999999993  0.5375944898258803  1.0000
  O   O1        1.0  0.467473195  0.37542267  0.5496815801865299  1.0000
  V   V1        1.0  0.386273145  0.12542279  0.4774697062756334  1.0000
  V   V2        1.0  0.052939804999999986  0.12542279  0.45031841981347026  1.0000
  V   V3        1.0  0.720453915  0.1254287  0.5044705735367783  1.0000
  V   V4        1.0  0.38501933499999996  0.3754228  0.5171976728846618  1.0000
  V   V5        1.0  0.052939804999999986  0.37542279  0.4910453462485609  1.0000
  V   V6        1.0  0.719606475  0.37542279  0.4638940630445518  1.0000
  Ni  Ni1       1.0  0.4986940149999999  0.37542270999999994  0.4999753895328939  1.0000
  Ni  Ni2       1.0  0.16364327499999998  0.37542279  0.4730108995624408  1.0000
  Ni  Ni3       1.0  0.8208692449999999  0.37542257999999995  0.5258470164175417  1.0000
  Ni  Ni4       1.0  0.275569675  0.12542279  0.4955041529617534  1.0000
  Ni  Ni5       1.0  0.942236345  0.12542279  0.4683528697577443  1.0000
  Ni  Ni6       1.0  0.608704225  0.12458661  0.5224867354620059  1.0000
  Ni  Ni7       1.0  0.163739265  0.12457721000000001  0.5135162650014163  1.0000
  Ni  Ni8       1.0  0.830309945  0.12542279  0.4865865427935224  1.0000
  Ni  Ni9       1.0  0.496976605  0.12542279  0.4594352563313593  1.0000
  Ni  Ni10      1.0  0.275569675  0.37542279  0.45477722652666275  1.0000
  Ni  Ni11      1.0  0.9469765649999999  0.37542294  0.509150120191249  1.0000
  Ni  Ni12      1.0  0.6089030049999999  0.37542279  0.4819285097306718  1.0000
  V   V7        1.0  0.386273145  0.62542279  0.4774697062756334  1.0000
  V   V8        1.0  0.052939804999999986  0.62542279  0.45031841981347026  1.0000
  V   V9        1.0  0.7204539649999999  0.6254167700000001  0.5044705702786241  1.0000
  V   V10       1.0  0.385715535  0.87542278  0.5175601327554716  1.0000
  V   V11       1.0  0.052939804999999986  0.8754227899999999  0.4910453462485609  1.0000
  V   V12       1.0  0.719606475  0.8754227899999999  0.4638940630445518  1.0000
  Ni  Ni13      1.0  0.496088325  0.87542265  0.5001430932414912  1.0000
  Ni  Ni14      1.0  0.16364327499999998  0.8754227899999999  0.4730108995624408  1.0000
  Ni  Ni15      1.0  0.820588525  0.8754227  0.5258259687419602  1.0000
  Ni  Ni16      1.0  0.275569675  0.62542279  0.4955041529617534  1.0000
  Ni  Ni17      1.0  0.942236345  0.62542279  0.4683528697577443  1.0000
  Ni  Ni18      1.0  0.608704465  0.6262586200000001  0.5224867908506259  1.0000
  Ni  Ni19      1.0  0.16373957500000003  0.62626837  0.5135163301644986  1.0000
  Ni  Ni20      1.0  0.830309945  0.62542279  0.4865865427935224  1.0000
  Ni  Ni21      1.0  0.496976605  0.62542279  0.4594352563313593  1.0000
  Ni  Ni22      1.0  0.275569675  0.8754227899999999  0.45477722652666275  1.0000
  Ni  Ni23      1.0  0.9470601949999999  0.8754226599999999  0.5091155837576319  1.0000
  Ni  Ni24      1.0  0.6089030049999999  0.8754227899999999  0.4819285097306718  1.0000
