data_image0
_chemical_formula_structural       COAl3Cu2Al3Cu2Al3Cu2Al3Cu2
_chemical_formula_sum              "C1 O1 Al12 Cu8"
_cell_length_a       8.36053902443617
_cell_length_b       5.08224103
_cell_length_c       36.55784389
_cell_angle_alpha    90.0
_cell_angle_beta     120.00000006158065
_cell_angle_gamma    90.0

_space_group_name_H-M_alt    "P 1"
_space_group_IT_number       1

loop_
  _space_group_symop_operation_xyz
  'x, y, z'

loop_
  _atom_site_type_symbol
  _atom_site_label
  _atom_site_symmetry_multiplicity
  _atom_site_fract_x
  _atom_site_fract_y
  _atom_site_fract_z
  _atom_site_occupancy
  C   C1        1.0  0.33989127499999994  0.6224852100000001  0.6048956016204187  1.0000
  O   O1        1.0  0.39485944500000003  0.70361563  0.6392651335087393  1.0000
  Al  Al1       1.0  0.07730977499999998  0.06833005999999998  0.47435281299105486  1.0000
  Al  Al2       1.0  0.24079964500000003  0.4318498  0.5494955766287382  1.0000
  Al  Al3       1.0  0.416639735  0.7197614  0.5156448220843061  1.0000
  Cu  Cu1       1.0  0.238307985  0.9316699400000001  0.5485772444043793  1.0000
  Cu  Cu2       1.0  0.421844855  0.22061326999999997  0.5183022398409951  1.0000
  Al  Al4       1.0  0.079059335  0.07028068999999998  0.3607348664912608  1.0000
  Al  Al5       1.0  0.24572600499999997  0.42231330000000006  0.4369660096465184  1.0000
  Al  Al6       1.0  0.412392665  0.71824808  0.3988504426427583  1.0000
  Cu  Cu3       1.0  0.24572600499999997  0.9111490100000001  0.4369660096465184  1.0000
  Cu  Cu4       1.0  0.412392665  0.22941237  0.3988504426427583  1.0000
  Al  Al7       1.0  0.5800982849999999  0.07725465  0.4757714990158876  1.0000
  Al  Al8       1.0  0.7412351650000001  0.43071428  0.549325200016971  1.0000
  Al  Al9       1.0  0.9157559949999999  0.7200379499999999  0.5150698227454689  1.0000
  Cu  Cu5       1.0  0.739591935  0.9286406  0.5487678009251695  1.0000
  Cu  Cu6       1.0  0.9226902250000001  0.22121122000000001  0.5177704178233681  1.0000
  Al  Al10      1.0  0.579059335  0.07028068999999998  0.36073486649126074  1.0000
  Al  Al11      1.0  0.745726005  0.42231330000000006  0.4369660096465184  1.0000
  Al  Al12      1.0  0.912392665  0.71824808  0.3988504426427583  1.0000
  Cu  Cu7       1.0  0.745726005  0.9111490100000001  0.4369660096465184  1.0000
  Cu  Cu8       1.0  0.912392665  0.22941237  0.3988504426427583  1.0000
