data_image0
_chemical_formula_structural       COV18Pd6V18Pd6
_chemical_formula_sum              "C1 O1 V36 Pd12"
_cell_length_a       4.82371655
_cell_length_b       10.786158109906085
_cell_length_c       110.9305922
_cell_angle_alpha    71.56505119387593
_cell_angle_beta     90.0
_cell_angle_gamma    90.0

_space_group_name_H-M_alt    "P 1"
_space_group_IT_number       1

loop_
  _space_group_symop_operation_xyz
  'x, y, z'

loop_
  _atom_site_type_symbol
  _atom_site_label
  _atom_site_symmetry_multiplicity
  _atom_site_fract_x
  _atom_site_fract_y
  _atom_site_fract_z
  _atom_site_occupancy
  C   C1        1.0  0.8947952500000002  0.46404983499999997  0.5560659613455835  1.0000
  O   O1        1.0  0.7460484299999999  0.5223412049999999  0.5625164266286615  1.0000
  V   V1        1.0  0.11418338999999998  0.7557860849999999  0.4426082236722737  1.0000
  V   V2        1.0  0.11418338999999998  0.42245275499999996  0.48360542239000803  1.0000
  V   V3        1.0  0.11418338999999998  0.08911941499999997  0.4631068248760148  1.0000
  V   V4        1.0  0.11418338999999998  0.589119415  0.49385472299187855  1.0000
  V   V5        1.0  0.11418338999999998  0.25578608499999994  0.47335612547788536  1.0000
  V   V6        1.0  0.11418338999999998  0.9224527549999999  0.4528575242741443  1.0000
  V   V7        1.0  0.61418339  0.7557860849999999  0.45798217457507956  1.0000
  V   V8        1.0  0.61418339  0.42245275499999996  0.4374835733713385  1.0000
  V   V9        1.0  0.61418339  0.08911941499999997  0.4784807757788207  1.0000
  V   V10       1.0  0.61418339  0.9224527549999999  0.4374835733713385  1.0000
  V   V11       1.0  0.61418339  0.589119415  0.47848077577882064  1.0000
  V   V12       1.0  0.61418339  0.25578608499999994  0.45798217457507956  1.0000
  V   V13       1.0  0.86418339  0.505786085  0.45798217457507956  1.0000
  V   V14       1.0  0.86418339  0.17245275499999996  0.43748357337133853  1.0000
  V   V15       1.0  0.86418339  0.839119415  0.4784807757788206  1.0000
  V   V16       1.0  0.36418339  0.505786085  0.45798217457507956  1.0000
  V   V17       1.0  0.36418339  0.17245275499999996  0.43748357337133853  1.0000
  V   V18       1.0  0.36418339  0.839119415  0.4784807757788206  1.0000
  Pd  Pd1       1.0  0.61418339  0.672452755  0.43748357337133853  1.0000
  Pd  Pd2       1.0  0.61418339  0.3391194149999999  0.47848077577882064  1.0000
  Pd  Pd3       1.0  0.61418339  0.005786084999999971  0.4579821745750795  1.0000
  Pd  Pd4       1.0  0.11418338999999998  0.672452755  0.46823147517695013  1.0000
  Pd  Pd5       1.0  0.11418338999999998  0.3391194149999999  0.447732873973209  1.0000
  Pd  Pd6       1.0  0.11418338999999998  0.005786084999999971  0.4887300726909432  1.0000
  V   V19       1.0  0.11418338999999998  0.7557860849999999  0.5041040235937491  1.0000
  V   V20       1.0  0.12940274999999998  0.431049845  0.5437875023230272  1.0000
  V   V21       1.0  0.11418338999999998  0.08911941499999997  0.5246026247974902  1.0000
  V   V22       1.0  0.13924781999999997  0.633291575  0.5532279068675645  1.0000
  V   V23       1.0  0.11507408999999998  0.24974234499999998  0.5341486963430032  1.0000
  V   V24       1.0  0.11418338999999998  0.9224527549999999  0.5143533241956196  1.0000
  V   V25       1.0  0.61418339  0.7557860849999999  0.5194779744965549  1.0000
  V   V26       1.0  0.61418339  0.42245275499999996  0.4989793732928138  1.0000
  V   V27       1.0  0.6152639  0.09887722499999997  0.5391667424469907  1.0000
  V   V28       1.0  0.61418339  0.9224527549999999  0.4989793732928138  1.0000
  V   V29       1.0  0.6014347899999999  0.596405905  0.5433268963309955  1.0000
  V   V30       1.0  0.61418339  0.25578608499999994  0.519477974496555  1.0000
  V   V31       1.0  0.86418339  0.505786085  0.5194779744965549  1.0000
  V   V32       1.0  0.86418339  0.17245275499999996  0.4989793732928138  1.0000
  V   V33       1.0  0.85427463  0.8311716649999998  0.5395591176204582  1.0000
  V   V34       1.0  0.36418339  0.505786085  0.5194779744965549  1.0000
  V   V35       1.0  0.36418339  0.17245275499999996  0.4989793732928138  1.0000
  V   V36       1.0  0.35108668  0.8402901049999999  0.5393186087816915  1.0000
  Pd  Pd7       1.0  0.61418339  0.672452755  0.49897937329281383  1.0000
  Pd  Pd8       1.0  0.61792996  0.338882505  0.5402215122365684  1.0000
  Pd  Pd9       1.0  0.61418339  0.005786084999999971  0.5194779744965549  1.0000
  Pd  Pd10      1.0  0.11435735999999999  0.671930845  0.529102202282541  1.0000
  Pd  Pd11      1.0  0.11418338999999998  0.3391194149999999  0.5092286738946843  1.0000
  Pd  Pd12      1.0  0.10520474999999997  0.9942139150000001  0.5498387295015039  1.0000
