data_image0
_chemical_formula_structural       COAl4Fe6Si6Al4Fe6Si6
_chemical_formula_sum              "C1 O1 Al8 Fe12 Si12"
_cell_length_a       4.628601968438912
_cell_length_b       7.500620230430656
_cell_length_c       31.83311373
_cell_angle_alpha    78.10007006078158
_cell_angle_beta     79.39183428404031
_cell_angle_gamma    106.77767696714712

_space_group_name_H-M_alt    "P 1"
_space_group_IT_number       1

loop_
  _space_group_symop_operation_xyz
  'x, y, z'

loop_
  _atom_site_type_symbol
  _atom_site_label
  _atom_site_symmetry_multiplicity
  _atom_site_fract_x
  _atom_site_fract_y
  _atom_site_fract_z
  _atom_site_occupancy
  C   C1        1.0  0.016464324999999936  0.0052560649999999765  0.6834372437229924  1.0000
  O   O1        1.0  0.9443770549999999  0.964819095  0.7225724960451688  1.0000
  Al  Al1       1.0  0.6052817349999999  0.994743935  0.6259257797902545  1.0000
  Al  Al2       1.0  0.0636256349999999  0.276019465  0.5534026603764048  1.0000
  Al  Al3       1.0  0.9759122849999998  0.7180912249999999  0.6158981145930162  1.0000
  Al  Al4       1.0  0.4238085549999999  0.043225405  0.5522769372852957  1.0000
  Fe  Fe1       1.0  0.38060226499999983  0.24149825499999997  0.4801211936714128  1.0000
  Fe  Fe2       1.0  0.6508190449999998  0.7761521949999999  0.49138693725565413  1.0000
  Fe  Fe3       1.0  0.1347746749999999  0.06445409499999999  0.6246252471575666  1.0000
  Fe  Fe4       1.0  0.8786201349999998  0.9450294349999998  0.5508709074539554  1.0000
  Fe  Fe5       1.0  0.06141843499999988  0.393415705  0.6171469956821433  1.0000
  Fe  Fe6       1.0  0.9835356749999999  0.5973292549999999  0.542068455716552  1.0000
  Si  Si1       1.0  0.4760093549999999  0.652534085  0.5687165876924097  1.0000
  Si  Si2       1.0  0.739921145  0.47593449499999996  0.49425261476949667  1.0000
  Si  Si3       1.0  0.570384785  0.361274965  0.6066082703539175  1.0000
  Si  Si4       1.0  0.19489164499999997  0.8950520949999999  0.49048458191211786  1.0000
  Si  Si5       1.0  0.8365296649999999  0.12259835499999999  0.4810235490149491  1.0000
  Si  Si6       1.0  0.291500165  0.541715955  0.4772555161575703  1.0000
  Al  Al5       1.0  0.6020383049999999  0.957881585  0.42082819510399405  1.0000
  Al  Al6       1.0  0.0686012649999999  0.281435385  0.35681101063929094  1.0000
  Al  Al7       1.0  0.962820045  0.7362150649999999  0.41486912007471743  1.0000
  Al  Al8       1.0  0.42938300499999993  0.059768865  0.35085193561001426  1.0000
  Fe  Fe7       1.0  0.38060226499999983  0.24149825499999997  0.2802931814686737  1.0000
  Fe  Fe8       1.0  0.6508190449999998  0.7761521949999999  0.2915589370425955  1.0000
  Fe  Fe9       1.0  0.15083269499999988  0.065544805  0.42222644363269485  1.0000
  Fe  Fe10      1.0  0.8805886149999999  0.9521056449999998  0.349453675091633  1.0000
  Fe  Fe11      1.0  0.055489554999999906  0.424388395  0.4273235325726528  1.0000
  Fe  Fe12      1.0  0.9759317549999997  0.5932620549999998  0.3443565981413554  1.0000
  Si  Si7       1.0  0.47264799499999993  0.6610064649999999  0.3684625581624158  1.0000
  Si  Si8       1.0  0.739921145  0.47593449499999996  0.29442460256675757  1.0000
  Si  Si9       1.0  0.5587733149999999  0.356643985  0.4032175605619121  1.0000
  Si  Si10      1.0  0.19489164499999997  0.8950520949999999  0.2906565697093788  1.0000
  Si  Si11      1.0  0.8365296649999999  0.12259835499999999  0.28119553681221  1.0000
  Si  Si12      1.0  0.291500165  0.541715955  0.2774275039548312  1.0000
