data_image0
_chemical_formula_structural       COAl3Co6Si6Al3Co6Si6
_chemical_formula_sum              "C1 O1 Al6 Co12 Si12"
_cell_length_a       4.65594719
_cell_length_b       10.454181582370074
_cell_length_c       101.61047385
_cell_angle_alpha    79.10660533000444
_cell_angle_beta     90.0
_cell_angle_gamma    90.0

_space_group_name_H-M_alt    "P 1"
_space_group_IT_number       1

loop_
  _space_group_symop_operation_xyz
  'x, y, z'

loop_
  _atom_site_type_symbol
  _atom_site_label
  _atom_site_symmetry_multiplicity
  _atom_site_fract_x
  _atom_site_fract_y
  _atom_site_fract_z
  _atom_site_occupancy
  C   C1        1.0  0.88873238  0.9568931450000001  0.5397009569801705  1.0000
  O   O1        1.0  0.82090872  0.9051110250000002  0.550388999117515  1.0000
  Al  Al1       1.0  0.07548322  0.7113907050000001  0.47121479710130004  1.0000
  Al  Al2       1.0  0.07548322  0.37805736500000003  0.458252519370011  1.0000
  Al  Al3       1.0  0.07548322  0.04472403500000003  0.48417707172164265  1.0000
  Co  Co1       1.0  0.91278345  0.8225018150000001  0.449611000882485  1.0000
  Co  Co2       1.0  0.91278345  0.489168475  0.475535556345063  1.0000
  Co  Co3       1.0  0.91278345  0.15583514500000004  0.46257327861377406  1.0000
  Co  Co4       1.0  0.23818298999999998  0.6002795949999999  0.4539317601262481  1.0000
  Co  Co5       1.0  0.23818298999999998  0.266946255  0.4798563124778797  1.0000
  Co  Co6       1.0  0.23818298999999998  0.9336129250000001  0.466894037857537  1.0000
  Si  Si1       1.0  0.7276247100000001  0.6002795949999999  0.4539317601262481  1.0000
  Si  Si2       1.0  0.7276247100000001  0.266946255  0.4798563124778797  1.0000
  Si  Si3       1.0  0.7276247100000001  0.9336129250000001  0.466894037857537  1.0000
  Si  Si4       1.0  0.42334173  0.8225018150000001  0.449611000882485  1.0000
  Si  Si5       1.0  0.42334173  0.489168475  0.475535556345063  1.0000
  Si  Si6       1.0  0.42334173  0.15583514500000004  0.46257327861377406  1.0000
  Al  Al4       1.0  0.07858385  0.7100575050000001  0.5117313089031214  1.0000
  Al  Al5       1.0  0.07374518  0.37724300500000013  0.4969191224458596  1.0000
  Al  Al6       1.0  0.11813408  0.043106855000000034  0.5231580639303993  1.0000
  Co  Co7       1.0  0.91278345  0.8225018150000001  0.4884978309654057  1.0000
  Co  Co8       1.0  0.92625482  0.48751787500000004  0.513938572042824  1.0000
  Co  Co9       1.0  0.91062419  0.15215740500000002  0.5015258056629099  1.0000
  Co  Co10      1.0  0.23818298999999998  0.6002795949999999  0.4928185902091687  1.0000
  Co  Co11      1.0  0.23772493000000003  0.268879345  0.5181145820612327  1.0000
  Co  Co12      1.0  0.22948542000000002  0.9306744650000001  0.5056952173639901  1.0000
  Si  Si7       1.0  0.7276247100000001  0.6002795949999999  0.4928185902091687  1.0000
  Si  Si8       1.0  0.72937608  0.2713260150000001  0.5179871141431673  1.0000
  Si  Si9       1.0  0.71836875  0.9392017350000001  0.5048577225928067  1.0000
  Si  Si10      1.0  0.42334173  0.8225018150000001  0.4884978309654057  1.0000
  Si  Si11      1.0  0.4339932900000001  0.4831116750000001  0.513756199031628  1.0000
  Si  Si12      1.0  0.42257961  0.15953971500000003  0.5012705493992993  1.0000
