data_image0
_chemical_formula_structural       COAl3Ir3Al3Ir3Al3Ir3Al3Ir3Al3Ir3Al3Ir3Al3Ir3Al3Ir3
_chemical_formula_sum              "C1 O1 Al24 Ir24"
_cell_length_a       8.57208142
_cell_length_b       8.572081421037423
_cell_length_c       101.49583826
_cell_angle_alpha    90.0
_cell_angle_beta     90.0
_cell_angle_gamma    60.00000008118359

_space_group_name_H-M_alt    "P 1"
_space_group_IT_number       1

loop_
  _space_group_symop_operation_xyz
  'x, y, z'

loop_
  _atom_site_type_symbol
  _atom_site_label
  _atom_site_symmetry_multiplicity
  _atom_site_fract_x
  _atom_site_fract_y
  _atom_site_fract_z
  _atom_site_occupancy
  C   C1        1.0  0.34871078500000013  0.4319531749999999  0.5471882317082427  1.0000
  O   O1        1.0  0.34867854500000006  0.4319211049999999  0.558830827633593  1.0000
  Al  Al1       1.0  0.34874170500000007  0.4319838049999999  0.44978907719305306  1.0000
  Al  Al2       1.0  0.015408375000000078  0.09865047499999996  0.48426869339647177  1.0000
  Al  Al3       1.0  0.18207504500000002  0.2653171449999999  0.46702888684634514  1.0000
  Ir  Ir1       1.0  0.34874170500000007  0.4319838049999999  0.4756487885698257  1.0000
  Ir  Ir2       1.0  0.015408375000000078  0.09865047499999996  0.4584089820196991  1.0000
  Ir  Ir3       1.0  0.18207504500000002  0.2653171449999999  0.4411691723664069  1.0000
  Al  Al4       1.0  0.34874170500000007  0.4319838049999999  0.501508503049764  1.0000
  Al  Al5       1.0  0.015409015000000081  0.09865124499999996  0.5351488929719148  1.0000
  Al  Al6       1.0  0.1820963650000001  0.26533856499999997  0.5203972448522918  1.0000
  Ir  Ir4       1.0  0.3487440750000001  0.43198632499999995  0.5286780729922487  1.0000
  Ir  Ir5       1.0  0.01540934500000008  0.09865150499999996  0.509363148647746  1.0000
  Ir  Ir6       1.0  0.18207504500000002  0.2653171449999999  0.4928885982231179  1.0000
  Al  Al7       1.0  0.3487417050000001  0.9319838049999999  0.44978907719305306  1.0000
  Al  Al8       1.0  0.015408375000000116  0.5986504749999999  0.48426869339647177  1.0000
  Al  Al9       1.0  0.18207504500000007  0.7653171449999999  0.46702888684634514  1.0000
  Ir  Ir7       1.0  0.3487417050000001  0.9319838049999999  0.4756487885698257  1.0000
  Ir  Ir8       1.0  0.015408375000000116  0.5986504749999999  0.4584089820196991  1.0000
  Ir  Ir9       1.0  0.18207504500000007  0.7653171449999999  0.4411691723664069  1.0000
  Al  Al10      1.0  0.3487417050000001  0.9319838049999999  0.501508503049764  1.0000
  Al  Al11      1.0  0.984591625  0.6140624749999999  0.5351884986730553  1.0000
  Al  Al12      1.0  0.18209452500000012  0.7652792249999999  0.5203976730891293  1.0000
  Ir  Ir10      1.0  0.348379545  0.932166145  0.5265877807186298  1.0000
  Ir  Ir11      1.0  0.02146384500000015  0.5956216949999998  0.5096236097399282  1.0000
  Ir  Ir12      1.0  0.18207504500000007  0.7653171449999999  0.4928885982231179  1.0000
  Al  Al13      1.0  0.8487417050000001  0.4319838049999999  0.44978907719305306  1.0000
  Al  Al14      1.0  0.515408375  0.09865047499999996  0.48426869339647177  1.0000
  Al  Al15      1.0  0.682075045  0.2653171449999999  0.46702888684634514  1.0000
  Ir  Ir13      1.0  0.8487417050000001  0.4319838049999999  0.4756487885698257  1.0000
  Ir  Ir14      1.0  0.515408375  0.09865047499999996  0.4584089820196991  1.0000
  Ir  Ir15      1.0  0.682075045  0.2653171449999999  0.4411691723664069  1.0000
  Al  Al16      1.0  0.8487417050000001  0.4319838049999999  0.501508503049764  1.0000
  Al  Al17      1.0  0.5308202449999999  0.06783385499999997  0.5351884986730553  1.0000
  Al  Al18      1.0  0.682037015  0.26533673499999993  0.5203976730891293  1.0000
  Ir  Ir16      1.0  0.8489239250000001  0.431621775  0.5265877807186298  1.0000
  Ir  Ir17      1.0  0.512379535  0.10470599499999995  0.5096236097399282  1.0000
  Ir  Ir18      1.0  0.682075045  0.2653171449999999  0.4928885982231179  1.0000
  Al  Al19      1.0  0.8487417050000002  0.9319838049999999  0.44978907719305306  1.0000
  Al  Al20      1.0  0.5154083750000001  0.5986504749999999  0.48426869339647177  1.0000
  Al  Al21      1.0  0.682075045  0.7653171449999999  0.46702888684634514  1.0000
  Ir  Ir19      1.0  0.8487417050000002  0.9319838049999999  0.4756487885698257  1.0000
  Ir  Ir20      1.0  0.5154083750000001  0.5986504749999999  0.4584089820196991  1.0000
  Ir  Ir21      1.0  0.682075045  0.7653171449999999  0.4411691723664069  1.0000
  Al  Al22      1.0  0.8487417050000002  0.9319838049999999  0.501508503049764  1.0000
  Al  Al23      1.0  0.530816195  0.614058415  0.5351902705805496  1.0000
  Al  Al24      1.0  0.6820743750000001  0.7653165749999999  0.5189993556879782  1.0000
  Ir  Ir22      1.0  0.8489223050000003  0.9321645349999997  0.5265865859999164  1.0000
  Ir  Ir23      1.0  0.512381415  0.5956235649999999  0.5096242614046809  1.0000
  Ir  Ir24      1.0  0.682075045  0.7653171449999999  0.4928885982231179  1.0000
