data_image0
_chemical_formula_structural       COAl12Au12
_chemical_formula_sum              "C1 O1 Al12 Au12"
_cell_length_a       6.490012335571586
_cell_length_b       9.411754797116402
_cell_length_c       40.796332410000005
_cell_angle_alpha    74.79182223466921
_cell_angle_beta     87.79990939469704
_cell_angle_gamma    88.29350570269831

_space_group_name_H-M_alt    "P 1"
_space_group_IT_number       1

loop_
  _space_group_symop_operation_xyz
  'x, y, z'

loop_
  _atom_site_type_symbol
  _atom_site_label
  _atom_site_symmetry_multiplicity
  _atom_site_fract_x
  _atom_site_fract_y
  _atom_site_fract_z
  _atom_site_occupancy
  C   C1        1.0  0.35269826499999996  0.20472905500000005  0.5841681232678244  1.0000
  O   O1        1.0  0.34697054499999996  0.17970474500000005  0.6135187440319101  1.0000
  Al  Al1       1.0  0.8735945549999998  0.678941705  0.5306190078344645  1.0000
  Al  Al2       1.0  0.8215617449999999  0.368323225  0.404482261163729  1.0000
  Al  Al3       1.0  0.8215617449999999  0.03498988500000004  0.46413563500209  1.0000
  Al  Al4       1.0  0.18098848499999995  0.568029885  0.38648125596809013  1.0000
  Al  Al5       1.0  0.18098848499999995  0.23469655500000003  0.44613462980645113  1.0000
  Al  Al6       1.0  0.18445820499999996  0.874446185  0.5134271243309892  1.0000
  Al  Al7       1.0  0.305120765  0.5832636449999999  0.4792865426636906  1.0000
  Al  Al8       1.0  0.33590147499999995  0.275392025  0.5322652119492959  1.0000
  Al  Al9       1.0  0.320613485  0.910973905  0.4197478035253527  1.0000
  Al  Al10      1.0  0.681936745  0.692045865  0.4308690874448275  1.0000
  Al  Al11      1.0  0.7078045049999999  0.32972169500000004  0.49045461391920586  1.0000
  Al  Al12      1.0  0.7742760749999998  0.9650101149999999  0.5433753287567415  1.0000
  Au  Au1       1.0  0.5121456749999999  0.7647699049999999  0.5512272759863424  1.0000
  Au  Au2       1.0  0.47911622499999995  0.448960655  0.43334402728192517  1.0000
  Au  Au3       1.0  0.4831208649999999  0.09325086500000004  0.4998768289018393  1.0000
  Au  Au4       1.0  0.5623271849999999  0.49960591499999996  0.5275313514672196  1.0000
  Au  Au5       1.0  0.5234340049999999  0.15405912500000005  0.41727286368825484  1.0000
  Au  Au6       1.0  0.5234340049999999  0.8207257849999999  0.47692623752661584  1.0000
  Au  Au7       1.0  0.004457714999999962  0.821982835  0.3878960932701673  1.0000
  Au  Au8       1.0  0.004457714999999962  0.48864949499999993  0.4475494742669334  1.0000
  Au  Au9       1.0  0.03707363499999996  0.14362385500000002  0.5086727836517876  1.0000
  Au  Au10      1.0  0.001907484999999958  0.42803917500000005  0.5249601597145162  1.0000
  Au  Au11      1.0  0.9980925149999998  0.11437027500000004  0.4030674167032468  1.0000
  Au  Au12      1.0  0.9980925149999998  0.7810369449999999  0.46272079770001295  1.0000
