data_image0
_chemical_formula_structural       COIn6Ni6In6Ni6
_chemical_formula_sum              "C1 O1 In12 Ni12"
_cell_length_a       5.33396596
_cell_length_b       11.551064680697072
_cell_length_c       105.4376736
_cell_angle_alpha    67.45001659974818
_cell_angle_beta     90.0
_cell_angle_gamma    62.49844616684299

_space_group_name_H-M_alt    "P 1"
_space_group_IT_number       1

loop_
  _space_group_symop_operation_xyz
  'x, y, z'

loop_
  _atom_site_type_symbol
  _atom_site_label
  _atom_site_symmetry_multiplicity
  _atom_site_fract_x
  _atom_site_fract_y
  _atom_site_fract_z
  _atom_site_occupancy
  C   C1        1.0  0.6766960799999999  0.414272145  0.5318244573401081  1.0000
  O   O1        1.0  0.68538509  0.405353545  0.5436981784048647  1.0000
  In  In1       1.0  0.3397019000000001  0.25125298499999993  0.46330391793635345  1.0000
  In  In2       1.0  0.33970190000000006  0.7512529849999999  0.48431021032101396  1.0000
  In  In3       1.0  0.67303524  0.417919645  0.45630182159513555  1.0000
  In  In4       1.0  0.6730352399999999  0.9179196449999999  0.4773081139797961  1.0000
  In  In5       1.0  0.006368570000000099  0.5845863149999999  0.47030601427757135  1.0000
  In  In6       1.0  0.006368570000000047  0.08458631499999998  0.49131230666223186  1.0000
  Ni  Ni1       1.0  0.5063685700000001  0.5845863149999999  0.47030601427757135  1.0000
  Ni  Ni2       1.0  0.5063685700000001  0.08458631499999998  0.49131230666223186  1.0000
  Ni  Ni3       1.0  0.50636857  0.33458631499999997  0.48080916046990163  1.0000
  Ni  Ni4       1.0  0.5063685699999999  0.8345863149999999  0.4598028680852411  1.0000
  Ni  Ni5       1.0  0.006368570000000058  0.33458631499999997  0.48080916046990163  1.0000
  Ni  Ni6       1.0  0.006368570000000016  0.8345863149999999  0.4598028680852411  1.0000
  In  In7       1.0  0.33885293000000005  0.25229801499999993  0.5048540651436084  1.0000
  In  In8       1.0  0.3290157400000002  0.761991935  0.526285024096124  1.0000
  In  In9       1.0  0.67303524  0.417919645  0.4983144063644566  1.0000
  In  In10      1.0  0.6726447999999999  0.918382615  0.5206161988130639  1.0000
  In  In11      1.0  0.0019985400000001076  0.5887316449999999  0.5130820618203408  1.0000
  In  In12      1.0  0.009376490000000053  0.08161738499999997  0.5334790742566495  1.0000
  Ni  Ni7       1.0  0.5085976600000002  0.5822624449999999  0.513408983588975  1.0000
  Ni  Ni8       1.0  0.48078523999999995  0.11023554499999998  0.5311029735413612  1.0000
  Ni  Ni9       1.0  0.50266429  0.34062805499999993  0.5229395888589972  1.0000
  Ni  Ni10      1.0  0.5063685699999999  0.8345863149999999  0.5018154528545621  1.0000
  Ni  Ni11      1.0  0.9980014600000002  0.340773085  0.5229426776242295  1.0000
  Ni  Ni12      1.0  0.006368570000000016  0.8345863149999999  0.5018154528545621  1.0000
