data_image0
_chemical_formula_structural       COSi4Ni4Si4Ni4Si4Ni4Si4Ni4
_chemical_formula_sum              "C1 O1 Si16 Ni16"
_cell_length_a       6.08811866
_cell_length_b       5.78307909942265
_cell_length_c       104.6984746
_cell_angle_alpha    69.48598585198177
_cell_angle_beta     90.0
_cell_angle_gamma    90.0

_space_group_name_H-M_alt    "P 1"
_space_group_IT_number       1

loop_
  _space_group_symop_operation_xyz
  'x, y, z'

loop_
  _atom_site_type_symbol
  _atom_site_label
  _atom_site_symmetry_multiplicity
  _atom_site_fract_x
  _atom_site_fract_y
  _atom_site_fract_z
  _atom_site_occupancy
  C   C1        1.0  0.250404645  0.9104974650000001  0.5532999484143143  1.0000
  O   O1        1.0  0.250404735  0.776864925  0.5649965901793078  1.0000
  Si  Si1       1.0  0.00040494499999996024  0.07827883500000006  0.4850602679341248  1.0000
  Si  Si2       1.0  0.00040494499999996024  0.5782788350000002  0.4574424879675538  1.0000
  Si  Si3       1.0  0.250404945  0.6720355349999999  0.43500340982069213  1.0000
  Si  Si4       1.0  0.250404945  0.17203553500000007  0.4626211931013968  1.0000
  Ni  Ni1       1.0  0.00040494499999996024  0.32859320500000005  0.4436509623879391  1.0000
  Ni  Ni2       1.0  0.00040494499999996024  0.8285932050000001  0.4712687423545101  1.0000
  Ni  Ni3       1.0  0.250404945  0.4217211650000001  0.47641271868101154  1.0000
  Ni  Ni4       1.0  0.250404945  0.9217211649999999  0.44879493540030685  1.0000
  Si  Si5       1.0  0.015880364999999962  0.09709551500000006  0.5395945803692408  1.0000
  Si  Si6       1.0  0.993158935  0.5821324849999999  0.5128518709006248  1.0000
  Si  Si7       1.0  0.250404945  0.6720355349999999  0.4902389730679678  1.0000
  Si  Si8       1.0  0.250405265  0.16759487500000006  0.518163628561268  1.0000
  Ni  Ni5       1.0  0.00040494499999996024  0.32859320500000005  0.49888652232108105  1.0000
  Ni  Ni6       1.0  0.9995950550000001  0.8527953850000001  0.5253784744893937  1.0000
  Ni  Ni7       1.0  0.250404965  0.44312005500000007  0.530140791861581  1.0000
  Ni  Ni8       1.0  0.250404945  0.9217211649999999  0.5040304986475825  1.0000
  Si  Si9       1.0  0.500404945  0.07827883500000006  0.4850602679341248  1.0000
  Si  Si10      1.0  0.500404945  0.5782788350000002  0.4574424879675538  1.0000
  Si  Si11      1.0  0.7504049450000001  0.6720355349999999  0.43500340982069213  1.0000
  Si  Si12      1.0  0.7504049450000001  0.17203553500000007  0.4626211931013968  1.0000
  Ni  Ni9       1.0  0.500404945  0.32859320500000005  0.4436509623879391  1.0000
  Ni  Ni10      1.0  0.500404945  0.8285932050000001  0.4712687423545101  1.0000
  Ni  Ni11      1.0  0.7504049450000001  0.4217211650000001  0.47641271868101154  1.0000
  Ni  Ni12      1.0  0.7504049450000001  0.9217211649999999  0.44879493540030685  1.0000
  Si  Si13      1.0  0.484929805  0.09709577500000006  0.539594626767113  1.0000
  Si  Si14      1.0  0.507651135  0.582132725  0.5128518874712933  1.0000
  Si  Si15      1.0  0.7504049450000001  0.6720355349999999  0.4902389730679678  1.0000
  Si  Si16      1.0  0.750404795  0.16472714500000005  0.5184099250375728  1.0000
  Ni  Ni13      1.0  0.500404945  0.32859320500000005  0.49888652232108105  1.0000
  Ni  Ni14      1.0  0.501215015  0.852795175  0.5253785407720681  1.0000
  Ni  Ni15      1.0  0.750405105  0.413858245  0.531802853125387  1.0000
  Ni  Ni16      1.0  0.7504049450000001  0.9217211649999999  0.5040304986475825  1.0000
