data_image0
_chemical_formula_structural       COFe24W12
_chemical_formula_sum              "C1 O1 Fe24 W12"
_cell_length_a       4.66309676258136
_cell_length_b       12.137121429377213
_cell_length_c       106.23838905
_cell_angle_alpha    81.18894873238354
_cell_angle_beta     104.91327779684086
_cell_angle_gamma    67.40584055669954

_space_group_name_H-M_alt    "P 1"
_space_group_IT_number       1

loop_
  _space_group_symop_operation_xyz
  'x, y, z'

loop_
  _atom_site_type_symbol
  _atom_site_label
  _atom_site_symmetry_multiplicity
  _atom_site_fract_x
  _atom_site_fract_y
  _atom_site_fract_z
  _atom_site_occupancy
  C   C1        1.0  0.9077043600000002  0.10679005999999998  0.5412909481227718  1.0000
  O   O1        1.0  0.9451264800000001  0.060301669999999974  0.5525094135446105  1.0000
  Fe  Fe1       1.0  0.0088473399999999  0.67501127  0.46253253618910767  1.0000
  Fe  Fe2       1.0  0.003482930000000013  0.016057739999999973  0.519173103452557  1.0000
  Fe  Fe3       1.0  0.008847339999999999  0.34167792999999996  0.49095790728496236  1.0000
  Fe  Fe4       1.0  0.0088473399999999  0.84167793  0.49095790728496236  1.0000
  Fe  Fe5       1.0  0.008847339999999999  0.17501126999999997  0.46253253618910767  1.0000
  Fe  Fe6       1.0  0.9965170699999999  0.51157823  0.5176001036149791  1.0000
  Fe  Fe7       1.0  0.83838172  0.70152273  0.4815907727124717  1.0000
  Fe  Fe8       1.0  0.8383817200000001  0.03485605999999997  0.4531653982055723  1.0000
  Fe  Fe9       1.0  0.84319494  0.35810192999999996  0.5104581776758006  1.0000
  Fe  Fe10      1.0  0.1846640400000002  0.8119905799999999  0.5157565738247866  1.0000
  Fe  Fe11      1.0  0.17931296000000005  0.14470085  0.48643631857134134  1.0000
  Fe  Fe12      1.0  0.17931295999999994  0.47803419  0.4580109474754866  1.0000
  Fe  Fe13      1.0  0.66749273  0.64382245  0.5271238119598178  1.0000
  Fe  Fe14      1.0  0.67426453  0.98371273  0.500413026343618  1.0000
  Fe  Fe15      1.0  0.6679161  0.31516647  0.4718996741726429  1.0000
  Fe  Fe16      1.0  0.34977858000000006  0.70152273  0.4815907727124717  1.0000
  Fe  Fe17      1.0  0.34977858  0.03485605999999997  0.4531653982055723  1.0000
  Fe  Fe18      1.0  0.36068532  0.36472876  0.5101457021069042  1.0000
  Fe  Fe19      1.0  0.8383817199999999  0.53865501  0.49547949599858326  1.0000
  Fe  Fe20      1.0  0.8383817200000001  0.8719883500000001  0.46705412490272863  1.0000
  Fe  Fe21      1.0  0.84040458  0.18921501999999998  0.5244522033218564  1.0000
  Fe  Fe22      1.0  0.16829633000000005  0.64405875  0.5270873444812728  1.0000
  Fe  Fe23      1.0  0.17396249000000005  0.98394226  0.5005633886036256  1.0000
  Fe  Fe24      1.0  0.17931296  0.31516647  0.47189967417264295  1.0000
  W   W1        1.0  0.64982085  0.8805484499999999  0.521672034776293  1.0000
  W   W2        1.0  0.6755140100000001  0.20765127999999997  0.49652473559409216  1.0000
  W   W3        1.0  0.6755140100000001  0.5409846100000001  0.4680993644982375  1.0000
  W   W4        1.0  0.3467964499999999  0.59449713  0.5063778041789335  1.0000
  W   W5        1.0  0.3421806700000002  0.9298734999999999  0.47757448933387064  1.0000
  W   W6        1.0  0.34218067000000013  0.26320683  0.4491491148269712  1.0000
  W   W7        1.0  0.3421806700000002  0.47570459  0.48539108238687717  1.0000
  W   W8        1.0  0.3421806700000002  0.8090379200000001  0.4569657078799778  1.0000
  W   W9        1.0  0.33744499  0.15184514  0.5134216966943553  1.0000
  W   W10       1.0  0.6707910100000002  0.75496484  0.5036974837328902  1.0000
  W   W11       1.0  0.6755140100000001  0.08681569999999997  0.475915957551244  1.0000
  W   W12       1.0  0.6755140099999999  0.42014903000000003  0.44749058645538936  1.0000
