data_image0
_chemical_formula_structural       COGa6Ni10
_chemical_formula_sum              "C1 O1 Ga6 Ni10"
_cell_length_a       5.117512770374541
_cell_length_b       5.11751277
_cell_length_c       100.22258368
_cell_angle_alpha    90.0
_cell_angle_beta     90.0
_cell_angle_gamma    96.12556680517338

_space_group_name_H-M_alt    "P 1"
_space_group_IT_number       1

loop_
  _space_group_symop_operation_xyz
  'x, y, z'

loop_
  _atom_site_type_symbol
  _atom_site_label
  _atom_site_symmetry_multiplicity
  _atom_site_fract_x
  _atom_site_fract_y
  _atom_site_fract_z
  _atom_site_occupancy
  C   C1        1.0  0.02664436000000005  0.8939719850000001  0.5297358507882582  1.0000
  O   O1        1.0  0.028495840000000043  0.881531405  0.5415627176530151  1.0000
  Ga  Ga1       1.0  0.46703802000000005  0.660886715  0.45843728234698505  1.0000
  Ga  Ga2       1.0  0.02983432000000005  0.098090415  0.45843728234698505  1.0000
  Ga  Ga3       1.0  0.7484361700000001  0.379488565  0.477284446435581  1.0000
  Ga  Ga4       1.0  0.46389158000000014  0.6650638650000001  0.49685618597813025  1.0000
  Ga  Ga5       1.0  0.03411940000000005  0.09482691500000003  0.49602192907582004  1.0000
  Ga  Ga6       1.0  0.70415713  0.37444223500000007  0.5170099561031979  1.0000
  Ni  Ni1       1.0  0.97335564  0.604408035  0.45843728234698505  1.0000
  Ni  Ni2       1.0  0.5235167000000001  0.15456909500000005  0.45843728234698505  1.0000
  Ni  Ni3       1.0  0.24843617000000007  0.379488565  0.477284446435581  1.0000
  Ni  Ni4       1.0  0.24843617000000007  0.879488565  0.477284446435581  1.0000
  Ni  Ni5       1.0  0.7484361700000001  0.879488565  0.477284446435581  1.0000
  Ni  Ni6       1.0  0.9588639800000001  0.5971872950000001  0.4960486830021872  1.0000
  Ni  Ni7       1.0  0.5318099700000001  0.15565785500000004  0.4960124512139432  1.0000
  Ni  Ni8       1.0  0.21846111000000007  0.38497620500000007  0.5137678428123076  1.0000
  Ni  Ni9       1.0  0.26857289000000006  0.905173085  0.5155248749616729  1.0000
  Ni  Ni10      1.0  0.7788567300000001  0.896425955  0.5153794110414639  1.0000
