data_image0
_chemical_formula_structural       COV6Si12V6Si12
_chemical_formula_sum              "C1 O1 V12 Si24"
_cell_length_a       7.93758042
_cell_length_b       7.869113739738463
_cell_length_c       102.07934934
_cell_angle_alpha    106.92902175861332
_cell_angle_beta     90.0
_cell_angle_gamma    59.71176385551985

_space_group_name_H-M_alt    "P 1"
_space_group_IT_number       1

loop_
  _space_group_symop_operation_xyz
  'x, y, z'

loop_
  _atom_site_type_symbol
  _atom_site_label
  _atom_site_symmetry_multiplicity
  _atom_site_fract_x
  _atom_site_fract_y
  _atom_site_fract_z
  _atom_site_occupancy
  C   C1        1.0  0.418548735  0.6086903899999999  0.5392464539102505  1.0000
  O   O1        1.0  0.3797837349999999  0.6672994099999999  0.551725271498399  1.0000
  V   V1        1.0  0.16999067499999998  0.16707848999999997  0.4485319023149345  1.0000
  V   V2        1.0  0.6699906749999999  0.16707848999999997  0.47097896986289306  1.0000
  V   V3        1.0  0.586657335  0.8337451499999998  0.474720147263788  1.0000
  V   V4        1.0  0.08665733500000006  0.8337451499999998  0.45227307971582936  1.0000
  V   V5        1.0  0.503324005  0.50041182  0.4560142571167241  1.0000
  V   V6        1.0  0.0033240049999999893  0.50041182  0.4784613278072723  1.0000
  Si  Si1       1.0  0.671900145  0.50041182  0.47871849847801645  1.0000
  Si  Si2       1.0  0.17190014499999998  0.50041182  0.4562714309300578  1.0000
  Si  Si3       1.0  0.9238096250000002  0.8337451499999998  0.474720147263788  1.0000
  Si  Si4       1.0  0.4238096250000001  0.8337451499999998  0.45227307971582936  1.0000
  Si  Si5       1.0  0.0014145250000001663  0.16707848999999997  0.47123614367622685  1.0000
  Si  Si6       1.0  0.5014145249999999  0.16707848999999997  0.4487890761282682  1.0000
  Si  Si7       1.0  0.834747865  0.50041182  0.45575708644598  1.0000
  Si  Si8       1.0  0.334747865  0.50041182  0.4782041539939386  1.0000
  Si  Si9       1.0  0.24950505499999998  0.8337451499999998  0.474720147263788  1.0000
  Si  Si10      1.0  0.7495050550000001  0.8337451499999998  0.45227307971582936  1.0000
  Si  Si11      1.0  0.8385668149999999  0.16707848999999997  0.4482747285016008  1.0000
  Si  Si12      1.0  0.338566815  0.16707848999999997  0.47072179919214896  1.0000
  V   V7        1.0  0.16999067499999998  0.16707848999999997  0.49342603741085167  1.0000
  V   V8        1.0  0.674555445  0.15654981999999998  0.5146086683526654  1.0000
  V   V9        1.0  0.603117965  0.81929097  0.5188138773794297  1.0000
  V   V10       1.0  0.08455609500000004  0.8434501799999999  0.49796325159258964  1.0000
  V   V11       1.0  0.5026026349999999  0.49954572  0.5014180825216408  1.0000
  V   V12       1.0  0.0014784249999999978  0.49490441999999996  0.5215779608469011  1.0000
  Si  Si13      1.0  0.6666099449999999  0.5027039299999999  0.524218518548127  1.0000
  Si  Si14      1.0  0.167863595  0.50585032  0.5010102372537915  1.0000
  Si  Si15      1.0  0.912134795  0.8411595  0.520564064047614  1.0000
  Si  Si16      1.0  0.4254833049999999  0.83612132  0.4975845664128925  1.0000
  Si  Si17      1.0  0.998585475  0.17530331999999996  0.5166421657512175  1.0000
  Si  Si18      1.0  0.5014145249999999  0.16707848999999997  0.49368321122418535  1.0000
  Si  Si19      1.0  0.8358056850000001  0.49564148999999996  0.5003132266112993  1.0000
  Si  Si20      1.0  0.315654795  0.5116565099999999  0.5227302164349662  1.0000
  Si  Si21      1.0  0.273911945  0.8425844299999999  0.5201092684923424  1.0000
  Si  Si22      1.0  0.751129275  0.82992837  0.4971256414949922  1.0000
  Si  Si23      1.0  0.8385668149999999  0.16707848999999997  0.49316886674010757  1.0000
  Si  Si24      1.0  0.34273664499999995  0.17084388999999997  0.5172532579962447  1.0000
