data_image0
_chemical_formula_structural       COV4Ir4V4Ir4V4Ir4V4Ir4
_chemical_formula_sum              "C1 O1 V16 Ir16"
_cell_length_a       7.882270780887305
_cell_length_b       7.79095204
_cell_length_c       101.16380816
_cell_angle_alpha    90.0
_cell_angle_beta     75.69381196827044
_cell_angle_gamma    75.69381196827044

_space_group_name_H-M_alt    "P 1"
_space_group_IT_number       1

loop_
  _space_group_symop_operation_xyz
  'x, y, z'

loop_
  _atom_site_type_symbol
  _atom_site_label
  _atom_site_symmetry_multiplicity
  _atom_site_fract_x
  _atom_site_fract_y
  _atom_site_fract_z
  _atom_site_occupancy
  C   C1        1.0  0.8433334200000001  0.2779390849999999  0.5328951648062641  1.0000
  O   O1        1.0  0.69500843  0.3387139849999999  0.5431217151956917  1.0000
  V   V1        1.0  0.09846741  0.465946505  0.498489271433595  1.0000
  V   V2        1.0  0.58775283  0.10673406499999999  0.5106356262057761  1.0000
  V   V3        1.0  0.58736163  0.35941138499999986  0.5271226871329713  1.0000
  V   V4        1.0  0.13468395  0.17834457499999998  0.520472994837487  1.0000
  Ir  Ir1       1.0  0.8478405000000001  0.03684544499999993  0.5231324189178642  1.0000
  Ir  Ir2       1.0  0.34748614  0.154474975  0.495384901852956  1.0000
  Ir  Ir3       1.0  0.3284961  0.40894744499999997  0.51522244201273  1.0000
  Ir  Ir4       1.0  0.8386410500000001  0.2813322849999999  0.5042746780886282  1.0000
  V   V5        1.0  0.09748613999999999  0.466974975  0.46169161193538916  1.0000
  V   V6        1.0  0.5974861400000001  0.09197497499999996  0.4713182661975511  1.0000
  V   V7        1.0  0.5974861400000001  0.34197497499999996  0.490571574721875  1.0000
  V   V8        1.0  0.09748613999999999  0.21697497499999996  0.4809449204597131  1.0000
  Ir  Ir5       1.0  0.8474861400000001  0.02947497499999998  0.485758247590794  1.0000
  Ir  Ir6       1.0  0.34748614  0.154474975  0.4568782848043082  1.0000
  Ir  Ir7       1.0  0.34748614  0.404474975  0.47613159332863214  1.0000
  Ir  Ir8       1.0  0.8474861400000001  0.279474975  0.4665049390664701  1.0000
  V   V9        1.0  0.09706407  0.970525025  0.49973678416850215  1.0000
  V   V10       1.0  0.5969506500000001  0.5889454950000002  0.5099766824916635  1.0000
  V   V11       1.0  0.6474782000000001  0.8094987150000001  0.5265432272375057  1.0000
  V   V12       1.0  0.11048098  0.7417631650000001  0.5183481781450371  1.0000
  Ir  Ir9       1.0  0.90293593  0.500574725  0.5222325315995547  1.0000
  Ir  Ir10      1.0  0.34748614  0.6544749750000001  0.495384901852956  1.0000
  Ir  Ir11      1.0  0.372409  0.896048315  0.5148102394590771  1.0000
  Ir  Ir12      1.0  0.8509276100000001  0.776922305  0.5046716104582244  1.0000
  V   V13       1.0  0.09748613999999999  0.9669749749999998  0.46169161193538916  1.0000
  V   V14       1.0  0.5974861400000001  0.591974975  0.4713182661975511  1.0000
  V   V15       1.0  0.5974861400000001  0.841974975  0.490571574721875  1.0000
  V   V16       1.0  0.09748613999999999  0.716974975  0.4809449204597131  1.0000
  Ir  Ir13      1.0  0.8474861400000001  0.5294749750000001  0.485758247590794  1.0000
  Ir  Ir14      1.0  0.34748614  0.6544749750000001  0.4568782848043082  1.0000
  Ir  Ir15      1.0  0.34748614  0.9044749750000001  0.47613159332863214  1.0000
  Ir  Ir16      1.0  0.8474861400000001  0.7794749750000001  0.4665049390664701  1.0000
