data_image0
_chemical_formula_structural       COFe6Ni18Fe6Ni18
_chemical_formula_sum              "C1 O1 Fe12 Ni36"
_cell_length_a       7.05782072
_cell_length_b       7.878325026232344
_cell_length_c       104.87883171
_cell_angle_alpha    71.56505120007593
_cell_angle_beta     90.0
_cell_angle_gamma    90.0

_space_group_name_H-M_alt    "P 1"
_space_group_IT_number       1

loop_
  _space_group_symop_operation_xyz
  'x, y, z'

loop_
  _atom_site_type_symbol
  _atom_site_label
  _atom_site_symmetry_multiplicity
  _atom_site_fract_x
  _atom_site_fract_y
  _atom_site_fract_z
  _atom_site_occupancy
  C   C1        1.0  0.7588141949999999  0.6550351950000001  0.5428672650461719  1.0000
  O   O1        1.0  0.753882945  0.6285109550000001  0.5546928837542631  1.0000
  Fe  Fe1       1.0  0.0013860050000000256  0.667165695  0.4690616244882083  1.0000
  Fe  Fe2       1.0  0.0013860050000000256  0.33383235499999997  0.4532252845513503  1.0000
  Fe  Fe3       1.0  0.0013860050000000256  0.0004990249999999896  0.48489796442506616  1.0000
  Fe  Fe4       1.0  0.5013860050000001  0.667165695  0.445307116245737  1.0000
  Fe  Fe5       1.0  0.5013860050000001  0.33383235499999997  0.47697979279382163  1.0000
  Fe  Fe6       1.0  0.5013860050000001  0.0004990249999999896  0.4611434561825949  1.0000
  Ni  Ni1       1.0  0.0013860050000000256  0.667165695  0.445307116245737  1.0000
  Ni  Ni2       1.0  0.0013860050000000256  0.33383235499999997  0.47697979279382163  1.0000
  Ni  Ni3       1.0  0.0013860050000000256  0.0004990249999999896  0.4611434561825949  1.0000
  Ni  Ni4       1.0  0.751386005  0.500499025  0.4611434561825949  1.0000
  Ni  Ni5       1.0  0.751386005  0.167165695  0.44530711624573693  1.0000
  Ni  Ni6       1.0  0.751386005  0.8338323550000001  0.4769797927938215  1.0000
  Ni  Ni7       1.0  0.751386005  0.8338323550000001  0.4532252845513503  1.0000
  Ni  Ni8       1.0  0.751386005  0.500499025  0.48489796442506616  1.0000
  Ni  Ni9       1.0  0.751386005  0.167165695  0.46906162448820826  1.0000
  Ni  Ni10      1.0  0.5013860050000001  0.667165695  0.4690616244882083  1.0000
  Ni  Ni11      1.0  0.5013860050000001  0.33383235499999997  0.4532252845513503  1.0000
  Ni  Ni12      1.0  0.5013860050000001  0.0004990249999999896  0.48489796442506616  1.0000
  Ni  Ni13      1.0  0.251386005  0.8338323550000001  0.4532252845513503  1.0000
  Ni  Ni14      1.0  0.251386005  0.500499025  0.48489796442506616  1.0000
  Ni  Ni15      1.0  0.251386005  0.167165695  0.46906162448820826  1.0000
  Ni  Ni16      1.0  0.251386005  0.500499025  0.4611434561825949  1.0000
  Ni  Ni17      1.0  0.251386005  0.167165695  0.44530711624573693  1.0000
  Ni  Ni18      1.0  0.251386005  0.8338323550000001  0.4769797927938215  1.0000
  Fe  Fe7       1.0  0.005225675000000026  0.663713505  0.5166165213814683  1.0000
  Fe  Fe8       1.0  0.0013860050000000256  0.33383235499999997  0.5007343043619241  1.0000
  Fe  Fe9       1.0  0.008231275000000024  0.01264122499999999  0.5305313648092448  1.0000
  Fe  Fe10      1.0  0.5013860050000001  0.667165695  0.4928161327306796  1.0000
  Fe  Fe11      1.0  0.501109145  0.337672765  0.5232847545185035  1.0000
  Fe  Fe12      1.0  0.502125675  0.999500975  0.5089132320859024  1.0000
  Ni  Ni19      1.0  0.0013860050000000256  0.667165695  0.4928161327306796  1.0000
  Ni  Ni20      1.0  0.0012720550000000256  0.331051035  0.5247151650421534  1.0000
  Ni  Ni21      1.0  0.998727945  0.0009590149999999896  0.5083605919922115  1.0000
  Ni  Ni22      1.0  0.751889975  0.499739635  0.5086197451306969  1.0000
  Ni  Ni23      1.0  0.751386005  0.167165695  0.4928161327306795  1.0000
  Ni  Ni24      1.0  0.760266915  0.830497815  0.5258693619391571  1.0000
  Ni  Ni25      1.0  0.751386005  0.8338323550000001  0.5007343043619241  1.0000
  Ni  Ni26      1.0  0.751941215  0.508051485  0.5316608855225925  1.0000
  Ni  Ni27      1.0  0.7525746649999999  0.166665785  0.5170306256554086  1.0000
  Ni  Ni28      1.0  0.49998670500000003  0.669602335  0.5168561364365336  1.0000
  Ni  Ni29      1.0  0.5013860050000001  0.33383235499999997  0.5007343043619241  1.0000
  Ni  Ni30      1.0  0.496241555  0.01197350499999999  0.5313700025366326  1.0000
  Ni  Ni31      1.0  0.251386005  0.8338323550000001  0.5007343043619241  1.0000
  Ni  Ni32      1.0  0.25331310500000004  0.501515285  0.5312326439903341  1.0000
  Ni  Ni33      1.0  0.24989258500000003  0.16961028500000003  0.5166038640290432  1.0000
  Ni  Ni34      1.0  0.251242105  0.5003724350000001  0.5084802648316796  1.0000
  Ni  Ni35      1.0  0.251386005  0.167165695  0.4928161327306795  1.0000
  Ni  Ni36      1.0  0.243817585  0.8367300249999999  0.5243550590423398  1.0000
