data_image0
_chemical_formula_structural       COIn12Cu28
_chemical_formula_sum              "C1 O1 In12 Cu28"
_cell_length_a       6.743982283027826
_cell_length_b       10.091475317612217
_cell_length_c       33.30925771
_cell_angle_alpha    73.65503207548178
_cell_angle_beta     90.0342229358074
_cell_angle_gamma    96.81450088524056

_space_group_name_H-M_alt    "P 1"
_space_group_IT_number       1

loop_
  _space_group_symop_operation_xyz
  'x, y, z'

loop_
  _atom_site_type_symbol
  _atom_site_label
  _atom_site_symmetry_multiplicity
  _atom_site_fract_x
  _atom_site_fract_y
  _atom_site_fract_z
  _atom_site_occupancy
  C   C1        1.0  0.7268695350000002  0.61879851  0.6309463669037729  1.0000
  O   O1        1.0  0.6402059449999999  0.56272743  0.6629878141151627  1.0000
  In  In1       1.0  0.815789405  0.07040879000000003  0.5730097879304907  1.0000
  In  In2       1.0  0.22054366499999994  0.95435334  0.5948707867708912  1.0000
  In  In3       1.0  0.633925085  0.39765912000000003  0.4385258248188262  1.0000
  In  In4       1.0  0.39719084500000007  0.6655370600000001  0.4353653718036268  1.0000
  In  In5       1.0  0.936477825  0.51388491  0.35957145892741227  1.0000
  In  In6       1.0  0.09663894499999999  0.5517868  0.5154242847297305  1.0000
  In  In7       1.0  0.157468355  0.21348879  0.36393462624903566  1.0000
  In  In8       1.0  0.8732395349999998  0.8416287499999999  0.512705088754298  1.0000
  In  In9       1.0  0.340377355  0.92729913  0.4819648866219604  1.0000
  In  In10      1.0  0.6907385749999999  0.13589705000000002  0.3919263100004925  1.0000
  In  In11      1.0  0.5241159649999999  0.42774053000000006  0.547465831077728  1.0000
  In  In12      1.0  0.496087325  0.65282154  0.33701218588483717  1.0000
  Cu  Cu1       1.0  0.015557965000000012  0.03159809000000003  0.4369455983112265  1.0000
  Cu  Cu2       1.0  0.015557965000000003  0.53159809  0.4369455983112265  1.0000
  Cu  Cu3       1.0  0.318058415  0.96840191  0.39729037152612573  1.0000
  Cu  Cu4       1.0  0.713057515  0.09479427000000004  0.4766008250963271  1.0000
  Cu  Cu5       1.0  0.8488288650000001  0.32256224  0.5835939425973803  1.0000
  Cu  Cu6       1.0  0.19421365499999999  0.7312736900000001  0.563182067608814  1.0000
  Cu  Cu7       1.0  0.17006656499999998  0.2500966  0.5575581359895143  1.0000
  Cu  Cu8       1.0  0.8636509850000001  0.79790089  0.5960860473657472  1.0000
  Cu  Cu9       1.0  0.461838475  0.17451810000000004  0.5171057737742526  1.0000
  Cu  Cu10      1.0  0.574953545  0.89804447  0.3561776273230933  1.0000
  Cu  Cu11      1.0  0.287718315  0.4477036800000001  0.39568105393182834  1.0000
  Cu  Cu12      1.0  0.7433976149999999  0.6154925  0.4782101426906247  1.0000
  Cu  Cu13      1.0  0.352887915  0.19229058000000002  0.4369853300604575  1.0000
  Cu  Cu14      1.0  0.6782280150000001  0.8709056000000002  0.43690586656199554  1.0000
  Cu  Cu15      1.0  0.25794346500000004  0.3668828  0.4761428470154366  1.0000
  Cu  Cu16      1.0  0.7731724649999999  0.69631338  0.39774834960701627  1.0000
  Cu  Cu17      1.0  0.5551522249999999  0.37857252  0.35237572741214634  1.0000
  Cu  Cu18      1.0  0.492564825  0.6936567100000001  0.5222239654982272  1.0000
  Cu  Cu19      1.0  0.871946135  0.31832256000000003  0.5030778777287815  1.0000
  Cu  Cu20      1.0  0.159169795  0.74487362  0.3708133188936715  1.0000
  Cu  Cu21      1.0  0.04667389499999999  0.78178994  0.44176419920748256  1.0000
  Cu  Cu22      1.0  0.9844420349999999  0.28140624000000003  0.4321269974149705  1.0000
  Cu  Cu23      1.0  0.8386871349999999  0.57152462  0.5809834113588934  1.0000
  Cu  Cu24      1.0  0.173381895  0.45390937000000003  0.5932025379710532  1.0000
  Cu  Cu25      1.0  0.49280943499999996  0.16864526000000002  0.5935706211793423  1.0000
  Cu  Cu26      1.0  0.535433795  0.8942140100000001  0.5545561142882013  1.0000
  Cu  Cu27      1.0  0.08475882500000002  0.11777718000000004  0.5013194586768769  1.0000
  Cu  Cu28      1.0  0.9463571049999999  0.945419  0.3725717379455761  1.0000
