data_image0
_chemical_formula_structural       COIr40
_chemical_formula_sum              "C1 O1 Ir40"
_cell_length_a       5.49646784
_cell_length_b       8.24470177066412
_cell_length_c       108.96294047
_cell_angle_alpha    94.04469120194614
_cell_angle_beta     90.0
_cell_angle_gamma    90.0

_space_group_name_H-M_alt    "P 1"
_space_group_IT_number       1

loop_
  _space_group_symop_operation_xyz
  'x, y, z'

loop_
  _atom_site_type_symbol
  _atom_site_label
  _atom_site_symmetry_multiplicity
  _atom_site_fract_x
  _atom_site_fract_y
  _atom_site_fract_z
  _atom_site_occupancy
  C   C1        1.0  0.37801276500000003  0.8343914550000001  0.5556799596562503  1.0000
  O   O1        1.0  0.378018295  0.8016607050000001  0.5662879454026251  1.0000
  Ir  Ir1       1.0  0.121981275  0.7657227350000001  0.5410885891873033  1.0000
  Ir  Ir2       1.0  0.126956895  0.210910385  0.5298744163781816  1.0000
  Ir  Ir3       1.0  0.128014085  0.5055858950000001  0.49330867638367504  1.0000
  Ir  Ir4       1.0  0.128014085  0.6389192250000001  0.5171473272436736  1.0000
  Ir  Ir5       1.0  0.128014085  0.07225255500000001  0.505228003601573  1.0000
  Ir  Ir6       1.0  0.378016625  0.9235828750000001  0.5227769447479682  1.0000
  Ir  Ir7       1.0  0.37801408500000006  0.355585895  0.5111876636347246  1.0000
  Ir  Ir8       1.0  0.37801534499999995  0.48930260500000006  0.5344247044527126  1.0000
  Ir  Ir9       1.0  0.37801408500000006  0.7889192250000001  0.49926833999262404  1.0000
  Ir  Ir10      1.0  0.3780145549999999  0.04441410500000001  0.5459025279594332  1.0000
  Ir  Ir11      1.0  0.128014085  0.9389192250000001  0.48138935274157446  1.0000
  Ir  Ir12      1.0  0.128014085  0.372252555  0.46947002909947394  1.0000
  Ir  Ir13      1.0  0.128014085  0.6722525550000001  0.4337120545973749  1.0000
  Ir  Ir14      1.0  0.128014085  0.8055858950000001  0.457550701881576  1.0000
  Ir  Ir15      1.0  0.128014085  0.238919225  0.4456313782394754  1.0000
  Ir  Ir16      1.0  0.37801408500000006  0.08891922499999999  0.463510365490525  1.0000
  Ir  Ir17      1.0  0.37801408500000006  0.5222525550000001  0.4515910418484244  1.0000
  Ir  Ir18      1.0  0.37801408500000006  0.6555858950000001  0.4754296891326255  1.0000
  Ir  Ir19      1.0  0.37801408500000006  0.955585895  0.4396717146305264  1.0000
  Ir  Ir20      1.0  0.37801408500000006  0.222252555  0.48734901635052347  1.0000
  Ir  Ir21      1.0  0.634049095  0.7657225750000001  0.5410886750064422  1.0000
  Ir  Ir22      1.0  0.629073255  0.21091426500000002  0.5298744378329664  1.0000
  Ir  Ir23      1.0  0.628014085  0.5055858950000001  0.49330867638367504  1.0000
  Ir  Ir24      1.0  0.628014085  0.6389192250000001  0.5171473272436736  1.0000
  Ir  Ir25      1.0  0.628014085  0.07225255500000001  0.505228003601573  1.0000
  Ir  Ir26      1.0  0.8780151950000001  0.9244236350000001  0.5227379399493813  1.0000
  Ir  Ir27      1.0  0.878014085  0.355585895  0.5111876636347246  1.0000
  Ir  Ir28      1.0  0.878018725  0.49293285500000006  0.5345504831280237  1.0000
  Ir  Ir29      1.0  0.878014085  0.7889192250000001  0.49926833999262404  1.0000
  Ir  Ir30      1.0  0.878012655  0.04770741500000001  0.5456515391606054  1.0000
  Ir  Ir31      1.0  0.628014085  0.9389192250000001  0.48138935274157446  1.0000
  Ir  Ir32      1.0  0.628014085  0.372252555  0.46947002909947394  1.0000
  Ir  Ir33      1.0  0.628014085  0.6722525550000001  0.4337120545973749  1.0000
  Ir  Ir34      1.0  0.628014085  0.8055858950000001  0.457550701881576  1.0000
  Ir  Ir35      1.0  0.628014085  0.238919225  0.4456313782394754  1.0000
  Ir  Ir36      1.0  0.878014085  0.08891922499999999  0.463510365490525  1.0000
  Ir  Ir37      1.0  0.878014085  0.5222525550000001  0.4515910418484244  1.0000
  Ir  Ir38      1.0  0.878014085  0.6555858950000001  0.4754296891326255  1.0000
  Ir  Ir39      1.0  0.878014085  0.955585895  0.4396717146305264  1.0000
  Ir  Ir40      1.0  0.878014085  0.222252555  0.48734901635052347  1.0000
