data_image0
_chemical_formula_structural       CORh16Si16
_chemical_formula_sum              "C1 O1 Rh16 Si16"
_cell_length_a       6.70200555
_cell_length_b       8.208246917147092
_cell_length_c       101.0759213
_cell_angle_alpha    95.05115250170716
_cell_angle_beta     90.0
_cell_angle_gamma    90.0

_space_group_name_H-M_alt    "P 1"
_space_group_IT_number       1

loop_
  _space_group_symop_operation_xyz
  'x, y, z'

loop_
  _atom_site_type_symbol
  _atom_site_label
  _atom_site_symmetry_multiplicity
  _atom_site_fract_x
  _atom_site_fract_y
  _atom_site_fract_z
  _atom_site_occupancy
  C   C1        1.0  0.9743437399999999  0.49748692000000005  0.5338262032595507  1.0000
  O   O1        1.0  0.9535075999999999  0.5418953200000001  0.5450385240546953  1.0000
  Rh  Rh1       1.0  0.89147143  0.63387055  0.5044216459287114  1.0000
  Rh  Rh2       1.0  0.36209266  0.31271374  0.5207352290934698  1.0000
  Rh  Rh3       1.0  0.87334539  0.25345167  0.4645693284203036  1.0000
  Rh  Rh4       1.0  0.37334539  0.9409516700000001  0.4837850333703014  1.0000
  Rh  Rh5       1.0  0.26885046  0.49175030000000003  0.49855305895452157  1.0000
  Rh  Rh6       1.0  0.78320125  0.1671059  0.5181033323865447  1.0000
  Rh  Rh7       1.0  0.27565626  0.11912912000000002  0.46081499780681373  1.0000
  Rh  Rh8       1.0  0.77565626  0.8066291200000001  0.4800307027568115  1.0000
  Rh  Rh9       1.0  0.92796713  0.2847016700000001  0.49339288584530033  1.0000
  Rh  Rh10      1.0  0.41937743  0.97389477  0.5126471359621715  1.0000
  Rh  Rh11      1.0  0.92796713  0.9097016700000001  0.45496147594530467  1.0000
  Rh  Rh12      1.0  0.42796713  0.59720167  0.47417718089530253  1.0000
  Rh  Rh13      1.0  0.025656260000000004  0.58499053  0.46291418905483295  1.0000
  Rh  Rh14      1.0  0.52565626  0.27249053000000006  0.48212989400483075  1.0000
  Rh  Rh15      1.0  0.02626001  0.9632143000000001  0.5002459656351291  1.0000
  Rh  Rh16      1.0  0.5209265  0.65235158  0.518153274772338  1.0000
  Si  Si1       1.0  0.18375487  0.36985523  0.4764988039202845  1.0000
  Si  Si2       1.0  0.6824701  0.05988681  0.49590399724267886  1.0000
  Si  Si3       1.0  0.19545738000000001  0.7463818400000001  0.5146141662033138  1.0000
  Si  Si4       1.0  0.68375487  0.6823552300000001  0.45728309897028663  1.0000
  Si  Si5       1.0  0.77565626  0.4962196400000001  0.4800307027568116  1.0000
  Si  Si6       1.0  0.27970286  0.18483975000000002  0.4992045728112486  1.0000
  Si  Si7       1.0  0.7516393299999999  0.87286649  0.5181969051833692  1.0000
  Si  Si8       1.0  0.27565626  0.80871964  0.46081499780681373  1.0000
  Si  Si9       1.0  0.11755765000000001  0.71360523  0.4861066563952834  1.0000
  Si  Si10      1.0  0.62760474  0.40079985  0.5066765919947733  1.0000
  Si  Si11      1.0  0.11973802  0.10840418  0.5231589843588892  1.0000
  Si  Si12      1.0  0.6175576499999998  0.026105230000000007  0.4668909514452856  1.0000
  Si  Si13      1.0  0.027942460000000002  0.40298466  0.5164051467674733  1.0000
  Si  Si14      1.0  0.52565626  0.35009290000000004  0.4582709460793818  1.0000
  Si  Si15      1.0  0.025656260000000004  0.037592900000000005  0.47748665102937954  1.0000
  Si  Si16      1.0  0.5280577  0.7247585300000001  0.49632594952727843  1.0000
