data_image0
_chemical_formula_structural       COSn2Ir2Sn2Ir2Sn2Ir2Sn2Ir2Sn2Ir2Sn2Ir2Sn2Ir2Sn2Ir2
_chemical_formula_sum              "C1 O1 Sn16 Ir16"
_cell_length_a       8.09231304
_cell_length_b       8.092313033057874
_cell_length_c       104.16228988
_cell_angle_alpha    90.0
_cell_angle_beta     90.0
_cell_angle_gamma    120.00000002837803

_space_group_name_H-M_alt    "P 1"
_space_group_IT_number       1

loop_
  _space_group_symop_operation_xyz
  'x, y, z'

loop_
  _atom_site_type_symbol
  _atom_site_label
  _atom_site_symmetry_multiplicity
  _atom_site_fract_x
  _atom_site_fract_y
  _atom_site_fract_z
  _atom_site_occupancy
  C   C1        1.0  0.3450672150000001  0.2558988200000001  0.5470910073420763  1.0000
  O   O1        1.0  0.344938165  0.25600981  0.558838982140773  1.0000
  Sn  Sn1       1.0  0.345082675  0.25587731  0.46849199703994027  1.0000
  Sn  Sn2       1.0  0.17841601500000004  0.42254397000000005  0.441161017859227  1.0000
  Ir  Ir1       1.0  0.011749344999999998  0.08921064000000004  0.4548265058097248  1.0000
  Ir  Ir2       1.0  0.011749344999999998  0.08921064000000004  0.48215748827015575  1.0000
  Sn  Sn3       1.0  0.345088045  0.25588932000000003  0.5170059607126622  1.0000
  Sn  Sn4       1.0  0.17841601500000004  0.42254397000000005  0.4958229762206535  1.0000
  Ir  Ir3       1.0  0.9882555150000001  0.07745603000000002  0.5098085252555083  1.0000
  Ir  Ir4       1.0  0.093938475  0.13030979000000004  0.5355935898516604  1.0000
  Sn  Sn5       1.0  0.34508267500000006  0.7558773100000001  0.46849199703994027  1.0000
  Sn  Sn6       1.0  0.17841601499999996  0.92254397  0.441161017859227  1.0000
  Ir  Ir5       1.0  0.01174934499999997  0.58921064  0.4548265058097248  1.0000
  Ir  Ir6       1.0  0.01174934499999997  0.58921064  0.48215748827015575  1.0000
  Sn  Sn7       1.0  0.37538932499999994  0.77103827  0.5276473751806154  1.0000
  Sn  Sn8       1.0  0.17841601499999996  0.92254397  0.4958229762206535  1.0000
  Ir  Ir7       1.0  0.011744485000000046  0.58921482  0.509149547990123  1.0000
  Ir  Ir8       1.0  0.011765075000000014  0.5891786500000001  0.5333475933006213  1.0000
  Sn  Sn9       1.0  0.8450826750000001  0.25587731  0.46849199703994027  1.0000
  Sn  Sn10      1.0  0.678416015  0.42254397000000005  0.441161017859227  1.0000
  Ir  Ir9       1.0  0.511749345  0.08921064000000004  0.4548265058097248  1.0000
  Ir  Ir10      1.0  0.511749345  0.08921064000000004  0.48215748827015575  1.0000
  Sn  Sn11      1.0  0.8299184049999999  0.22555872000000005  0.5276478540193899  1.0000
  Sn  Sn12      1.0  0.678416015  0.42254397000000005  0.4958229762206535  1.0000
  Ir  Ir11      1.0  0.523496765  0.07745977000000004  0.5098088696258598  1.0000
  Ir  Ir12      1.0  0.4706239550000001  0.13032375000000002  0.5355962529823783  1.0000
  Sn  Sn13      1.0  0.8450826750000002  0.7558773100000001  0.46849199703994027  1.0000
  Sn  Sn14      1.0  0.6784160149999999  0.92254397  0.441161017859227  1.0000
  Ir  Ir13      1.0  0.5117493449999999  0.58921064  0.4548265058097248  1.0000
  Ir  Ir14      1.0  0.5117493449999999  0.58921064  0.48215748827015575  1.0000
  Sn  Sn15      1.0  0.8299485950000001  0.77099228  0.5276445939800628  1.0000
  Sn  Sn16      1.0  0.6784160149999999  0.92254397  0.4958229762206535  1.0000
  Ir  Ir15      1.0  0.523509605  0.61271477  0.5098083547101915  1.0000
  Ir  Ir16      1.0  0.470643295  0.5070198600000001  0.5355942917112338  1.0000
