data_image0
_chemical_formula_structural       COIr12W4Ir12W4
_chemical_formula_sum              "C1 O1 Ir24 W8"
_cell_length_a       5.558303846983165
_cell_length_b       7.113508688411377
_cell_length_c       112.68105212
_cell_angle_alpha    85.17088062823356
_cell_angle_beta     67.002776879463
_cell_angle_gamma    67.00277686252142

_space_group_name_H-M_alt    "P 1"
_space_group_IT_number       1

loop_
  _space_group_symop_operation_xyz
  'x, y, z'

loop_
  _atom_site_type_symbol
  _atom_site_label
  _atom_site_symmetry_multiplicity
  _atom_site_fract_x
  _atom_site_fract_y
  _atom_site_fract_z
  _atom_site_occupancy
  C   C1        1.0  0.8284222200000001  0.31617432999999995  0.5595809405666159  1.0000
  O   O1        1.0  0.80117454  0.2622881  0.5702411610562418  1.0000
  Ir  Ir1       1.0  0.12784956999999994  0.04152989000000001  0.45608010559205264  1.0000
  Ir  Ir2       1.0  0.62784957  0.54152989  0.4876448996203812  1.0000
  Ir  Ir3       1.0  0.8778495699999999  0.9584701099999999  0.42975883894375816  1.0000
  Ir  Ir4       1.0  0.37784956999999997  0.45847010999999993  0.46132363675986227  1.0000
  Ir  Ir5       1.0  0.6276444099999999  0.70826495  0.44555418825602217  1.0000
  Ir  Ir6       1.0  0.12764440999999993  0.20826495  0.4771189860721262  1.0000
  Ir  Ir7       1.0  0.8776444099999999  0.29173505  0.4402847562797886  1.0000
  Ir  Ir8       1.0  0.37764440999999993  0.79173506  0.47184955030811726  1.0000
  Ir  Ir9       1.0  0.37805473  0.29173506  0.4402847562797887  1.0000
  Ir  Ir10      1.0  0.87805473  0.79173505  0.47184955030811726  1.0000
  Ir  Ir11      1.0  0.12805472999999995  0.70826495  0.44555418825602217  1.0000
  Ir  Ir12      1.0  0.62805473  0.20826495  0.47711898607212616  1.0000
  W   W1        1.0  0.62784957  0.04166667000000001  0.456071469464061  1.0000
  W   W2        1.0  0.12784957  0.54166667  0.48763626728016507  1.0000
  W   W3        1.0  0.37784956999999997  0.95833333  0.4297674750717498  1.0000
  W   W4        1.0  0.8778495699999999  0.45833333  0.46133226910007835  1.0000
  Ir  Ir13      1.0  0.12784956999999994  0.04152989000000001  0.5192096936487098  1.0000
  Ir  Ir14      1.0  0.63319536  0.54180509  0.5499665059356914  1.0000
  Ir  Ir15      1.0  0.8778495699999999  0.9584701099999999  0.4928884307881908  1.0000
  Ir  Ir16      1.0  0.37479014  0.46547467  0.5241466384850423  1.0000
  Ir  Ir17      1.0  0.6276444099999998  0.70826494  0.5086837801004548  1.0000
  Ir  Ir18      1.0  0.12194526999999997  0.21259086  0.5402724560529005  1.0000
  Ir  Ir19      1.0  0.8776444099999999  0.29173505  0.5034143443364459  1.0000
  Ir  Ir20      1.0  0.3705033999999999  0.78912762  0.5354918213454405  1.0000
  Ir  Ir21      1.0  0.37805472999999995  0.29173505  0.5034143443364458  1.0000
  Ir  Ir22      1.0  0.8742552400000001  0.79127982  0.5352379684235682  1.0000
  Ir  Ir23      1.0  0.12805472999999995  0.70826495  0.5086837801004548  1.0000
  Ir  Ir24      1.0  0.62776154  0.2101667  0.5396372385369151  1.0000
  W   W5        1.0  0.62784957  0.04166667000000001  0.5192010613084936  1.0000
  W   W6        1.0  0.15814174999999994  0.53935008  0.5484591303991654  1.0000
  W   W7        1.0  0.37784956999999997  0.95833333  0.492897063128407  1.0000
  W   W8        1.0  0.8688912  0.45827797  0.5251824284043712  1.0000
