data_image0
_chemical_formula_structural       COIr12W4Ir12W4
_chemical_formula_sum              "C1 O1 Ir24 W8"
_cell_length_a       5.55830385
_cell_length_b       11.97022267546885
_cell_length_c       101.07500515
_cell_angle_alpha    68.23128468261191
_cell_angle_beta     90.0
_cell_angle_gamma    62.33220990302246

_space_group_name_H-M_alt    "P 1"
_space_group_IT_number       1

loop_
  _space_group_symop_operation_xyz
  'x, y, z'

loop_
  _atom_site_type_symbol
  _atom_site_label
  _atom_site_symmetry_multiplicity
  _atom_site_fract_x
  _atom_site_fract_y
  _atom_site_fract_z
  _atom_site_occupancy
  C   C1        1.0  0.70793297  0.7967894800000002  0.5370672219454908  1.0000
  O   O1        1.0  0.7124797900000001  0.79121071  0.549270043036903  1.0000
  Ir  Ir1       1.0  0.83722717  0.16652989000000004  0.46171914505842393  1.0000
  Ir  Ir2       1.0  0.8372271700000002  0.66652989  0.4836795049719667  1.0000
  Ir  Ir3       1.0  0.17028694999999994  0.33347011  0.476347369025295  1.0000
  Ir  Ir4       1.0  0.17028694999999988  0.83347011  0.4543870121862023  1.0000
  Ir  Ir5       1.0  0.17028694999999994  0.08326494999999999  0.487336560195072  1.0000
  Ir  Ir6       1.0  0.17028694999999988  0.58326495  0.46537620335597923  1.0000
  Ir  Ir7       1.0  0.3368168399999998  0.41673505  0.45072995696309703  1.0000
  Ir  Ir8       1.0  0.33681683999999995  0.91673505  0.47269031380218984  1.0000
  Ir  Ir9       1.0  0.83722717  0.41673505  0.45072995696309703  1.0000
  Ir  Ir10      1.0  0.83722717  0.91673505  0.47269031380218984  1.0000
  Ir  Ir11      1.0  0.6706972799999998  0.08326494999999999  0.487336560195072  1.0000
  Ir  Ir12      1.0  0.67069728  0.58326495  0.46537620335597923  1.0000
  W   W1        1.0  0.3370903899999999  0.16666667  0.4617131375830869  1.0000
  W   W2        1.0  0.3370903899999998  0.66666667  0.48367349749662963  1.0000
  W   W3        1.0  0.6704237299999999  0.33333333  0.4763533765006321  1.0000
  W   W4        1.0  0.6704237300000001  0.8333333300000001  0.45439301966153933  1.0000
  Ir  Ir13      1.0  0.84375279  0.15996124  0.5058657262817025  1.0000
  Ir  Ir14      1.0  0.8293934399999998  0.67423411  0.5262205868741932  1.0000
  Ir  Ir15      1.0  0.1697056199999999  0.334009  0.5199221056194966  1.0000
  Ir  Ir16      1.0  0.17028694999999988  0.83347011  0.49830772586438776  1.0000
  Ir  Ir17      1.0  0.1557141999999999  0.10358046999999998  0.529955896073631  1.0000
  Ir  Ir18      1.0  0.18079919999999985  0.57531287  0.5102795204835749  1.0000
  Ir  Ir19      1.0  0.3368168399999998  0.41673505  0.4946506706412825  1.0000
  Ir  Ir20      1.0  0.3402606799999997  0.9114306700000001  0.5179849899704994  1.0000
  Ir  Ir21      1.0  0.83722717  0.41673505  0.4946506706412825  1.0000
  Ir  Ir22      1.0  0.8442858  0.91120706  0.5180649072242922  1.0000
  Ir  Ir23      1.0  0.6445718999999999  0.10359936  0.5299579744018439  1.0000
  Ir  Ir24      1.0  0.6760720399999999  0.575278  0.5102834619284993  1.0000
  W   W5        1.0  0.33613818999999995  0.16762045  0.5058115452490183  1.0000
  W   W6        1.0  0.32536507999999986  0.67828788  0.5250849741962391  1.0000
  W   W7        1.0  0.6788699599999999  0.32486145  0.5194981205151816  1.0000
  W   W8        1.0  0.6704237300000001  0.8333333300000001  0.4983137333397248  1.0000
