data_image0
_chemical_formula_structural       COPd6V3Pd6V3
_chemical_formula_sum              "C1 O1 Pd12 V6"
_cell_length_a       7.65330268
_cell_length_b       4.803231020724591
_cell_length_c       98.80946569
_cell_angle_alpha    91.232513323294
_cell_angle_beta     90.0
_cell_angle_gamma    113.47453096280142

_space_group_name_H-M_alt    "P 1"
_space_group_IT_number       1

loop_
  _space_group_symop_operation_xyz
  'x, y, z'

loop_
  _atom_site_type_symbol
  _atom_site_label
  _atom_site_symmetry_multiplicity
  _atom_site_fract_x
  _atom_site_fract_y
  _atom_site_fract_z
  _atom_site_occupancy
  C   C1        1.0  0.24685252999999993  0.07752351499999997  0.5342333191829547  1.0000
  O   O1        1.0  0.24995827999999995  0.08583761499999996  0.5462817093130679  1.0000
  Pd  Pd1       1.0  0.14528798999999995  0.6728276449999999  0.4537182906869321  1.0000
  Pd  Pd2       1.0  0.45260507999999994  0.902095985  0.47163892488239934  1.0000
  Pd  Pd3       1.0  0.09983344999999998  0.49100946500000003  0.48022427663650674  1.0000
  Pd  Pd4       1.0  0.40310621999999996  0.715113885  0.4986175244938747  1.0000
  Pd  Pd5       1.0  0.04739491999999996  0.302358945  0.5078888752916644  1.0000
  Pd  Pd6       1.0  0.35954  0.5230085349999999  0.5248217543686882  1.0000
  V   V1        1.0  0.29894652999999993  0.28746181499999995  0.4626786077846657  1.0000
  V   V2        1.0  0.25349199  0.10564363499999997  0.4891845937342404  1.0000
  V   V3        1.0  0.20407751999999998  0.918419925  0.5146551068986289  1.0000
  Pd  Pd7       1.0  0.6452879899999999  0.6728276449999999  0.4537182906869321  1.0000
  Pd  Pd8       1.0  0.95260508  0.902095985  0.47163892488239934  1.0000
  Pd  Pd9       1.0  0.5998334499999999  0.49100946500000003  0.48022427663650674  1.0000
  Pd  Pd10      1.0  0.90875933  0.718372825  0.49835712120338654  1.0000
  Pd  Pd11      1.0  0.5574687299999999  0.30432855499999995  0.5075621699272589  1.0000
  Pd  Pd12      1.0  0.8631254  0.568008015  0.5248819802103256  1.0000
  V   V4        1.0  0.79894653  0.28746181499999995  0.4626786077846657  1.0000
  V   V5        1.0  0.7534919900000001  0.10564363499999997  0.4891845937342404  1.0000
  V   V6        1.0  0.7091828599999999  0.9224764850000001  0.5128803310013633  1.0000
