data_image0
_chemical_formula_structural       COAl18Co4Al18Co4
_chemical_formula_sum              "C1 O1 Al36 Co8"
_cell_length_a       8.611134233436166
_cell_length_b       6.23551108
_cell_length_c       107.89289866
_cell_angle_alpha    90.0
_cell_angle_beta     90.0
_cell_angle_gamma    94.88066606134787

_space_group_name_H-M_alt    "P 1"
_space_group_IT_number       1

loop_
  _space_group_symop_operation_xyz
  'x, y, z'

loop_
  _atom_site_type_symbol
  _atom_site_label
  _atom_site_symmetry_multiplicity
  _atom_site_fract_x
  _atom_site_fract_y
  _atom_site_fract_z
  _atom_site_occupancy
  C   C1        1.0  0.502393375  0.67550983  0.5542005895974061  1.0000
  O   O1        1.0  0.510230035  0.65421736  0.5649700282193761  1.0000
  Al  Al1       1.0  0.023165445000000007  0.3436487500000001  0.4955451033277968  1.0000
  Al  Al2       1.0  0.528454845  0.35297177  0.5245562285248572  1.0000
  Al  Al3       1.0  0.7557250950000001  0.93800435  0.49356471609416275  1.0000
  Al  Al4       1.0  0.796586265  0.76117464  0.5227115587759793  1.0000
  Al  Al5       1.0  0.29060579500000006  0.74929315  0.49752549056143075  1.0000
  Al  Al6       1.0  0.24857825500000005  0.9266252700000001  0.5263278293538699  1.0000
  Al  Al7       1.0  0.7938853149999999  0.2560046  0.5125068563316821  1.0000
  Al  Al8       1.0  0.7846908149999999  0.4285625300000001  0.5401825043397696  1.0000
  Al  Al9       1.0  0.24012905500000004  0.39210659000000003  0.5365516726591747  1.0000
  Al  Al10      1.0  0.293885315  0.25600459999999997  0.5078507207246384  1.0000
  Al  Al11      1.0  0.02550219500000001  0.95349359  0.5067679696305742  1.0000
  Al  Al12      1.0  0.525889145  0.73874612  0.5356846267763713  1.0000
  Al  Al13      1.0  0.033011035000000015  0.7051458599999999  0.5438734453480977  1.0000
  Al  Al14      1.0  0.525502195  0.9534935899999999  0.5135896074257464  1.0000
  Al  Al15      1.0  0.9736276549999999  0.10938353000000002  0.5333564237575928  1.0000
  Al  Al16      1.0  0.567159585  0.5595881100000001  0.5022209896125432  1.0000
  Al  Al17      1.0  0.06715958500000002  0.5595881100000001  0.5181365874437774  1.0000
  Al  Al18      1.0  0.46825060500000004  0.12080286999999998  0.5455290104143886  1.0000
  Co  Co1       1.0  0.688142935  0.08490932999999999  0.5316256895448528  1.0000
  Co  Co2       1.0  0.856679465  0.6073749500000001  0.5024795949370534  1.0000
  Co  Co3       1.0  0.356679465  0.6073749500000001  0.5178779821192672  1.0000
  Co  Co4       1.0  0.194357635  0.04650641000000002  0.5461316279364339  1.0000
  Al  Al19      1.0  0.023165445000000007  0.3436487500000001  0.4370103590142579  1.0000
  Al  Al20      1.0  0.523165445  0.34364875000000006  0.466277729414985  1.0000
  Al  Al21      1.0  0.7557250950000001  0.93800435  0.43502997178062386  1.0000
  Al  Al22      1.0  0.790605795  0.74929315  0.464297342181351  1.0000
  Al  Al23      1.0  0.29060579500000006  0.74929315  0.43899074624789186  1.0000
  Al  Al24      1.0  0.255725095  0.93800435  0.46825811664861905  1.0000
  Al  Al25      1.0  0.7938853149999999  0.2560046  0.4539721120181433  1.0000
  Al  Al26      1.0  0.752445575  0.4312929  0.4832394824188705  1.0000
  Al  Al27      1.0  0.252445575  0.4312929  0.4785833503239113  1.0000
  Al  Al28      1.0  0.293885315  0.25600459999999997  0.44931597641109955  1.0000
  Al  Al29      1.0  0.02550219500000001  0.95349359  0.44823322531703536  1.0000
  Al  Al30      1.0  0.520828695  0.73380391  0.4775005957177625  1.0000
  Al  Al31      1.0  0.020828695000000015  0.73380391  0.48432223702501925  1.0000
  Al  Al32      1.0  0.525502195  0.9534935899999999  0.4550548666242921  1.0000
  Al  Al33      1.0  0.979171305  0.12770939  0.4729536192118161  1.0000
  Al  Al34      1.0  0.567159585  0.5595881100000001  0.443686248811089  1.0000
  Al  Al35      1.0  0.06715958500000002  0.5595881100000001  0.45960184313023855  1.0000
  Al  Al36      1.0  0.47917130499999994  0.12770939  0.4888692135309657  1.0000
  Co  Co5       1.0  0.689651425  0.07992255000000004  0.4732122245363264  1.0000
  Co  Co6       1.0  0.856679465  0.6073749500000001  0.4439448506235146  1.0000
  Co  Co7       1.0  0.356679465  0.6073749500000001  0.4593432378057283  1.0000
  Co  Co8       1.0  0.189651425  0.07992255000000004  0.4886106117185401  1.0000
