data_image0
_chemical_formula_structural       COCu4Sn4Cu4Sn4
_chemical_formula_sum              "C1 O1 Cu8 Sn8"
_cell_length_a       5.16149567
_cell_length_b       7.32390762
_cell_length_c       99.59922023
_cell_angle_alpha    90.0
_cell_angle_beta     90.0
_cell_angle_gamma    90.0

_space_group_name_H-M_alt    "P 1"
_space_group_IT_number       1

loop_
  _space_group_symop_operation_xyz
  'x, y, z'

loop_
  _atom_site_type_symbol
  _atom_site_label
  _atom_site_symmetry_multiplicity
  _atom_site_fract_x
  _atom_site_fract_y
  _atom_site_fract_z
  _atom_site_occupancy
  C   C1        1.0  0.11816677  4.150000001423848e-07  0.536196131152023  1.0000
  O   O1        1.0  0.11816719000000002  1.1149999999656464e-06  0.5478650820887324  1.0000
  Cu  Cu1       1.0  0.11816650000000001  0.500000495  0.45213491791126775  1.0000
  Cu  Cu2       1.0  0.11816650000000001  4.949999999656464e-07  0.4733622926764685  1.0000
  Cu  Cu3       1.0  0.6181665000000001  0.500000495  0.45213491791126775  1.0000
  Cu  Cu4       1.0  0.6181665000000001  4.949999999656464e-07  0.4733622926764685  1.0000
  Sn  Sn1       1.0  0.8681665  0.3333338249999999  0.4733622926764685  1.0000
  Sn  Sn2       1.0  0.8681665  0.833333825  0.45213491791126775  1.0000
  Sn  Sn3       1.0  0.3681665  0.666667165  0.4733622926764685  1.0000
  Sn  Sn4       1.0  0.3681665  0.16666716499999995  0.45213491791126775  1.0000
  Cu  Cu5       1.0  0.11816651000000002  0.500000825  0.49431042217014304  1.0000
  Cu  Cu6       1.0  0.11816623000000001  0.999999875  0.5173782409317154  1.0000
  Cu  Cu7       1.0  0.61816643  0.500000405  0.49355279507315075  1.0000
  Cu  Cu8       1.0  0.61816509  0.999999585  0.5145378793042932  1.0000
  Sn  Sn5       1.0  0.8537409600000001  0.34489631499999995  0.5152831168314822  1.0000
  Sn  Sn6       1.0  0.8818337700000001  0.835330015  0.4951389036982337  1.0000
  Sn  Sn7       1.0  0.38259262000000005  0.655098455  0.515283369437247  1.0000
  Sn  Sn8       1.0  0.35449695000000003  0.164670615  0.49513888586723864  1.0000
