data_image0
_chemical_formula_structural       COCu3Pt3Cu3Pt3Cu3Pt3Cu3Pt3Cu3Pt3Cu3Pt3
_chemical_formula_sum              "C1 O1 Cu18 Pt18"
_cell_length_a       5.535641167971973
_cell_length_b       12.96225252
_cell_length_c       103.21384702
_cell_angle_alpha    90.0
_cell_angle_beta     119.9999999523613
_cell_angle_gamma    90.0

_space_group_name_H-M_alt    "P 1"
_space_group_IT_number       1

loop_
  _space_group_symop_operation_xyz
  'x, y, z'

loop_
  _atom_site_type_symbol
  _atom_site_label
  _atom_site_symmetry_multiplicity
  _atom_site_fract_x
  _atom_site_fract_y
  _atom_site_fract_z
  _atom_site_occupancy
  C   C1        1.0  0.24896828000000001  0.18241510500000002  0.5292935260202616  1.0000
  O   O1        1.0  0.37280780999999996  0.176319415  0.542753517489966  1.0000
  Cu  Cu1       1.0  0.0019901200000000227  0.004795015  0.47512405990964796  1.0000
  Cu  Cu2       1.0  0.16865679  0.33812834499999994  0.4661852728188232  1.0000
  Cu  Cu3       1.0  0.33532344999999997  0.6714616849999999  0.457246482510034  1.0000
  Pt  Pt1       1.0  0.33532344999999997  0.17146168499999997  0.457246482510034  1.0000
  Pt  Pt2       1.0  0.0019901200000000227  0.504795015  0.47512405990964796  1.0000
  Pt  Pt3       1.0  0.16865679  0.838128345  0.4661852728188232  1.0000
  Cu  Cu4       1.0  0.99708958  0.005877795  0.5015136998142927  1.0000
  Cu  Cu5       1.0  0.16865679  0.33812834499999994  0.4930016405272262  1.0000
  Cu  Cu6       1.0  0.33532344999999997  0.6714616849999999  0.48406285021843704  1.0000
  Pt  Pt4       1.0  0.33532344999999997  0.17146168499999997  0.48406285021843704  1.0000
  Pt  Pt5       1.0  0.9980098799999999  0.507305185  0.501617446981833  1.0000
  Pt  Pt6       1.0  0.16865679  0.838128345  0.4930016405272262  1.0000
  Cu  Cu7       1.0  0.96668138  0.9952049850000001  0.5259906493437716  1.0000
  Cu  Cu8       1.0  0.1624845  0.34084222499999994  0.5196107295041539  1.0000
  Cu  Cu9       1.0  0.3414861  0.6703748850000001  0.5116392335063211  1.0000
  Pt  Pt7       1.0  0.34595645999999997  0.173212585  0.512398132452206  1.0000
  Pt  Pt8       1.0  0.9909275799999999  0.500427475  0.5279592389759891  1.0000
  Pt  Pt9       1.0  0.16637089000000002  0.8353264449999999  0.519551020177426  1.0000
  Cu  Cu10      1.0  0.50199012  0.004795015  0.47512405990964796  1.0000
  Cu  Cu11      1.0  0.66865679  0.33812834499999994  0.4661852728188232  1.0000
  Cu  Cu12      1.0  0.83532345  0.6714616849999999  0.457246482510034  1.0000
  Pt  Pt10      1.0  0.83532345  0.17146168499999997  0.457246482510034  1.0000
  Pt  Pt11      1.0  0.50199012  0.504795015  0.47512405990964796  1.0000
  Pt  Pt12      1.0  0.66865679  0.838128345  0.4661852728188232  1.0000
  Cu  Cu13      1.0  0.49584120000000004  0.007396715000000001  0.501525117151465  1.0000
  Cu  Cu14      1.0  0.66865679  0.33812834499999994  0.4930016405272262  1.0000
  Cu  Cu15      1.0  0.83532345  0.6714616849999999  0.48406285021843715  1.0000
  Pt  Pt13      1.0  0.83532345  0.17146168499999997  0.48406285021843715  1.0000
  Pt  Pt14      1.0  0.49799325000000005  0.507301635  0.5016046491379959  1.0000
  Pt  Pt15      1.0  0.66865679  0.838128345  0.4930016405272262  1.0000
  Cu  Cu16      1.0  0.48769984999999993  0.995061635  0.5261437922626064  1.0000
  Cu  Cu17      1.0  0.65947998  0.33920185499999994  0.5193391751546746  1.0000
  Cu  Cu18      1.0  0.84338929  0.670468495  0.5116599153625798  1.0000
  Pt  Pt16      1.0  0.84161278  0.17341107500000003  0.5121710696764987  1.0000
  Pt  Pt17      1.0  0.49206973  0.5005240950000001  0.5279676700423338  1.0000
  Pt  Pt18      1.0  0.66568333  0.832644515  0.5195051513149533  1.0000
