data_image0
_chemical_formula_structural       COCo12Fe6Ga6
_chemical_formula_sum              "C1 O1 Co12 Fe6 Ga6"
_cell_length_a       5.6931132
_cell_length_b       6.972611197804242
_cell_length_c       100.65835286000001
_cell_angle_alpha    94.34775314499664
_cell_angle_beta     90.0
_cell_angle_gamma    114.09484253795333

_space_group_name_H-M_alt    "P 1"
_space_group_IT_number       1

loop_
  _space_group_symop_operation_xyz
  'x, y, z'

loop_
  _atom_site_type_symbol
  _atom_site_label
  _atom_site_symmetry_multiplicity
  _atom_site_fract_x
  _atom_site_fract_y
  _atom_site_fract_z
  _atom_site_occupancy
  C   C1        1.0  0.65639959  0.28887661499999995  0.5378949366201797  1.0000
  O   O1        1.0  0.69149944  0.355513875  0.5491350221550023  1.0000
  Co  Co1       1.0  0.35416667  0.24560732499999996  0.4762465042017049  1.0000
  Co  Co2       1.0  0.9375000000000001  0.41227399499999995  0.45086497784499774  1.0000
  Co  Co3       1.0  0.74170548  0.046896724999999966  0.5008582545199696  1.0000
  Co  Co4       1.0  0.8541666700000001  0.24560732499999996  0.4762465042017049  1.0000
  Co  Co5       1.0  0.43750000000000006  0.41227399499999995  0.45086497784499774  1.0000
  Co  Co6       1.0  0.26358966000000006  0.04605933499999997  0.502362274489056  1.0000
  Co  Co7       1.0  0.64583333  0.8289406649999999  0.46355573950045964  1.0000
  Co  Co8       1.0  0.47681540000000017  0.450744865  0.5138057970268093  1.0000
  Co  Co9       1.0  0.06250000000000007  0.662273995  0.48893726890295014  1.0000
  Co  Co10      1.0  0.14583332999999996  0.8289406649999999  0.46355573950045964  1.0000
  Co  Co11      1.0  0.9437838200000002  0.480447525  0.5128763366623199  1.0000
  Co  Co12      1.0  0.5625000000000001  0.662273995  0.48893726890295014  1.0000
  Fe  Fe1       1.0  0.16470878000000005  0.365081455  0.49656957845037186  1.0000
  Fe  Fe2       1.0  0.7500000000000002  0.537273995  0.46990112337397394  1.0000
  Fe  Fe3       1.0  0.6079117300000001  0.19286442499999995  0.5209263875703627  1.0000
  Fe  Fe4       1.0  0.4583333299999999  0.9539406649999999  0.4825918850294359  1.0000
  Fe  Fe5       1.0  0.04166667000000003  0.12060732499999997  0.45721035867272874  1.0000
  Fe  Fe6       1.0  0.85594987  0.7725031349999999  0.5088451998441379  1.0000
  Ga  Ga1       1.0  0.95833333  0.9539406649999999  0.4825918850294359  1.0000
  Ga  Ga2       1.0  0.5416666700000001  0.12060732499999997  0.45721035867272874  1.0000
  Ga  Ga3       1.0  0.37332598000000006  0.765024335  0.5107835424180469  1.0000
  Ga  Ga4       1.0  0.65359983  0.35399917499999994  0.49454218326478666  1.0000
  Ga  Ga5       1.0  0.25000000000000006  0.537273995  0.46990112337397394  1.0000
  Ga  Ga6       1.0  0.05311743000000004  0.17690530499999998  0.5201498712135112  1.0000
