data_image0
_chemical_formula_structural       COGa24Fe18
_chemical_formula_sum              "C1 O1 Ga24 Fe18"
_cell_length_a       7.6225169
_cell_length_b       7.826345994743218
_cell_length_c       109.960886
_cell_angle_alpha    105.99630733932275
_cell_angle_beta     90.0
_cell_angle_gamma    90.0

_space_group_name_H-M_alt    "P 1"
_space_group_IT_number       1

loop_
  _space_group_symop_operation_xyz
  'x, y, z'

loop_
  _atom_site_type_symbol
  _atom_site_label
  _atom_site_symmetry_multiplicity
  _atom_site_fract_x
  _atom_site_fract_y
  _atom_site_fract_z
  _atom_site_occupancy
  C   C1        1.0  0.10218776500000001  0.6431236350000001  0.5447751723813878  1.0000
  O   O1        1.0  0.10837670500000002  0.611593715  0.5546751113890267  1.0000
  Ga  Ga1       1.0  0.593829985  0.963188965  0.5301374753246031  1.0000
  Ga  Ga2       1.0  0.593063165  0.12063428500000002  0.49075113908698365  1.0000
  Ga  Ga3       1.0  0.593063165  0.6897383949999999  0.4625371347669362  1.0000
  Ga  Ga4       1.0  0.593063165  0.38388367500000004  0.470004134651581  1.0000
  Ga  Ga5       1.0  0.390234095  0.8857002550000002  0.5018622000779136  1.0000
  Ga  Ga6       1.0  0.38513095499999994  0.19645624500000003  0.5218740587825128  1.0000
  Ga  Ga7       1.0  0.801769085  0.196027315  0.5218936683863182  1.0000
  Ga  Ga8       1.0  0.7958922349999998  0.8857002550000002  0.5018622000779136  1.0000
  Ga  Ga9       1.0  0.393334965  0.5908088049999999  0.5255523349406566  1.0000
  Ga  Ga10      1.0  0.40693683499999994  0.48613472500000005  0.4982832293374105  1.0000
  Ga  Ga11      1.0  0.7791894949999999  0.48613472500000005  0.4982832293374105  1.0000
  Ga  Ga12      1.0  0.7947206549999999  0.590486395  0.5256504193006843  1.0000
  Ga  Ga13      1.0  0.093063165  0.9529877849999999  0.4872163808075438  1.0000
  Ga  Ga14      1.0  0.093063165  0.12063428500000002  0.4453248886109734  1.0000
  Ga  Ga15      1.0  0.09334211500000002  0.6899689549999999  0.5068146534891091  1.0000
  Ga  Ga16      1.0  0.09308372500000002  0.38193820500000003  0.5154991568367119  1.0000
  Ga  Ga17      1.0  0.8902340950000001  0.8857002550000002  0.4564359496019034  1.0000
  Ga  Ga18      1.0  0.8902340950000001  0.18792181500000002  0.47610531981661375  1.0000
  Ga  Ga19      1.0  0.29589223499999995  0.18792181500000002  0.47610531981661375  1.0000
  Ga  Ga20      1.0  0.29589223499999995  0.8857002550000002  0.4564359496019034  1.0000
  Ga  Ga21      1.0  0.9069368349999999  0.5874873450000001  0.4796842905571169  1.0000
  Ga  Ga22      1.0  0.9069368349999999  0.48613472500000005  0.4528569788614003  1.0000
  Ga  Ga23      1.0  0.27918949499999995  0.48613472500000005  0.4528569788614003  1.0000
  Ga  Ga24      1.0  0.27918949499999995  0.5874873450000001  0.4796842905571169  1.0000
  Fe  Fe1       1.0  0.093408605  0.043411895000000006  0.5128077605190093  1.0000
  Fe  Fe2       1.0  0.593639295  0.7139088150000001  0.5120636930726125  1.0000
  Fe  Fe3       1.0  0.593572435  0.36327139500000005  0.5127836955085572  1.0000
  Fe  Fe4       1.0  0.593063165  0.39765600500000003  0.44589296022662617  1.0000
  Fe  Fe5       1.0  0.593063165  0.675966065  0.4866483091918911  1.0000
  Fe  Fe6       1.0  0.891941415  0.18911356499999998  0.49937110081791  1.0000
  Fe  Fe7       1.0  0.905562605  0.890278985  0.5233940756349407  1.0000
  Fe  Fe8       1.0  0.28147600500000003  0.8909130450000001  0.5233676666299639  1.0000
  Fe  Fe9       1.0  0.294184915  0.18911356499999998  0.49937110081791  1.0000
  Fe  Fe10      1.0  0.593063165  0.036811035000000006  0.46627063470925856  1.0000
  Fe  Fe11      1.0  0.093063165  0.726462055  0.46676188508420635  1.0000
  Fe  Fe12      1.0  0.093063165  0.347160015  0.46577938433431093  1.0000
  Fe  Fe13      1.0  0.093063165  0.39765600500000003  0.4913192107026363  1.0000
  Fe  Fe14      1.0  0.09446212500000001  0.691320025  0.5300104816987723  1.0000
  Fe  Fe15      1.0  0.391941415  0.18911356499999998  0.45394485034189985  1.0000
  Fe  Fe16      1.0  0.391941415  0.8845085049999999  0.4785964190766174  1.0000
  Fe  Fe17      1.0  0.794184915  0.8845085049999999  0.4785964190766174  1.0000
  Fe  Fe18      1.0  0.794184915  0.18911356499999998  0.4539448503418998  1.0000
