data_image0
_chemical_formula_structural       COSi18Rh30
_chemical_formula_sum              "C1 O1 Si18 Rh30"
_cell_length_a       5.4093727
_cell_length_b       12.97231554695916
_cell_length_c       114.20785842000001
_cell_angle_alpha    57.982763002945894
_cell_angle_beta     90.0
_cell_angle_gamma    90.0

_space_group_name_H-M_alt    "P 1"
_space_group_IT_number       1

loop_
  _space_group_symop_operation_xyz
  'x, y, z'

loop_
  _atom_site_type_symbol
  _atom_site_label
  _atom_site_symmetry_multiplicity
  _atom_site_fract_x
  _atom_site_fract_y
  _atom_site_fract_z
  _atom_site_occupancy
  C   C1        1.0  0.9008882200000002  0.70709999  0.5466487971331764  1.0000
  O   O1        1.0  0.90300213  0.6311316600000001  0.5587212718863472  1.0000
  Si  Si1       1.0  0.07647026000000004  0.71513505  0.5184080700893507  1.0000
  Si  Si2       1.0  0.10221742000000004  0.049775160000000034  0.48589797838030135  1.0000
  Si  Si3       1.0  0.10221742000000004  0.38310849999999996  0.4536411082728237  1.0000
  Si  Si4       1.0  0.9097979  0.61351442  0.49823415305714874  1.0000
  Si  Si5       1.0  0.9097979  0.94684776  0.46597728294967117  1.0000
  Si  Si6       1.0  0.9247786200000001  0.29891472999999996  0.5289998576747506  1.0000
  Si  Si7       1.0  0.6303719500000001  0.7870138699999999  0.5313900492662538  1.0000
  Si  Si8       1.0  0.6022174200000001  0.11351442000000002  0.49823415305714874  1.0000
  Si  Si9       1.0  0.6022174200000001  0.44684776000000004  0.46597728294967117  1.0000
  Si  Si10      1.0  0.40979790000000005  0.54977516  0.48589797838030124  1.0000
  Si  Si11      1.0  0.40979790000000005  0.8831085000000001  0.4536411082728237  1.0000
  Si  Si12      1.0  0.42742669  0.21188908  0.5179258930854223  1.0000
  Si  Si13      1.0  0.5060076600000001  0.83164479  0.4920660676541374  1.0000
  Si  Si14      1.0  0.5060076600000001  0.16497813000000003  0.45980919367583506  1.0000
  Si  Si15      1.0  0.48739534000000007  0.49445940000000005  0.5242925440471092  1.0000
  Si  Si16      1.0  0.006007660000000034  0.6649781300000001  0.4598091936758351  1.0000
  Si  Si17      1.0  0.026539790000000035  0.99238861  0.5243468362324961  1.0000
  Si  Si18      1.0  0.006007660000000034  0.33164479  0.4920660676541374  1.0000
  Rh  Rh1       1.0  0.33912524000000005  0.62918748  0.5012675363421244  1.0000
  Rh  Rh2       1.0  0.33912524000000005  0.96252082  0.46901066623464666  1.0000
  Rh  Rh3       1.0  0.34989391000000003  0.29114160000000006  0.5327015620462923  1.0000
  Rh  Rh4       1.0  0.6341483700000001  0.69329715  0.5174209633746848  1.0000
  Rh  Rh5       1.0  0.6728900800000001  0.03410210000000003  0.4828645950953258  1.0000
  Rh  Rh6       1.0  0.6728900800000001  0.36743544  0.4506077249878481  1.0000
  Rh  Rh7       1.0  0.83912524  0.5341020999999999  0.4828645950953258  1.0000
  Rh  Rh8       1.0  0.83912524  0.86743544  0.4506077249878482  1.0000
  Rh  Rh9       1.0  0.86929045  0.19219755000000002  0.5173111558233474  1.0000
  Rh  Rh10      1.0  0.18498133000000005  0.79111464  0.5330199528502862  1.0000
  Rh  Rh11      1.0  0.17289008000000003  0.12918748000000005  0.5012675363421244  1.0000
  Rh  Rh12      1.0  0.17289008000000003  0.46252082000000005  0.46901066623464666  1.0000
  Rh  Rh13      1.0  0.34542782000000005  0.9025671700000001  0.5057924721994326  1.0000
  Rh  Rh14      1.0  0.34542782000000005  0.2359005  0.4735355982211303  1.0000
  Rh  Rh15      1.0  0.34542782000000005  0.56923384  0.44127872811365276  1.0000
  Rh  Rh16      1.0  0.6665875000000001  0.7607224199999999  0.47833966310884213  1.0000
  Rh  Rh17      1.0  0.6665875000000001  0.09405575000000004  0.4460827891305399  1.0000
  Rh  Rh18      1.0  0.66086891  0.42571304  0.5098555761067403  1.0000
  Rh  Rh19      1.0  0.8497866800000001  0.92393009  0.5101579997593926  1.0000
  Rh  Rh20      1.0  0.8454278200000002  0.26072242000000007  0.47833966310884213  1.0000
  Rh  Rh21      1.0  0.8454278200000002  0.59405575  0.4460827891305399  1.0000
  Rh  Rh22      1.0  0.16658750000000005  0.7359005000000001  0.4735355982211303  1.0000
  Rh  Rh23      1.0  0.16658750000000005  0.06923384000000003  0.44127872811365265  1.0000
  Rh  Rh24      1.0  0.16658750000000005  0.40256717000000003  0.5057924721994326  1.0000
  Rh  Rh25      1.0  0.5060076600000001  0.6649781300000001  0.4598091936758351  1.0000
  Rh  Rh26      1.0  0.51519429  0.007611390000000031  0.5225234185158492  1.0000
  Rh  Rh27      1.0  0.5060076600000001  0.33164479  0.4920660676541374  1.0000
  Rh  Rh28      1.0  0.006007660000000034  0.83164479  0.4920660676541374  1.0000
  Rh  Rh29      1.0  0.006007660000000034  0.16497813000000003  0.4598091936758351  1.0000
  Rh  Rh30      1.0  0.99399234  0.51313807  0.5222828041898944  1.0000
