data_image0
_chemical_formula_structural       COFe6Ga6Ni12
_chemical_formula_sum              "C1 O1 Fe6 Ga6 Ni12"
_cell_length_a       5.74295096
_cell_length_b       7.0336497313330355
_cell_length_c       100.92673740000001
_cell_angle_alpha    94.34775315089192
_cell_angle_beta     90.0
_cell_angle_gamma    114.09484256515393

_space_group_name_H-M_alt    "P 1"
_space_group_IT_number       1

loop_
  _space_group_symop_operation_xyz
  'x, y, z'

loop_
  _atom_site_type_symbol
  _atom_site_label
  _atom_site_symmetry_multiplicity
  _atom_site_fract_x
  _atom_site_fract_y
  _atom_site_fract_z
  _atom_site_occupancy
  C   C1        1.0  0.17895764  0.23155642  0.5380699071000017  1.0000
  O   O1        1.0  0.20760241  0.2692546  0.54966502004039  1.0000
  Fe  Fe1       1.0  0.28086697  0.53765916  0.46948670463925857  1.0000
  Fe  Fe2       1.0  0.13755290000000003  0.17317737000000002  0.5207386319901903  1.0000
  Fe  Fe3       1.0  0.69626976  0.36582935  0.4962776631305736  1.0000
  Fe  Fe4       1.0  0.5725336400000001  0.12099249000000001  0.4567188871647341  1.0000
  Fe  Fe5       1.0  0.38158358000000003  0.774042  0.5085534375589045  1.0000
  Fe  Fe6       1.0  0.9892002999999999  0.9543258299999999  0.482254519049507  1.0000
  Ga  Ga1       1.0  0.18816483  0.36033315000000005  0.49467950533088606  1.0000
  Ga  Ga2       1.0  0.7808669699999999  0.53765916  0.46948670463925857  1.0000
  Ga  Ga3       1.0  0.5768423300000001  0.16859952000000003  0.5194260861588574  1.0000
  Ga  Ga4       1.0  0.4892002999999999  0.9543258299999999  0.482254519049507  1.0000
  Ga  Ga5       1.0  0.07253363999999997  0.12099249000000001  0.4567188871647341  1.0000
  Ga  Ga6       1.0  0.90459168  0.7573370899999999  0.5102190553936036  1.0000
  Ni  Ni1       1.0  0.38503363999999995  0.24599248999999998  0.4758706118443828  1.0000
  Ni  Ni2       1.0  0.96836697  0.4126591600000001  0.45033497995960986  1.0000
  Ni  Ni3       1.0  0.8007135499999999  0.045674170000000014  0.5023465995394784  1.0000
  Ni  Ni4       1.0  0.8850336400000001  0.24599248999999998  0.4758706118443828  1.0000
  Ni  Ni5       1.0  0.46836697000000005  0.4126591600000001  0.45033497995960986  1.0000
  Ni  Ni6       1.0  0.27240685  0.05010313000000002  0.5002162260359092  1.0000
  Ni  Ni7       1.0  0.6767002999999999  0.82932583  0.46310279436985835  1.0000
  Ni  Ni8       1.0  0.47541273000000006  0.48151763000000003  0.5138540129022136  1.0000
  Ni  Ni9       1.0  0.09336696999999997  0.66265916  0.4886384293189072  1.0000
  Ni  Ni10      1.0  0.1767003  0.82932583  0.46310279436985835  1.0000
  Ni  Ni11      1.0  0.010799699999999973  0.44615728000000004  0.5146991095661176  1.0000
  Ni  Ni12      1.0  0.59336697  0.66265916  0.4886384293189072  1.0000
