data_image0
_chemical_formula_structural       COV4Pd8V4Pd8
_chemical_formula_sum              "C1 O1 V8 Pd16"
_cell_length_a       4.716216644666232
_cell_length_b       8.811404694719384
_cell_length_c       36.98648347
_cell_angle_alpha    79.46302172254202
_cell_angle_beta     108.462272950015
_cell_angle_gamma    79.46302171439869

_space_group_name_H-M_alt    "P 1"
_space_group_IT_number       1

loop_
  _space_group_symop_operation_xyz
  'x, y, z'

loop_
  _atom_site_type_symbol
  _atom_site_label
  _atom_site_symmetry_multiplicity
  _atom_site_fract_x
  _atom_site_fract_y
  _atom_site_fract_z
  _atom_site_occupancy
  C   C1        1.0  0.8246967100000002  0.9998491250000001  0.6322288572394335  1.0000
  O   O1        1.0  0.026591489999999975  0.909558715  0.6589071894743395  1.0000
  V   V1        1.0  0.05438411000000001  0.0001508749999999875  0.4686047043407049  1.0000
  V   V2        1.0  0.5377692100000001  0.0021382749999999877  0.5274783278463933  1.0000
  V   V3        1.0  0.8043841100000002  0.500150875  0.5004826822573823  1.0000
  V   V4        1.0  0.27122510000000005  0.5059491049999999  0.5567911642453178  1.0000
  Pd  Pd1       1.0  0.9729094  0.162608905  0.5225165913106221  1.0000
  Pd  Pd2       1.0  0.50225166  0.136261395  0.5852824580725073  1.0000
  Pd  Pd3       1.0  0.9008469600000003  0.340910865  0.5738712271989339  1.0000
  Pd  Pd4       1.0  0.38375873999999993  0.336732105  0.5117812691217068  1.0000
  Pd  Pd5       1.0  0.7293283100000001  0.665227125  0.5538767370405654  1.0000
  Pd  Pd6       1.0  0.22340850999999992  0.662102085  0.49015732356647096  1.0000
  Pd  Pd7       1.0  0.6353597100000001  0.838199665  0.4789300541057835  1.0000
  Pd  Pd8       1.0  0.14465142999999997  0.836988345  0.5428314653095602  1.0000
  V   V5        1.0  0.05438411000000001  0.0001508749999999875  0.3410928105256608  1.0000
  V   V6        1.0  0.55438411  0.0001508749999999875  0.4048487574331829  1.0000
  V   V7        1.0  0.8043841100000002  0.500150875  0.3729707795165054  1.0000
  V   V8        1.0  0.30438411  0.500150875  0.43672673534986023  1.0000
  Pd  Pd9       1.0  0.97340851  0.162102085  0.3945234076681042  1.0000
  Pd  Pd10      1.0  0.47340851000000006  0.162102085  0.45827935457562635  1.0000
  Pd  Pd11      1.0  0.8853597100000001  0.338199665  0.4470520851149389  1.0000
  Pd  Pd12      1.0  0.38535970999999997  0.338199665  0.3832961382074168  1.0000
  Pd  Pd13      1.0  0.72340851  0.662102085  0.42640137665894884  1.0000
  Pd  Pd14      1.0  0.22340850999999992  0.662102085  0.3626454297514268  1.0000
  Pd  Pd15      1.0  0.6353597100000001  0.838199665  0.3514181602907393  1.0000
  Pd  Pd16      1.0  0.13535971000000002  0.838199665  0.4151741071982615  1.0000
