data_image0
_chemical_formula_structural       COSb24Ir12
_chemical_formula_sum              "C1 O1 Sb24 Ir12"
_cell_length_a       7.289822914429047
_cell_length_b       15.015081629839104
_cell_length_c       107.8935589
_cell_angle_alpha    108.85199545409007
_cell_angle_beta     112.01059066538915
_cell_angle_gamma    61.77641194846141

_space_group_name_H-M_alt    "P 1"
_space_group_IT_number       1

loop_
  _space_group_symop_operation_xyz
  'x, y, z'

loop_
  _atom_site_type_symbol
  _atom_site_label
  _atom_site_symmetry_multiplicity
  _atom_site_fract_x
  _atom_site_fract_y
  _atom_site_fract_z
  _atom_site_occupancy
  C   C1        1.0  0.35805469500000003  0.05418057500000001  0.5352998115962538  1.0000
  O   O1        1.0  0.390090375  0.07384258500000003  0.5471299316441113  1.0000
  Sb  Sb1       1.0  0.627035935  0.9808493850000001  0.4865034138536105  1.0000
  Sb  Sb2       1.0  0.620489455  0.6643875450000002  0.516895925589538  1.0000
  Sb  Sb3       1.0  0.627035935  0.314182715  0.45723571260357676  1.0000
  Sb  Sb4       1.0  0.884713795  0.8276719850000002  0.4560513119048465  1.0000
  Sb  Sb5       1.0  0.884713795  0.4943386450000001  0.48531901315488035  1.0000
  Sb  Sb6       1.0  0.871347665  0.156913905  0.5145479581133688  1.0000
  Sb  Sb7       1.0  0.38471379499999997  0.07102490500000001  0.45488404334840526  1.0000
  Sb  Sb8       1.0  0.38471379499999997  0.737691575  0.4841517481105635  1.0000
  Sb  Sb9       1.0  0.373232575  0.41063081500000004  0.5137918363869937  1.0000
  Sb  Sb10      1.0  0.12703593500000002  0.22420230500000005  0.48533614529716945  1.0000
  Sb  Sb11      1.0  0.115286205  0.8920819550000001  0.514614772765871  1.0000
  Sb  Sb12      1.0  0.12703593500000002  0.5575356450000001  0.45606844404713553  1.0000
  Sb  Sb13      1.0  0.330943785  0.181363225  0.5126515760663464  1.0000
  Sb  Sb14      1.0  0.327172795  0.8497843750000001  0.45432709419054385  1.0000
  Sb  Sb15      1.0  0.327172795  0.516451045  0.4835947954405778  1.0000
  Sb  Sb16      1.0  0.18457693500000003  0.9603870250000002  0.4885173888461271  1.0000
  Sb  Sb17      1.0  0.17264815499999997  0.6452399150000001  0.5197730894174253  1.0000
  Sb  Sb18      1.0  0.18457693500000003  0.2937203549999999  0.45924968759609325  1.0000
  Sb  Sb19      1.0  0.706579935  0.8657895950000002  0.5187724535979463  1.0000
  Sb  Sb20      1.0  0.684576935  0.535423245  0.4577926617614381  1.0000
  Sb  Sb21      1.0  0.684576935  0.20208991500000004  0.4870603665235964  1.0000
  Sb  Sb22      1.0  0.8271727949999998  0.09148726500000004  0.4528700683558887  1.0000
  Sb  Sb23      1.0  0.8271727949999998  0.7581539350000001  0.48213776960592264  1.0000
  Sb  Sb24      1.0  0.820140785  0.42832870500000003  0.5114254267461751  1.0000
  Ir  Ir1       1.0  0.704409685  0.024913755  0.5127817318804275  1.0000
  Ir  Ir2       1.0  0.7148044749999999  0.698735865  0.45543526774367327  1.0000
  Ir  Ir3       1.0  0.7148044749999999  0.36540252500000003  0.48470296899370713  1.0000
  Ir  Ir4       1.0  0.796945255  0.019150614999999996  0.4712034098341059  1.0000
  Ir  Ir5       1.0  0.796945255  0.6858172849999999  0.5004711110841398  1.0000
  Ir  Ir6       1.0  0.781508105  0.344991125  0.5268498723535405  1.0000
  Ir  Ir7       1.0  0.297740395  0.021995315000000015  0.5161535292448901  1.0000
  Ir  Ir8       1.0  0.296945255  0.6864717650000002  0.45668448820830876  1.0000
  Ir  Ir9       1.0  0.296945255  0.35313842500000003  0.485952192970467  1.0000
  Ir  Ir10      1.0  0.214804475  0.03272367500000002  0.47018404736791003  1.0000
  Ir  Ir11      1.0  0.214804475  0.6993903450000001  0.4994517521300682  1.0000
  Ir  Ir12      1.0  0.20274275499999997  0.36078585500000004  0.5263722620834012  1.0000
