data_image0
_chemical_formula_structural       COCo12Pt4Co12Pt4
_chemical_formula_sum              "C1 O1 Co24 Pt8"
_cell_length_a       6.617457838069955
_cell_length_b       5.181681816523345
_cell_length_c       109.70474703
_cell_angle_alpha    66.95113504727189
_cell_angle_beta     76.92193034733462
_cell_angle_gamma    66.95113501981419

_space_group_name_H-M_alt    "P 1"
_space_group_IT_number       1

loop_
  _space_group_symop_operation_xyz
  'x, y, z'

loop_
  _atom_site_type_symbol
  _atom_site_label
  _atom_site_symmetry_multiplicity
  _atom_site_fract_x
  _atom_site_fract_y
  _atom_site_fract_z
  _atom_site_occupancy
  C   C1        1.0  0.04520484000000004  0.23519531499999993  0.5579710748214277  1.0000
  O   O1        1.0  0.035753080000000034  0.16731498499999994  0.5695902368238508  1.0000
  Co  Co1       1.0  0.060519900000000036  0.8325105249999999  0.5398475903378915  1.0000
  Co  Co2       1.0  0.5559560600000001  0.816581705  0.5110898685092764  1.0000
  Co  Co3       1.0  0.79111038  0.3293558349999999  0.5267994269277807  1.0000
  Co  Co4       1.0  0.29339235  0.34170914499999994  0.49525186337262705  1.0000
  Co  Co5       1.0  0.06563834000000003  0.331607905  0.5407640209366024  1.0000
  Co  Co6       1.0  0.5559560600000001  0.34170914499999994  0.5110898685092764  1.0000
  Co  Co7       1.0  0.96424692  0.18341828499999993  0.5055579155526463  1.0000
  Co  Co8       1.0  0.45809888000000004  0.19685318499999996  0.534840698176835  1.0000
  Co  Co9       1.0  0.21463252000000005  0.6720676149999999  0.5208879716458604  1.0000
  Co  Co10      1.0  0.72681064  0.6582908550000002  0.4912356142632419  1.0000
  Co  Co11      1.0  0.96424692  0.6582908550000001  0.5055579155526463  1.0000
  Co  Co12      1.0  0.45875167000000006  0.6647929450000001  0.5347025989538351  1.0000
  Pt  Pt1       1.0  0.21475157000000006  0.17100350499999997  0.5206171405282071  1.0000
  Pt  Pt2       1.0  0.71843482  0.16666666499999994  0.49073037964749355  1.0000
  Pt  Pt3       1.0  0.78990826  0.827334705  0.5271401418910431  1.0000
  Pt  Pt4       1.0  0.3017681600000001  0.833333335  0.4957570979883753  1.0000
  Co  Co13      1.0  0.05595606000000004  0.816581705  0.48092956208322263  1.0000
  Co  Co14      1.0  0.5559560600000001  0.816581705  0.4507692520379319  1.0000
  Co  Co15      1.0  0.7933923500000001  0.34170914499999994  0.4650915569465733  1.0000
  Co  Co16      1.0  0.29339235  0.34170914499999994  0.4349312469012826  1.0000
  Co  Co17      1.0  0.05595606000000004  0.341709145  0.4809295620832227  1.0000
  Co  Co18      1.0  0.5559560600000001  0.34170914499999994  0.450769252037932  1.0000
  Co  Co19      1.0  0.96424692  0.18341828499999993  0.44523730270053874  1.0000
  Co  Co20      1.0  0.46424692  0.183418285  0.47539760912659257  1.0000
  Co  Co21      1.0  0.22681064000000004  0.658290855  0.4610753078371881  1.0000
  Co  Co22      1.0  0.72681064  0.6582908550000002  0.43091499779189746  1.0000
  Co  Co23      1.0  0.96424692  0.6582908550000001  0.4452373027005388  1.0000
  Co  Co24      1.0  0.46424692  0.6582908550000001  0.47539760912659257  1.0000
  Pt  Pt5       1.0  0.21843482000000006  0.16666666499999996  0.46057007322143984  1.0000
  Pt  Pt6       1.0  0.71843482  0.16666666499999994  0.43040976317614915  1.0000
  Pt  Pt7       1.0  0.8017681600000001  0.833333335  0.4655967915623216  1.0000
  Pt  Pt8       1.0  0.3017681600000001  0.833333335  0.4354364815170309  1.0000
