data_image0
_chemical_formula_structural       COIr10Sn14
_chemical_formula_sum              "C1 O1 Ir10 Sn14"
_cell_length_a       6.979382216130487
_cell_length_b       6.979382215680209
_cell_length_c       101.53183449
_cell_angle_alpha    87.25642817524638
_cell_angle_beta     87.25642817542352
_cell_angle_gamma    77.19549365194408

_space_group_name_H-M_alt    "P 1"
_space_group_IT_number       1

loop_
  _space_group_symop_operation_xyz
  'x, y, z'

loop_
  _atom_site_type_symbol
  _atom_site_label
  _atom_site_symmetry_multiplicity
  _atom_site_fract_x
  _atom_site_fract_y
  _atom_site_fract_z
  _atom_site_occupancy
  C   C1        1.0  0.611950505  0.551691065  0.5476816947332697  1.0000
  O   O1        1.0  0.5952238450000001  0.521193005  0.5591330873593386  1.0000
  Ir  Ir1       1.0  0.37972895500000003  0.34299880499999996  0.45162804603595613  1.0000
  Ir  Ir2       1.0  0.707531405  0.6708059949999999  0.5026850705813741  1.0000
  Ir  Ir3       1.0  0.46089021499999994  0.937192525  0.46423080653731996  1.0000
  Ir  Ir4       1.0  0.7988897850000001  0.26293819499999993  0.5153494060247821  1.0000
  Ir  Ir5       1.0  0.973922675  0.424160065  0.46423080653731996  1.0000
  Ir  Ir6       1.0  0.30530802500000004  0.7604208750000001  0.5154769534535278  1.0000
  Ir  Ir7       1.0  0.39079843500000006  0.349020195  0.5267511554648637  1.0000
  Ir  Ir8       1.0  0.05508392500000005  0.01835377499999996  0.4768335701442945  1.0000
  Ir  Ir9       1.0  0.642523835  0.597221275  0.5296227024367672  1.0000
  Ir  Ir10      1.0  0.3249070550000001  0.288176905  0.4809235599699699  1.0000
  Sn  Sn1       1.0  0.6379251050000001  0.030213804999999958  0.4408669126406613  1.0000
  Sn  Sn2       1.0  0.971258445  0.36354714499999996  0.4926270909122068  1.0000
  Sn  Sn3       1.0  0.257271005  0.649559705  0.470420999716077  1.0000
  Sn  Sn4       1.0  0.610982665  0.9816462250000001  0.5256863999645455  1.0000
  Sn  Sn5       1.0  0.06694395500000003  0.601194955  0.4408669126406613  1.0000
  Sn  Sn6       1.0  0.40027729500000014  0.934528295  0.4926270909122068  1.0000
  Sn  Sn7       1.0  0.02607732500000004  0.5727218949999999  0.5260758093763548  1.0000
  Sn  Sn8       1.0  0.6862898550000002  0.22054085499999995  0.4704209997160769  1.0000
  Sn  Sn9       1.0  0.796598755  0.759868605  0.4765278320941913  1.0000
  Sn  Sn10      1.0  0.14303402500000006  0.10479142499999997  0.5254004757102884  1.0000
  Sn  Sn11      1.0  0.12529895500000005  0.08856880499999996  0.4499283080685415  1.0000
  Sn  Sn12      1.0  0.456402385  0.41826546499999995  0.5014920626786964  1.0000
  Sn  Sn13      1.0  0.6299320850000001  0.593201935  0.45064774451122386  1.0000
  Sn  Sn14      1.0  0.957377905  0.9151613350000001  0.5024374167669622  1.0000
