data_image0
_chemical_formula_structural       COV16Ir16
_chemical_formula_sum              "C1 O1 V16 Ir16"
_cell_length_a       6.469363654315277
_cell_length_b       13.46962952060918
_cell_length_c       107.47918849
_cell_angle_alpha    80.05113044382576
_cell_angle_beta     64.7129777476576
_cell_angle_gamma    38.97408402059324

_space_group_name_H-M_alt    "P 1"
_space_group_IT_number       1

loop_
  _space_group_symop_operation_xyz
  'x, y, z'

loop_
  _atom_site_type_symbol
  _atom_site_label
  _atom_site_symmetry_multiplicity
  _atom_site_fract_x
  _atom_site_fract_y
  _atom_site_fract_z
  _atom_site_occupancy
  C   C1        1.0  0.6910666900000001  0.7354183550000001  0.5443620578750599  1.0000
  O   O1        1.0  0.4898645600000002  0.8128563050000001  0.5564466209110981  1.0000
  V   V1        1.0  0.6110225700000007  0.9223243049999997  0.4455478602523279  1.0000
  V   V2        1.0  0.3307832300000002  0.6734695749999999  0.511535874802178  1.0000
  V   V3        1.0  0.8610225699999999  0.172324305  0.4673423054238501  1.0000
  V   V4        1.0  0.1110225699999999  0.422324305  0.48913675059537226  1.0000
  V   V5        1.0  0.7131442299999999  0.024445964999999997  0.45445060167466295  1.0000
  V   V6        1.0  0.4916226600000002  0.775378705  0.5190823147739324  1.0000
  V   V7        1.0  0.96314423  0.27444596499999996  0.476245046846185  1.0000
  V   V8        1.0  0.21314422999999996  0.5244459650000001  0.4980394920177072  1.0000
  V   V9        1.0  0.4658233000000001  0.308015715  0.5205591273014222  1.0000
  V   V10       1.0  0.23741917000000004  0.04863382500000001  0.499942345846521  1.0000
  V   V11       1.0  0.7360225699999999  0.5473243050000001  0.45644508283808904  1.0000
  V   V12       1.0  0.9860225700000004  0.7973243049999998  0.47823952800961117  1.0000
  V   V13       1.0  0.32361265999999994  0.15494623499999996  0.510107857422094  1.0000
  V   V14       1.0  0.08814423000000011  0.899445965  0.48714226943194616  1.0000
  V   V15       1.0  0.5881442299999999  0.39944596500000007  0.4435533790889018  1.0000
  V   V16       1.0  0.83814423  0.649445965  0.465347824260424  1.0000
  Ir  Ir1       1.0  0.9147617500000002  0.9755540349999999  0.5131731118816862  1.0000
  Ir  Ir2       1.0  0.6452895199999997  0.7401790250000001  0.49212406811903125  1.0000
  Ir  Ir3       1.0  0.14528951999999998  0.240179025  0.44853517777598695  1.0000
  Ir  Ir4       1.0  0.39528952000000006  0.490179025  0.4703296229475091  1.0000
  Ir  Ir5       1.0  0.67887728  0.206591255  0.4950521744940482  1.0000
  Ir  Ir6       1.0  0.42887728000000036  0.9565912549999999  0.473257729322526  1.0000
  Ir  Ir7       1.0  0.9074874900000003  0.46986995499999995  0.5153203459524306  1.0000
  Ir  Ir8       1.0  0.17887728000000028  0.706591255  0.4514632841510039  1.0000
  Ir  Ir9       1.0  0.7667852100000001  0.3624281949999999  0.5029383706869149  1.0000
  Ir  Ir10      1.0  0.52028952  0.115179025  0.4812268455332702  1.0000
  Ir  Ir11      1.0  0.028794750000000036  0.608151035  0.5250333734622417  1.0000
  Ir  Ir12      1.0  0.2702895200000004  0.8651790249999999  0.45943240036174804  1.0000
  Ir  Ir13      1.0  0.013977429999999994  0.08815465500000001  0.5249932054280128  1.0000
  Ir  Ir14      1.0  0.8002861700000001  0.835246375  0.5059235471242802  1.0000
  Ir  Ir15      1.0  0.30387728000000014  0.33159125500000003  0.462360506736765  1.0000
  Ir  Ir16      1.0  0.5538772800000002  0.581591255  0.4841549519082871  1.0000
