data_image0
_chemical_formula_structural       COV8Pt8V8Pt8
_chemical_formula_sum              "C1 O1 V16 Pt16"
_cell_length_a       7.258870307971811
_cell_length_b       5.182555087879144
_cell_length_c       105.38508816000001
_cell_angle_alpha    109.30602713062494
_cell_angle_beta     99.51545570983846
_cell_angle_gamma    66.94399697932138

_space_group_name_H-M_alt    "P 1"
_space_group_IT_number       1

loop_
  _space_group_symop_operation_xyz
  'x, y, z'

loop_
  _atom_site_type_symbol
  _atom_site_label
  _atom_site_symmetry_multiplicity
  _atom_site_fract_x
  _atom_site_fract_y
  _atom_site_fract_z
  _atom_site_occupancy
  C   C1        1.0  0.972718475  0.07240251499999995  0.5629589372110445  1.0000
  O   O1        1.0  0.9762151950000001  0.15831658499999987  0.5749029197070757  1.0000
  V   V1        1.0  0.643338655  0.7926763749999999  0.525827901259578  1.0000
  V   V2        1.0  0.3933386549999999  0.542676375  0.509039431098469  1.0000
  V   V3        1.0  0.8941428750000001  0.031244094999999857  0.543077476826744  1.0000
  V   V4        1.0  0.14333865499999998  0.292676375  0.4922509609373599  1.0000
  V   V5        1.0  0.09770527499999998  0.08830975499999998  0.5121038909954688  1.0000
  V   V6        1.0  0.8477052750000001  0.838309755  0.49531542083435987  1.0000
  V   V7        1.0  0.347257925  0.33349095499999987  0.5286923231769142  1.0000
  V   V8        1.0  0.591102055  0.6266435149999999  0.5442127769752247  1.0000
  Pt  Pt1       1.0  0.773784805  0.412230225  0.5002794659108427  1.0000
  Pt  Pt2       1.0  0.544216295  0.17968711499999993  0.549725690864379  1.0000
  Pt  Pt3       1.0  0.023784804999999985  0.662230225  0.5170679360719518  1.0000
  Pt  Pt4       1.0  0.27212083499999995  0.919063535  0.5337875701477062  1.0000
  Pt  Pt5       1.0  0.717259125  0.21875590499999997  0.5208638561830949  1.0000
  Pt  Pt6       1.0  0.46725912499999994  0.968755905  0.504075386021986  1.0000
  Pt  Pt7       1.0  0.9629645850000002  0.46212822499999995  0.5375890405270847  1.0000
  Pt  Pt8       1.0  0.23555671499999997  0.7061819649999999  0.5532772144999988  1.0000
  V   V9        1.0  0.643338655  0.7926763749999999  0.45867402061514206  1.0000
  V   V10       1.0  0.3933386549999999  0.542676375  0.44188555045403305  1.0000
  V   V11       1.0  0.8933386550000001  0.04267637499999983  0.475462490776251  1.0000
  V   V12       1.0  0.14333865499999998  0.292676375  0.425097080292924  1.0000
  V   V13       1.0  0.09770527499999998  0.08830975499999998  0.4449500103510329  1.0000
  V   V14       1.0  0.8477052750000001  0.838309755  0.4281615401899239  1.0000
  V   V15       1.0  0.347705275  0.33830975499999993  0.4617384805121418  1.0000
  V   V16       1.0  0.597705275  0.5883097549999998  0.4785269506732508  1.0000
  Pt  Pt9       1.0  0.773784805  0.412230225  0.4331255852664069  1.0000
  Pt  Pt10      1.0  0.523784805  0.16223022499999992  0.48349099574973387  1.0000
  Pt  Pt11      1.0  0.023784804999999985  0.662230225  0.4499140554275158  1.0000
  Pt  Pt12      1.0  0.27378480499999996  0.912230225  0.46670252558862485  1.0000
  Pt  Pt13      1.0  0.717259125  0.21875590499999997  0.453709975538659  1.0000
  Pt  Pt14      1.0  0.46725912499999994  0.968755905  0.43692150537755003  1.0000
  Pt  Pt15      1.0  0.967259125  0.4687559049999999  0.47049844569976806  1.0000
  Pt  Pt16      1.0  0.21725912499999997  0.7187559049999999  0.487286915860877  1.0000
