data_image0
_chemical_formula_structural       COCu5Pd5Cu5Pd5Cu5Pd5Cu5Pd5
_chemical_formula_sum              "C1 O1 Cu20 Pd20"
_cell_length_a       6.814891254977292
_cell_length_b       8.62023134
_cell_length_c       101.67275239
_cell_angle_alpha    90.0
_cell_angle_beta     104.96321747000763
_cell_angle_gamma    71.5650511523449

_space_group_name_H-M_alt    "P 1"
_space_group_IT_number       1

loop_
  _space_group_symop_operation_xyz
  'x, y, z'

loop_
  _atom_site_type_symbol
  _atom_site_label
  _atom_site_symmetry_multiplicity
  _atom_site_fract_x
  _atom_site_fract_y
  _atom_site_fract_z
  _atom_site_occupancy
  C   C1        1.0  0.8188000699999999  0.36304945  0.5477880127241994  1.0000
  O   O1        1.0  0.91793235  0.33784523999999994  0.5595275727032011  1.0000
  Cu  Cu1       1.0  0.69525503  0.1434423499999999  0.5334450024181752  1.0000
  Cu  Cu2       1.0  0.08206764999999998  0.050628019999999954  0.5234803333152465  1.0000
  Cu  Cu3       1.0  0.28753596  0.24936130999999995  0.4923918653614562  1.0000
  Cu  Cu4       1.0  0.48553412999999995  0.44942036999999996  0.5127109202071316  1.0000
  Cu  Cu5       1.0  0.88753596  0.34936131  0.5027757517283212  1.0000
  Pd  Pd1       1.0  0.68753596  0.1493613099999999  0.5079676964693368  1.0000
  Pd  Pd2       1.0  0.08753595999999997  0.04936130999999995  0.49758381010247177  1.0000
  Pd  Pd3       1.0  0.28166508999999995  0.25229885999999996  0.5191793697259287  1.0000
  Pd  Pd4       1.0  0.5030294599999999  0.44638934  0.538155791045271  1.0000
  Pd  Pd5       1.0  0.89477807  0.34767953  0.5297608168193998  1.0000
  Cu  Cu6       1.0  0.68753596  0.1493613099999999  0.48200797899459125  1.0000
  Cu  Cu7       1.0  0.08753595999999997  0.04936130999999995  0.47162408951256  1.0000
  Cu  Cu8       1.0  0.28753596  0.24936130999999995  0.4404724272967989  1.0000
  Cu  Cu9       1.0  0.48753596  0.44936131  0.4612402031456951  1.0000
  Cu  Cu10      1.0  0.88753596  0.34936131  0.45085631677883015  1.0000
  Pd  Pd6       1.0  0.68753596  0.1493613099999999  0.4560482584046795  1.0000
  Pd  Pd7       1.0  0.08753595999999997  0.04936130999999995  0.44566437203781445  1.0000
  Pd  Pd8       1.0  0.28753596  0.24936130999999995  0.4664321478867107  1.0000
  Pd  Pd9       1.0  0.48753596  0.44936131  0.4871999206204406  1.0000
  Pd  Pd10      1.0  0.88753596  0.34936131  0.4768160342535756  1.0000
  Cu  Cu11      1.0  0.69744092  0.65207534  0.5334889792197253  1.0000
  Cu  Cu12      1.0  0.08269156999999996  0.5512468800000001  0.5237544056394207  1.0000
  Cu  Cu13      1.0  0.28753596  0.7493613099999998  0.4923918653614562  1.0000
  Cu  Cu14      1.0  0.48442959999999996  0.95063869  0.5128394052379406  1.0000
  Cu  Cu15      1.0  0.88753596  0.84936131  0.5027757517283212  1.0000
  Pd  Pd11      1.0  0.68753596  0.64936131  0.5079676964693368  1.0000
  Pd  Pd12      1.0  0.08753595999999997  0.5493613099999999  0.49758381010247177  1.0000
  Pd  Pd13      1.0  0.28612683999999994  0.7483634800000001  0.5191343555740269  1.0000
  Pd  Pd14      1.0  0.4873610399999999  0.9497959300000001  0.5376721552590389  1.0000
  Pd  Pd15      1.0  0.8872821399999999  0.85009898  0.5282713468180465  1.0000
  Cu  Cu16      1.0  0.68753596  0.64936131  0.48200797899459125  1.0000
  Cu  Cu17      1.0  0.08753595999999997  0.5493613099999999  0.47162408951256  1.0000
  Cu  Cu18      1.0  0.28753596  0.7493613099999998  0.4404724272967989  1.0000
  Cu  Cu19      1.0  0.48753596  0.9493613099999999  0.4612402031456951  1.0000
  Cu  Cu20      1.0  0.88753596  0.84936131  0.45085631677883015  1.0000
  Pd  Pd16      1.0  0.68753596  0.64936131  0.4560482584046795  1.0000
  Pd  Pd17      1.0  0.08753595999999997  0.5493613099999999  0.44566437203781445  1.0000
  Pd  Pd18      1.0  0.28753596  0.7493613099999998  0.4664321478867107  1.0000
  Pd  Pd19      1.0  0.48753596  0.9493613099999999  0.4871999206204406  1.0000
  Pd  Pd20      1.0  0.88753596  0.84936131  0.4768160342535756  1.0000
