data_image0
_chemical_formula_structural       CORe12Os4Re12Os4
_chemical_formula_sum              "C1 O1 Re24 Os8"
_cell_length_a       5.56571338
_cell_length_b       11.983776029007867
_cell_length_c       101.07103279
_cell_angle_alpha    68.26008047781774
_cell_angle_beta     90.0
_cell_angle_gamma    62.3261845452264

_space_group_name_H-M_alt    "P 1"
_space_group_IT_number       1

loop_
  _space_group_symop_operation_xyz
  'x, y, z'

loop_
  _atom_site_type_symbol
  _atom_site_label
  _atom_site_symmetry_multiplicity
  _atom_site_fract_x
  _atom_site_fract_y
  _atom_site_fract_z
  _atom_site_occupancy
  C   C1        1.0  0.98286577  0.5353388549999999  0.5419260614337434  1.0000
  O   O1        1.0  0.017134229999999917  0.500959925  0.5548503507719483  1.0000
  Re  Re1       1.0  0.18163487999999983  0.084836645  0.45983698569808434  1.0000
  Re  Re2       1.0  0.1816348799999998  0.5848366450000001  0.48179539830502854  1.0000
  Re  Re3       1.0  0.18163487999999997  0.33648956499999993  0.44878518729650724  1.0000
  Re  Re4       1.0  0.1816348799999999  0.836489565  0.4707435999034515  1.0000
  Re  Re5       1.0  0.6849407199999998  0.084836645  0.45983698569808434  1.0000
  Re  Re6       1.0  0.6849407199999998  0.5848366450000001  0.48179539830502854  1.0000
  Re  Re7       1.0  0.8505054399999997  0.41927192499999993  0.4671080618349958  1.0000
  Re  Re8       1.0  0.8505054399999996  0.919271925  0.4451496492280515  1.0000
  Re  Re9       1.0  0.85050544  0.167619005  0.47815986023657286  1.0000
  Re  Re10      1.0  0.8505054399999997  0.6676190049999999  0.4562014476296287  1.0000
  Re  Re11      1.0  0.3471995999999999  0.41927192499999993  0.4671080618349958  1.0000
  Re  Re12      1.0  0.3471995999999999  0.919271925  0.4451496492280515  1.0000
  Os  Os1       1.0  0.3494034899999999  0.16872095499999998  0.47811146652922887  1.0000
  Os  Os2       1.0  0.3494034899999999  0.668720955  0.45615305084810676  1.0000
  Os  Os3       1.0  0.68273683  0.335387615  0.44883358100385135  1.0000
  Os  Os4       1.0  0.68273683  0.835387615  0.47079199361079554  1.0000
  Re  Re13      1.0  0.18599203999999986  0.080729955  0.504381099971639  1.0000
  Re  Re14      1.0  0.19221804999999992  0.5880954949999999  0.5246859153999105  1.0000
  Re  Re15      1.0  0.18163487999999997  0.33648956499999993  0.49270201251039575  1.0000
  Re  Re16      1.0  0.18288287999999983  0.835237745  0.5134114881143192  1.0000
  Re  Re17      1.0  0.6888011199999998  0.080728075  0.5043812352354633  1.0000
  Re  Re18      1.0  0.6678177099999999  0.5880959849999999  0.5246853313061235  1.0000
  Re  Re19      1.0  0.8497761099999998  0.418441095  0.5112864842110265  1.0000
  Re  Re20      1.0  0.8505054399999996  0.919271925  0.48906647444194  1.0000
  Re  Re21      1.0  0.8372688899999999  0.180856105  0.5197144441701232  1.0000
  Re  Re22      1.0  0.84878448  0.6693422050000001  0.5008542433118819  1.0000
  Re  Re23      1.0  0.34959471999999986  0.418439315  0.5112863274279573  1.0000
  Re  Re24      1.0  0.3471995999999999  0.919271925  0.48906647444194  1.0000
  Os  Os5       1.0  0.3363367499999999  0.18178615499999998  0.5200625702155467  1.0000
  Os  Os6       1.0  0.34694521  0.6711830049999999  0.49961353280872484  1.0000
  Os  Os7       1.0  0.68273683  0.335387615  0.4927504062177398  1.0000
  Os  Os8       1.0  0.6832086199999998  0.834912495  0.5137535611036025  1.0000
