data_image0
_chemical_formula_structural       COV18Sn6V18Sn6
_chemical_formula_sum              "C1 O1 V36 Sn12"
_cell_length_a       4.98288102
_cell_length_b       11.142060687398304
_cell_length_c       105.23428959
_cell_angle_alpha    71.56505117707799
_cell_angle_beta     90.0
_cell_angle_gamma    90.0

_space_group_name_H-M_alt    "P 1"
_space_group_IT_number       1

loop_
  _space_group_symop_operation_xyz
  'x, y, z'

loop_
  _atom_site_type_symbol
  _atom_site_label
  _atom_site_symmetry_multiplicity
  _atom_site_fract_x
  _atom_site_fract_y
  _atom_site_fract_z
  _atom_site_occupancy
  C   C1        1.0  0.500053575  0.7342351549999999  0.5516184219985224  1.0000
  O   O1        1.0  0.500231115  0.7626963950000002  0.5633488394239408  1.0000
  V   V1        1.0  7.482499999998814e-05  0.793198115  0.44640356952051924  1.0000
  V   V2        1.0  7.482499999998814e-05  0.45986478500000005  0.4910459150132792  1.0000
  V   V3        1.0  7.482499999998814e-05  0.12653144500000002  0.4687247422668992  1.0000
  V   V4        1.0  7.482499999998814e-05  0.626531445  0.43524298482141704  1.0000
  V   V5        1.0  7.482499999998814e-05  0.29319811500000004  0.4798853269660013  1.0000
  V   V6        1.0  7.482499999998814e-05  0.9598647849999999  0.45756415756779706  1.0000
  V   V7        1.0  0.500074825  0.793198115  0.4631444482432603  1.0000
  V   V8        1.0  0.500074825  0.45986478500000005  0.44082327884505607  1.0000
  V   V9        1.0  0.500074825  0.12653144500000002  0.48546562098964025  1.0000
  V   V10       1.0  0.500074825  0.9598647849999999  0.440823278845056  1.0000
  V   V11       1.0  0.500074825  0.626531445  0.4854656209896402  1.0000
  V   V12       1.0  0.500074825  0.29319811500000004  0.4631444482432603  1.0000
  V   V13       1.0  0.7500748249999999  0.543198115  0.4631444482432603  1.0000
  V   V14       1.0  0.7500748249999999  0.20986478500000003  0.44082327884505607  1.0000
  V   V15       1.0  0.7500748249999999  0.8765314449999999  0.48546562098964025  1.0000
  V   V16       1.0  0.250074825  0.543198115  0.4631444482432603  1.0000
  V   V17       1.0  0.250074825  0.20986478500000003  0.44082327884505607  1.0000
  V   V18       1.0  0.250074825  0.8765314449999999  0.48546562098964025  1.0000
  Sn  Sn1       1.0  0.500074825  0.709864785  0.440823278845056  1.0000
  Sn  Sn2       1.0  0.500074825  0.376531445  0.48546562098964025  1.0000
  Sn  Sn3       1.0  0.500074825  0.04319811500000002  0.4631444482432603  1.0000
  Sn  Sn4       1.0  7.482499999998814e-05  0.709864785  0.4743050362905381  1.0000
  Sn  Sn5       1.0  7.482499999998814e-05  0.376531445  0.45198386354415815  1.0000
  Sn  Sn6       1.0  7.482499999998814e-05  0.04319811500000002  0.4966262056887424  1.0000
  V   V19       1.0  7.482499999998814e-05  0.793198115  0.5133670844114834  1.0000
  V   V20       1.0  0.9999849850000001  0.44145001500000003  0.5537466564287871  1.0000
  V   V21       1.0  0.999984405  0.12435573500000002  0.5362082422436947  1.0000
  V   V22       1.0  7.482499999998814e-05  0.626531445  0.5022064997123812  1.0000
  V   V23       1.0  0.999777825  0.30376603500000005  0.5466098356796166  1.0000
  V   V24       1.0  7.482499999998814e-05  0.9598647849999999  0.5245276724587612  1.0000
  V   V25       1.0  0.500074825  0.793198115  0.5301079631342245  1.0000
  V   V26       1.0  0.500074825  0.45986478500000005  0.5077867937360202  1.0000
  V   V27       1.0  0.5008670349999998  0.10654532500000001  0.5521881207978089  1.0000
  V   V28       1.0  0.500074825  0.9598647849999999  0.5077867937360202  1.0000
  V   V29       1.0  0.49998705499999996  0.5685731850000001  0.5488984510762209  1.0000
  V   V30       1.0  0.500074825  0.29319811500000004  0.5301079631342245  1.0000
  V   V31       1.0  0.7500748249999999  0.543198115  0.5301079631342245  1.0000
  V   V32       1.0  0.7500748249999999  0.20986478500000003  0.5077867937360202  1.0000
  V   V33       1.0  0.754703385  0.894036075  0.5515009244671191  1.0000
  V   V34       1.0  0.250074825  0.543198115  0.5301079631342245  1.0000
  V   V35       1.0  0.250074825  0.20986478500000003  0.5077867937360202  1.0000
  V   V36       1.0  0.24555868499999997  0.8939556350000001  0.5514926611693816  1.0000
  Sn  Sn7       1.0  0.500074825  0.709864785  0.5077867937360202  1.0000
  Sn  Sn8       1.0  0.499877195  0.31410797500000004  0.5592500361592223  1.0000
  Sn  Sn9       1.0  0.500074825  0.04319811500000002  0.5301079631342245  1.0000
  Sn  Sn10      1.0  1.501499999998815e-05  0.707174245  0.5422481269590848  1.0000
  Sn  Sn11      1.0  7.482499999998814e-05  0.376531445  0.5189473784351223  1.0000
  Sn  Sn12      1.0  0.0008054449999999881  0.04013521500000002  0.5647570151785829  1.0000
