data_image0
_chemical_formula_structural       COIn12Co4In12Co4
_chemical_formula_sum              "C1 O1 In24 Co8"
_cell_length_a       6.95801377
_cell_length_b       7.20556116
_cell_length_c       104.79006885
_cell_angle_alpha    90.0
_cell_angle_beta     90.0
_cell_angle_gamma    90.0

_space_group_name_H-M_alt    "P 1"
_space_group_IT_number       1

loop_
  _space_group_symop_operation_xyz
  'x, y, z'

loop_
  _atom_site_type_symbol
  _atom_site_label
  _atom_site_symmetry_multiplicity
  _atom_site_fract_x
  _atom_site_fract_y
  _atom_site_fract_z
  _atom_site_occupancy
  C   C1        1.0  0.5566548  0.85201779  0.5655593151688308  1.0000
  O   O1        1.0  0.5650017700000001  0.8722906300000001  0.5766368987377569  1.0000
  In  In1       1.0  0.56699834  0.12414802  0.47973413089417555  1.0000
  In  In2       1.0  0.56699834  0.62414802  0.47973413089417555  1.0000
  In  In3       1.0  0.06699833999999999  0.62414802  0.44653435420560433  1.0000
  In  In4       1.0  0.06699833999999999  0.12414802  0.44653435420560433  1.0000
  In  In5       1.0  0.22116729000000002  0.38003352  0.42357132694165617  1.0000
  In  In6       1.0  0.7211672899999999  0.8800335200000001  0.43629760478098134  1.0000
  In  In7       1.0  0.41282938999999996  0.8800335200000001  0.4567711036302273  1.0000
  In  In8       1.0  0.41282938999999996  0.36826252000000004  0.4567711036302273  1.0000
  In  In9       1.0  0.7211672899999999  0.36826252000000004  0.43629760478098134  1.0000
  In  In10      1.0  0.91282939  0.38003352  0.4694973814695525  1.0000
  In  In11      1.0  0.22116729000000002  0.86826252  0.42357132694165617  1.0000
  In  In12      1.0  0.91282939  0.86826252  0.4694973814695525  1.0000
  Co  Co1       1.0  0.41596532  0.12414802  0.4365058304603944  1.0000
  Co  Co2       1.0  0.91596532  0.62414802  0.42336310126224314  1.0000
  Co  Co3       1.0  0.21803136  0.62414802  0.4697056071489656  1.0000
  Co  Co4       1.0  0.7180313599999999  0.12414802  0.4565628779508143  1.0000
  In  In13      1.0  0.56240399  0.14827267  0.5489550710138438  1.0000
  In  In14      1.0  0.41655547000000004  0.5534261100000001  0.5531455103077209  1.0000
  In  In15      1.0  0.06699833999999999  0.62414802  0.5129339075827467  1.0000
  In  In16      1.0  0.06699833999999999  0.12414802  0.5129339075827467  1.0000
  In  In17      1.0  0.22116729000000002  0.38003352  0.4899708803187985  1.0000
  In  In18      1.0  0.7211672899999999  0.8800335200000001  0.5026971581581238  1.0000
  In  In19      1.0  0.42710070000000006  0.8758448600000002  0.526050800714679  1.0000
  In  In20      1.0  0.41543031999999996  0.36643543000000006  0.5240306474228221  1.0000
  In  In21      1.0  0.7211672899999999  0.36826252000000004  0.5026971581581238  1.0000
  In  In22      1.0  0.92162129  0.38429290000000005  0.5368291812561323  1.0000
  In  In23      1.0  0.22116729000000002  0.86826252  0.4899708803187985  1.0000
  In  In24      1.0  0.93300166  0.8721674300000001  0.536755856229338  1.0000
  Co  Co5       1.0  0.41596532  0.12414802  0.5029053838375368  1.0000
  Co  Co6       1.0  0.91596532  0.62414802  0.48976265463938545  1.0000
  Co  Co7       1.0  0.19218796999999999  0.62265531  0.5349147924928723  1.0000
  Co  Co8       1.0  0.7237878499999999  0.11996648  0.5240238680284224  1.0000
