data_image0
_chemical_formula_structural       CONi30Sb12
_chemical_formula_sum              "C1 O1 Ni30 Sb12"
_cell_length_a       5.47885687
_cell_length_b       11.280698316721095
_cell_length_c       109.5623507
_cell_angle_alpha    93.39378914090699
_cell_angle_beta     90.0
_cell_angle_gamma    104.05434412749185

_space_group_name_H-M_alt    "P 1"
_space_group_IT_number       1

loop_
  _space_group_symop_operation_xyz
  'x, y, z'

loop_
  _atom_site_type_symbol
  _atom_site_label
  _atom_site_symmetry_multiplicity
  _atom_site_fract_x
  _atom_site_fract_y
  _atom_site_fract_z
  _atom_site_occupancy
  C   C1        1.0  0.7644652599999999  0.542589015  0.5402356958031999  1.0000
  O   O1        1.0  0.77626731  0.5697873649999999  0.5510295077817462  1.0000
  Ni  Ni1       1.0  0.68266453  0.8493293249999998  0.5205368807945816  1.0000
  Ni  Ni2       1.0  0.17125194000000002  0.8515239749999998  0.46075715128954847  1.0000
  Ni  Ni3       1.0  0.42125194000000005  0.35152397499999993  0.4908483496382056  1.0000
  Ni  Ni4       1.0  0.15882185000000001  0.8495636049999998  0.5205569504210349  1.0000
  Ni  Ni5       1.0  0.6752586300000001  0.8515239749999998  0.46075715128954847  1.0000
  Ni  Ni6       1.0  0.9252586300000002  0.35152397499999993  0.4908483496382056  1.0000
  Ni  Ni7       1.0  0.7745275  0.554068415  0.48765619935987414  1.0000
  Ni  Ni8       1.0  0.024179870000000093  0.054987674999999965  0.5178026776494048  1.0000
  Ni  Ni9       1.0  0.5245275  0.05406841499999997  0.45756500101121705  1.0000
  Ni  Ni10      1.0  0.57198307  0.14897954499999996  0.4940404999165369  1.0000
  Ni  Ni11      1.0  0.8219216100000002  0.6540796549999999  0.5266371517223181  1.0000
  Ni  Ni12      1.0  0.3219830700000001  0.6489795449999999  0.463949297956936  1.0000
  Ni  Ni13      1.0  0.37285509  0.7507235849999999  0.5026159357035762  1.0000
  Ni  Ni14      1.0  0.62437883  0.26116109499999995  0.531051075717704  1.0000
  Ni  Ni15      1.0  0.1228550900000001  0.25072358499999997  0.47252473735491907  1.0000
  Ni  Ni16      1.0  0.97365548  0.9523243749999999  0.47908076357283497  1.0000
  Ni  Ni17      1.0  0.22356605000000013  0.457752375  0.509359019650741  1.0000
  Ni  Ni18      1.0  0.72365548  0.45232437499999995  0.4489895616132339  1.0000
  Ni  Ni19      1.0  0.7204066300000002  0.9512401749999999  0.49937593680701275  1.0000
  Ni  Ni20      1.0  0.9641531600000001  0.46006928499999994  0.5294026364749014  1.0000
  Ni  Ni21      1.0  0.47040663000000005  0.4512401749999999  0.46928473845835567  1.0000
  Ni  Ni22      1.0  0.12069044000000001  0.7518077849999999  0.4823207624693985  1.0000
  Ni  Ni23      1.0  0.3677918400000001  0.25172359499999997  0.5121873601045972  1.0000
  Ni  Ni24      1.0  0.8706904400000001  0.25180778499999995  0.4522295605097974  1.0000
  Ni  Ni25      1.0  0.2258201300000001  0.9512401749999999  0.49937593680701275  1.0000
  Ni  Ni26      1.0  0.48445950000000004  0.46002308499999994  0.5293321255724625  1.0000
  Ni  Ni27      1.0  0.97582013  0.4512401749999999  0.46928473845835567  1.0000
  Ni  Ni28      1.0  0.62610394  0.7518077849999999  0.4823207624693985  1.0000
  Ni  Ni29      1.0  0.87386646  0.251329125  0.5122093218656785  1.0000
  Ni  Ni30      1.0  0.37610394000000014  0.25180778499999995  0.4522295605097974  1.0000
  Sb  Sb1       1.0  0.2743576200000001  0.553728655  0.4877417173453539  1.0000
  Sb  Sb2       1.0  0.5202520000000002  0.047675624999999965  0.5189032067015752  1.0000
  Sb  Sb3       1.0  0.02435762000000009  0.053728654999999965  0.4576505189966968  1.0000
  Sb  Sb4       1.0  0.07215295000000009  0.14931930499999996  0.4939549819310574  1.0000
  Sb  Sb5       1.0  0.3244207200000001  0.658390775  0.5245708973773797  1.0000
  Sb  Sb6       1.0  0.8221529500000001  0.6493193049999999  0.4638637835824002  1.0000
  Sb  Sb7       1.0  0.8740077300000001  0.7530288549999998  0.5026350050985565  1.0000
  Sb  Sb8       1.0  0.12608663000000012  0.262688985  0.5331649945227334  1.0000
  Sb  Sb9       1.0  0.6240077300000002  0.25302885499999994  0.47254380674989943  1.0000
  Sb  Sb10      1.0  0.47250285000000003  0.9500190949999999  0.4790616941778547  1.0000
  Sb  Sb11      1.0  0.7207869600000002  0.45050420499999994  0.5088042053352836  1.0000
  Sb  Sb12      1.0  0.22250285000000009  0.4500190949999999  0.44897049221825364  1.0000
