data_image0
_chemical_formula_structural       COV3Pt3V3Pt3V3Pt3V3Pt3
_chemical_formula_sum              "C1 O1 V12 Pt12"
_cell_length_a       7.8526971
_cell_length_b       6.0600916457726886
_cell_length_c       100.66190792
_cell_angle_alpha    71.56505120697608
_cell_angle_beta     90.0
_cell_angle_gamma    90.0

_space_group_name_H-M_alt    "P 1"
_space_group_IT_number       1

loop_
  _space_group_symop_operation_xyz
  'x, y, z'

loop_
  _atom_site_type_symbol
  _atom_site_label
  _atom_site_symmetry_multiplicity
  _atom_site_fract_x
  _atom_site_fract_y
  _atom_site_fract_z
  _atom_site_occupancy
  C   C1        1.0  0.37650156  0.523326445  0.5350813553112876  1.0000
  O   O1        1.0  0.37650415000000004  0.534442435  0.5464866317277826  1.0000
  V   V1        1.0  0.37650181000000005  0.8394506850000001  0.4535133682722172  1.0000
  V   V2        1.0  0.37650181000000005  0.5061173449999999  0.47889694130321586  1.0000
  V   V3        1.0  0.37650181000000005  0.172784015  0.4662051532647021  1.0000
  Pt  Pt1       1.0  0.12650181  0.8394506850000001  0.4725510488069734  1.0000
  Pt  Pt2       1.0  0.12650181  0.5061173449999999  0.45985926076845973  1.0000
  Pt  Pt3       1.0  0.12650181  0.172784015  0.4852428337994582  1.0000
  V   V4        1.0  0.37650181000000005  0.8394506850000001  0.4915887293417296  1.0000
  V   V5        1.0  0.37650274000000006  0.5072033450000001  0.515650319744337  1.0000
  V   V6        1.0  0.37650014  0.160549315  0.5043041423802798  1.0000
  Pt  Pt4       1.0  0.12349585  0.8225312650000001  0.5110532712264215  1.0000
  Pt  Pt5       1.0  0.12750134  0.500417085  0.49777529015902605  1.0000
  Pt  Pt6       1.0  0.12886931000000001  0.176324235  0.5227201771559551  1.0000
  V   V7        1.0  0.87650181  0.8394506850000001  0.4535133682722172  1.0000
  V   V8        1.0  0.87650181  0.5061173449999999  0.47889694130321586  1.0000
  V   V9        1.0  0.87650181  0.172784015  0.4662051532647021  1.0000
  Pt  Pt7       1.0  0.6265018099999999  0.8394506850000001  0.4725510488069734  1.0000
  Pt  Pt8       1.0  0.6265018099999999  0.5061173449999999  0.45985926076845973  1.0000
  Pt  Pt9       1.0  0.6265018099999999  0.172784015  0.4852428337994582  1.0000
  V   V10       1.0  0.87650181  0.8394506850000001  0.4915887293417296  1.0000
  V   V11       1.0  0.87650415  0.492569725  0.5149945736918822  1.0000
  V   V12       1.0  0.87650343  0.17758776500000004  0.5044405313696596  1.0000
  Pt  Pt10      1.0  0.62950872  0.8225271650000001  0.5110533686993459  1.0000
  Pt  Pt11      1.0  0.62550069  0.500411765  0.4977752201003616  1.0000
  Pt  Pt12      1.0  0.62413347  0.176327895  0.5227201192814062  1.0000
