data_image0
_chemical_formula_structural       COCu15Au5Cu15Au5
_chemical_formula_sum              "C1 O1 Cu30 Au10"
_cell_length_a       5.40938663
_cell_length_b       8.55299125304636
_cell_length_c       109.75071120999999
_cell_angle_alpha    75.03678253586243
_cell_angle_beta     90.0
_cell_angle_gamma    71.56505115386338

_space_group_name_H-M_alt    "P 1"
_space_group_IT_number       1

loop_
  _space_group_symop_operation_xyz
  'x, y, z'

loop_
  _atom_site_type_symbol
  _atom_site_label
  _atom_site_symmetry_multiplicity
  _atom_site_fract_x
  _atom_site_fract_y
  _atom_site_fract_z
  _atom_site_occupancy
  C   C1        1.0  0.15994362000000004  0.7688457949999998  0.5565801980622714  1.0000
  O   O1        1.0  0.16473431999999993  0.675547245  0.5666048133475333  1.0000
  Cu  Cu1       1.0  0.05134953000000001  0.553953465  0.4575412456599985  1.0000
  Cu  Cu2       1.0  0.8513495300000001  0.953953465  0.46961427878567363  1.0000
  Cu  Cu3       1.0  0.25134953  0.15395346499999996  0.44546821615623255  1.0000
  Cu  Cu4       1.0  0.6513495300000001  0.3539534649999999  0.4816873082894396  1.0000
  Cu  Cu5       1.0  0.4513495300000001  0.7539534649999999  0.4333951866524665  1.0000
  Cu  Cu6       1.0  0.95134953  0.25395346499999993  0.46357776222283603  1.0000
  Cu  Cu7       1.0  0.75134953  0.6539534649999998  0.475650791726602  1.0000
  Cu  Cu8       1.0  0.15134952999999995  0.853953465  0.45150473271907016  1.0000
  Cu  Cu9       1.0  0.55134953  0.05395346499999996  0.4877238248522773  1.0000
  Cu  Cu10      1.0  0.35134952999999997  0.453953465  0.43943169959339495  1.0000
  Cu  Cu11      1.0  0.5513495300000001  0.553953465  0.4575412456599985  1.0000
  Cu  Cu12      1.0  0.35134953  0.953953465  0.46961427878567363  1.0000
  Cu  Cu13      1.0  0.75134953  0.15395346499999996  0.44546821615623255  1.0000
  Cu  Cu14      1.0  0.15134953000000004  0.3539534649999999  0.4816873082894396  1.0000
  Cu  Cu15      1.0  0.9513495300000002  0.7539534649999999  0.4333951866524665  1.0000
  Au  Au1       1.0  0.85134953  0.453953465  0.43943169959339495  1.0000
  Au  Au2       1.0  0.6513495300000001  0.853953465  0.45150473271907016  1.0000
  Au  Au3       1.0  0.05134953  0.05395346499999996  0.4877238248522773  1.0000
  Au  Au4       1.0  0.45134953  0.25395346499999993  0.46357776222283603  1.0000
  Au  Au5       1.0  0.2513495300000001  0.6539534649999998  0.475650791726602  1.0000
  Cu  Cu16      1.0  0.05134953000000001  0.553953465  0.5179064004226467  1.0000
  Cu  Cu17      1.0  0.8475630899999999  0.947463095  0.5297852340201221  1.0000
  Cu  Cu18      1.0  0.25134953  0.15395346499999996  0.5058333709188808  1.0000
  Cu  Cu19      1.0  0.65737965  0.35010450499999995  0.541585515650579  1.0000
  Cu  Cu20      1.0  0.4513495300000001  0.7539534649999999  0.4937603377932056  1.0000
  Cu  Cu21      1.0  0.9520044400000001  0.24695650499999994  0.523829015184544  1.0000
  Cu  Cu22      1.0  0.7534960199999999  0.640287875  0.535614512181592  1.0000
  Cu  Cu23      1.0  0.15134952999999995  0.853953465  0.5118698838598092  1.0000
  Cu  Cu24      1.0  0.53579915  0.06670114499999996  0.5469083458686594  1.0000
  Cu  Cu25      1.0  0.35134952999999997  0.453953465  0.4997968543560432  1.0000
  Cu  Cu26      1.0  0.5513495300000001  0.553953465  0.5179064004226467  1.0000
  Cu  Cu27      1.0  0.3545071799999999  0.9471235849999999  0.5297170515791814  1.0000
  Cu  Cu28      1.0  0.75134953  0.15395346499999996  0.5058333709188808  1.0000
  Cu  Cu29      1.0  0.13681371999999994  0.349946895  0.5415268153679588  1.0000
  Cu  Cu30      1.0  0.9513495300000002  0.7539534649999999  0.4937603377932056  1.0000
  Au  Au6       1.0  0.85134953  0.453953465  0.4997968543560432  1.0000
  Au  Au7       1.0  0.6513495300000001  0.853953465  0.5118698838598092  1.0000
  Au  Au8       1.0  0.04799555999999999  0.04604653499999996  0.5481334747696113  1.0000
  Au  Au9       1.0  0.44933532000000004  0.25307779499999994  0.5235292732218678  1.0000
  Au  Au10      1.0  0.25148038999999994  0.646312095  0.5373137852176596  1.0000
