data_image0
_chemical_formula_structural       COCo6Rh12Sn6
_chemical_formula_sum              "C1 O1 Co6 Rh12 Sn6"
_cell_length_a       4.600758098471574
_cell_length_b       7.38358355064545
_cell_length_c       38.08641094
_cell_angle_alpha    92.1849242613921
_cell_angle_beta     93.00282542066535
_cell_angle_gamma    83.49957441146107

_space_group_name_H-M_alt    "P 1"
_space_group_IT_number       1

loop_
  _space_group_symop_operation_xyz
  'x, y, z'

loop_
  _atom_site_type_symbol
  _atom_site_label
  _atom_site_symmetry_multiplicity
  _atom_site_fract_x
  _atom_site_fract_y
  _atom_site_fract_z
  _atom_site_occupancy
  C   C1        1.0  0.21027754499999998  0.21988325000000003  0.6360567176052484  1.0000
  O   O1        1.0  0.2736933749999999  0.17337795000000003  0.6649687799943631  1.0000
  Co  Co1       1.0  0.083333335  0.9861111099999998  0.4630476743809275  1.0000
  Co  Co2       1.0  0.41666666499999994  0.09722222000000004  0.3699447923776188  1.0000
  Co  Co3       1.0  0.750000005  0.54166667  0.41649623337927316  1.0000
  Co  Co4       1.0  0.1110246749999999  0.3141117500000001  0.595289261030351  1.0000
  Co  Co5       1.0  0.416666665  0.43055556000000006  0.5095991070033231  1.0000
  Co  Co6       1.0  0.767018035  0.87128475  0.5556440385744781  1.0000
  Rh  Rh1       1.0  0.2500000049999999  0.45833333000000004  0.38158265262803237  1.0000
  Rh  Rh2       1.0  0.583333335  0.9027777799999999  0.42813409362968685  1.0000
  Rh  Rh3       1.0  0.916666665  0.013888890000000039  0.3350312200056367  1.0000
  Rh  Rh4       1.0  0.583333335  0.7361111099999998  0.35830694050646383  1.0000
  Rh  Rh5       1.0  0.9166666649999999  0.18055556  0.40485837312885953  1.0000
  Rh  Rh6       1.0  0.2500000049999999  0.625  0.45140981413051384  1.0000
  Rh  Rh7       1.0  0.25574850499999996  0.7798352199999999  0.521269202261994  1.0000
  Rh  Rh8       1.0  0.6065327349999999  0.23242801000000002  0.566168680788239  1.0000
  Rh  Rh9       1.0  0.916666665  0.3472222200000001  0.4746855262520825  1.0000
  Rh  Rh10      1.0  0.583333335  0.06944444000000004  0.4979612467529096  1.0000
  Rh  Rh11      1.0  0.9104688249999999  0.51532247  0.5447551751223715  1.0000
  Rh  Rh12      1.0  0.2860736749999999  0.9600386399999999  0.5859795945710163  1.0000
  Sn  Sn1       1.0  0.08333333499999997  0.8194444399999999  0.39322051287844595  1.0000
  Sn  Sn2       1.0  0.416666665  0.26388889  0.4397719538801004  1.0000
  Sn  Sn3       1.0  0.750000005  0.37500000000000006  0.3466690802560503  1.0000
  Sn  Sn4       1.0  0.08887856499999994  0.14812665  0.5307444512526961  1.0000
  Sn  Sn5       1.0  0.4170941149999999  0.59561991  0.5826468449702354  1.0000
  Sn  Sn6       1.0  0.750000005  0.70833333  0.486323386502496  1.0000
