data_image0
_chemical_formula_structural       COIn12Pd8
_chemical_formula_sum              "C1 O1 In12 Pd8"
_cell_length_a       8.07934089
_cell_length_b       7.312348140055264
_cell_length_c       40.750607450000004
_cell_angle_alpha    100.72791202202538
_cell_angle_beta     90.0
_cell_angle_gamma    90.0

_space_group_name_H-M_alt    "P 1"
_space_group_IT_number       1

loop_
  _space_group_symop_operation_xyz
  'x, y, z'

loop_
  _atom_site_type_symbol
  _atom_site_label
  _atom_site_symmetry_multiplicity
  _atom_site_fract_x
  _atom_site_fract_y
  _atom_site_fract_z
  _atom_site_occupancy
  C   C1        1.0  0.85889781  0.16651095  0.5917374967730221  1.0000
  O   O1        1.0  0.9611154399999999  0.20308476  0.6120975985243334  1.0000
  In  In1       1.0  0.03888456000000002  0.53226795  0.47762312706818777  1.0000
  In  In2       1.0  0.03888456000000002  0.03226794999999999  0.38790240147566657  1.0000
  In  In3       1.0  0.53888456  0.28226795  0.4327627642719272  1.0000
  In  In4       1.0  0.53664886  0.78946965  0.5255904827034271  1.0000
  In  In5       1.0  0.3777698  0.19635169000000002  0.5363862976853113  1.0000
  In  In6       1.0  0.37221789  0.7108963300000001  0.4455697949269836  1.0000
  In  In7       1.0  0.8760911  0.9677320500000002  0.4921665624027556  1.0000
  In  In8       1.0  0.87221789  0.46089632999999997  0.40070943213072296  1.0000
  In  In9       1.0  0.17175022  0.59581231  0.5552689933700938  1.0000
  In  In10      1.0  0.20555123  0.10363957  0.4648160964131314  1.0000
  In  In11      1.0  0.71243529  0.37525773000000007  0.5158650431555197  1.0000
  In  In12      1.0  0.70555123  0.8536395699999999  0.41995573361687083  1.0000
  Pd  Pd1       1.0  0.3781775  0.46314247  0.49253735303982626  1.0000
  Pd  Pd2       1.0  0.37221789  0.9594460100000002  0.40096967247854765  1.0000
  Pd  Pd3       1.0  0.87221789  0.20944601000000002  0.44583003527480825  1.0000
  Pd  Pd4       1.0  0.8747183  0.71312858  0.5328557871332457  1.0000
  Pd  Pd5       1.0  0.20555123  0.35508989  0.41969549326904615  1.0000
  Pd  Pd6       1.0  0.20812409  0.8541352299999999  0.5086286862206064  1.0000
  Pd  Pd7       1.0  0.71435067  0.09672995  0.5526403411963681  1.0000
  Pd  Pd8       1.0  0.70555123  0.6050898900000001  0.4645558560653067  1.0000
