data_image0
_chemical_formula_structural       COIr10V10Ir10V10
_chemical_formula_sum              "C1 O1 Ir20 V20"
_cell_length_a       7.202321862414012
_cell_length_b       8.933815198493
_cell_length_c       104.8251367
_cell_angle_alpha    90.68197453046469
_cell_angle_beta     92.50854775472958
_cell_angle_gamma    84.61915855879464

_space_group_name_H-M_alt    "P 1"
_space_group_IT_number       1

loop_
  _space_group_symop_operation_xyz
  'x, y, z'

loop_
  _atom_site_type_symbol
  _atom_site_label
  _atom_site_symmetry_multiplicity
  _atom_site_fract_x
  _atom_site_fract_y
  _atom_site_fract_z
  _atom_site_occupancy
  C   C1        1.0  0.5907196949999999  0.1265414300000001  0.5381027162541349  1.0000
  O   O1        1.0  0.5992000049999999  0.1056628800000001  0.5493336977301007  1.0000
  Ir  Ir1       1.0  0.5543039949999999  0.22350771000000008  0.49482994651476253  1.0000
  Ir  Ir2       1.0  0.25471526499999997  0.24042187000000007  0.5115260603796593  1.0000
  Ir  Ir3       1.0  0.854303995  0.1985077100000001  0.4782188846090355  1.0000
  Ir  Ir4       1.0  0.9352095549999999  0.27117869000000006  0.5259626910931657  1.0000
  Ir  Ir5       1.0  0.15430399499999994  0.1735077100000001  0.4616078227033084  1.0000
  Ir  Ir6       1.0  0.7272201749999999  0.46363280000000007  0.5086315396538253  1.0000
  Ir  Ir7       1.0  0.4288278849999999  0.47988786000000005  0.5237508684005953  1.0000
  Ir  Ir8       1.0  0.027433784999999974  0.43656117000000005  0.49259823373666617  1.0000
  Ir  Ir9       1.0  0.6274337849999999  0.38656116000000007  0.4593761099252121  1.0000
  Ir  Ir10      1.0  0.3274337849999999  0.41156116000000004  0.4759871718309392  1.0000
  V   V1        1.0  0.672566215  0.46312494  0.48388842608135346  1.0000
  V   V2        1.0  0.370863145  0.48539969000000005  0.5005985065271006  1.0000
  V   V3        1.0  0.972566215  0.43812495000000007  0.4672773641756264  1.0000
  V   V4        1.0  0.07400087499999997  0.012552620000000082  0.517541484027403  1.0000
  V   V5        1.0  0.27256621499999995  0.4131249500000001  0.45066630226989934  1.0000
  V   V6        1.0  0.5091715649999999  0.14694393000000008  0.4703176303586211  1.0000
  V   V7        1.0  0.20917156499999998  0.17194393000000008  0.4869286922643482  1.0000
  V   V8        1.0  0.809171565  0.12194393000000012  0.4537065684528941  1.0000
  V   V9        1.0  0.9106248849999999  0.19514248000000012  0.503867244577759  1.0000
  V   V10       1.0  0.6100369149999999  0.2169026400000001  0.520403005217655  1.0000
  Ir  Ir11      1.0  0.5543039949999999  0.72350771  0.49482994651476253  1.0000
  Ir  Ir12      1.0  0.2579212149999999  0.75026393  0.5118242820962651  1.0000
  Ir  Ir13      1.0  0.854303995  0.6985077100000001  0.4782188846090355  1.0000
  Ir  Ir14      1.0  0.9247564549999999  0.77192165  0.5255162156490512  1.0000
  Ir  Ir15      1.0  0.15430399499999994  0.67350771  0.46160782270330836  1.0000
  Ir  Ir16      1.0  0.7268509449999999  0.9651343200000001  0.5083338129468643  1.0000
  Ir  Ir17      1.0  0.448164575  0.9789421800000001  0.5246887422446421  1.0000
  Ir  Ir18      1.0  0.027433784999999974  0.9365611700000002  0.4925982337366661  1.0000
  Ir  Ir19      1.0  0.6274337849999999  0.88656116  0.45937610992521205  1.0000
  Ir  Ir20      1.0  0.3274337849999999  0.91156116  0.4759871718309391  1.0000
  V   V11       1.0  0.672566215  0.96312494  0.48388842608135346  1.0000
  V   V12       1.0  0.36880123499999995  0.98744738  0.5006527914774084  1.0000
  V   V13       1.0  0.972566215  0.9381249499999998  0.4672773641756264  1.0000
  V   V14       1.0  0.07087018499999999  0.5134330400000001  0.5172712685611702  1.0000
  V   V15       1.0  0.27256621499999995  0.9131249500000002  0.45066630226989934  1.0000
  V   V16       1.0  0.5091715649999999  0.64694393  0.4703176303586212  1.0000
  V   V17       1.0  0.20917156499999998  0.67194393  0.48692869226434826  1.0000
  V   V18       1.0  0.809171565  0.62194393  0.453706568452894  1.0000
  V   V19       1.0  0.9125746149999999  0.6953905900000001  0.5035297310553214  1.0000
  V   V20       1.0  0.6024358049999999  0.71192185  0.5197243602834966  1.0000
