data_image0
_chemical_formula_structural       COV4Pd12V4Pd12
_chemical_formula_sum              "C1 O1 V8 Pd24"
_cell_length_a       5.54059501
_cell_length_b       11.959766415573224
_cell_length_c       101.49474216
_cell_angle_alpha    67.9015792326432
_cell_angle_beta     90.0
_cell_angle_gamma    62.401715549725225

_space_group_name_H-M_alt    "P 1"
_space_group_IT_number       1

loop_
  _space_group_symop_operation_xyz
  'x, y, z'

loop_
  _atom_site_type_symbol
  _atom_site_label
  _atom_site_symmetry_multiplicity
  _atom_site_fract_x
  _atom_site_fract_y
  _atom_site_fract_z
  _atom_site_occupancy
  C   C1        1.0  0.08622677500000009  0.713338015  0.5406137546902428  1.0000
  O   O1        1.0  0.20989213500000004  0.6292678349999999  0.5526298539945703  1.0000
  V   V1        1.0  0.7499033150000001  0.34148411500000003  0.45851460256149673  1.0000
  V   V2        1.0  0.7499033149999998  0.8414841150000001  0.48067954098174065  1.0000
  V   V3        1.0  0.41656997500000004  0.17481745500000004  0.48806785171976136  1.0000
  V   V4        1.0  0.41656997500000004  0.674817455  0.4659029164026084  1.0000
  Pd  Pd1       1.0  0.422163495  0.42341907500000003  0.4770473729586755  1.0000
  Pd  Pd2       1.0  0.422163495  0.923419075  0.45488243764152264  1.0000
  Pd  Pd3       1.0  0.913773225  0.17761420500000002  0.4879438708216891  1.0000
  Pd  Pd4       1.0  0.9137732249999999  0.677614205  0.4657789355045362  1.0000
  Pd  Pd5       1.0  0.9137732150000001  0.42341907500000003  0.4770473729586755  1.0000
  Pd  Pd6       1.0  0.9137732149999999  0.923419075  0.45488243764152264  1.0000
  Pd  Pd7       1.0  0.744309795  0.09288249500000004  0.4695350813225826  1.0000
  Pd  Pd8       1.0  0.744309795  0.592882495  0.4473701460054297  1.0000
  Pd  Pd9       1.0  0.2527000750000001  0.338687355  0.458638583459569  1.0000
  Pd  Pd10      1.0  0.252700075  0.838687355  0.4808035187767219  1.0000
  Pd  Pd11      1.0  0.252700075  0.09288249500000004  0.4695350813225826  1.0000
  Pd  Pd12      1.0  0.252700075  0.592882495  0.4473701460054297  1.0000
  V   V5        1.0  0.7513738350000002  0.34290975500000004  0.5034557945364398  1.0000
  V   V6        1.0  0.7706451149999999  0.8498199550000002  0.5229423868410031  1.0000
  V   V7        1.0  0.3844700350000001  0.20399920500000002  0.5285762223363335  1.0000
  V   V8        1.0  0.40776159500000003  0.675427645  0.5094488035064954  1.0000
  Pd  Pd13      1.0  0.4176313350000001  0.4276722149999999  0.5215461479395541  1.0000
  Pd  Pd14      1.0  0.422163495  0.923419075  0.49921230827582835  1.0000
  Pd  Pd15      1.0  0.9081878550000001  0.18574701500000002  0.531288581432536  1.0000
  Pd  Pd16      1.0  0.9129419950000003  0.676763775  0.5113155392725264  1.0000
  Pd  Pd17      1.0  0.9080102250000003  0.428621225  0.521568235741338  1.0000
  Pd  Pd18      1.0  0.9137732149999999  0.923419075  0.49921230827582835  1.0000
  Pd  Pd19      1.0  0.7599811649999999  0.08030276500000005  0.5154308678745709  1.0000
  Pd  Pd20      1.0  0.744309795  0.592882495  0.4917000166397355  1.0000
  Pd  Pd21      1.0  0.25531947499999996  0.33544814500000003  0.5026701880894245  1.0000
  Pd  Pd22      1.0  0.27956938500000006  0.819017105  0.5251872621739908  1.0000
  Pd  Pd23      1.0  0.274111305  0.07658092500000004  0.5156301825130071  1.0000
  Pd  Pd24      1.0  0.252700075  0.592882495  0.4917000166397355  1.0000
