data_image0
_chemical_formula_structural       COAl36Rh8
_chemical_formula_sum              "C1 O1 Al36 Rh8"
_cell_length_a       6.48542389
_cell_length_b       10.430636466885042
_cell_length_c       103.97670102000001
_cell_angle_alpha    108.05714971096056
_cell_angle_beta     90.0
_cell_angle_gamma    90.0

_space_group_name_H-M_alt    "P 1"
_space_group_IT_number       1

loop_
  _space_group_symop_operation_xyz
  'x, y, z'

loop_
  _atom_site_type_symbol
  _atom_site_label
  _atom_site_symmetry_multiplicity
  _atom_site_fract_x
  _atom_site_fract_y
  _atom_site_fract_z
  _atom_site_occupancy
  C   C1        1.0  0.13172004  0.412628135  0.5553876553462058  1.0000
  O   O1        1.0  0.07478238999999999  0.400641245  0.565541354849983  1.0000
  Al  Al1       1.0  0.50284765  0.22625504499999996  0.5118714105373998  1.0000
  Al  Al2       1.0  0.51063378  0.750244545  0.45801562430817055  1.0000
  Al  Al3       1.0  0.08066642  0.900881685  0.5390413503964548  1.0000
  Al  Al4       1.0  0.010633780000000004  0.5002445449999999  0.4852466444370586  1.0000
  Al  Al5       1.0  0.61631208  0.12633863499999998  0.44016136670275846  1.0000
  Al  Al6       1.0  0.61631208  0.626338635  0.4946234069605346  1.0000
  Al  Al7       1.0  0.11631208  0.624150455  0.44863885851697205  1.0000
  Al  Al8       1.0  0.11631208  0.12415045499999995  0.5031009020424707  1.0000
  Al  Al9       1.0  0.5617589799999999  0.5176512050000001  0.5223401773136341  1.0000
  Al  Al10      1.0  0.5319013399999999  0.08491931499999998  0.46514167757351726  1.0000
  Al  Al11      1.0  0.14420358  0.6231002149999999  0.5301612196132692  1.0000
  Al  Al12      1.0  0.03190134  0.16556977499999995  0.47812058790398937  1.0000
  Al  Al13      1.0  0.48936621999999996  0.4155697749999999  0.45088956777510125  1.0000
  Al  Al14      1.0  0.48936621999999996  0.915569775  0.5053516113006  1.0000
  Al  Al15      1.0  0.98936622  0.33491931499999994  0.43791065744462915  1.0000
  Al  Al16      1.0  0.98936622  0.8349193150000002  0.4923727009701279  1.0000
  Al  Al17      1.0  0.26516332  0.41197227499999994  0.5372550792760908  1.0000
  Al  Al18      1.0  0.31432119999999997  0.9429499150000001  0.4793145712419688  1.0000
  Al  Al19      1.0  0.8143212000000001  0.307539175  0.46394769750326037  1.0000
  Al  Al20      1.0  0.8206041299999999  0.801334075  0.517799974198475  1.0000
  Al  Al21      1.0  0.7069463599999999  0.5575391749999999  0.4367166773743723  1.0000
  Al  Al22      1.0  0.7069463599999999  0.05753917499999998  0.49117872089987097  1.0000
  Al  Al23      1.0  0.20694636  0.692949915  0.5065455913708568  1.0000
  Al  Al24      1.0  0.20694636  0.19294991499999994  0.45208354784535815  1.0000
  Al  Al25      1.0  0.22389362000000002  0.412041885  0.5053497192892458  1.0000
  Al  Al26      1.0  0.22389362000000002  0.9120418850000002  0.45088767576374705  1.0000
  Al  Al27      1.0  0.7238936199999999  0.838447205  0.4379125494559834  1.0000
  Al  Al28      1.0  0.7238936199999999  0.338447205  0.4923745929814821  1.0000
  Al  Al29      1.0  0.7973739400000001  0.5884472049999999  0.46514356958487146  1.0000
  Al  Al30      1.0  0.81901381  0.09901794499999998  0.5223525423757489  1.0000
  Al  Al31      1.0  0.38903734  0.11199035499999997  0.5321907334645252  1.0000
  Al  Al32      1.0  0.29737394  0.662041885  0.47811869589263517  1.0000
  Al  Al33      1.0  0.91620421  0.370028515  0.5221393169441659  1.0000
  Al  Al34      1.0  0.9049554799999999  0.8763386350000002  0.4673923868316466  1.0000
  Al  Al35      1.0  0.44846491  0.8291985050000001  0.528312868299973  1.0000
  Al  Al36      1.0  0.40495548  0.374150455  0.4758698819135826  1.0000
  Rh  Rh1       1.0  0.6121060500000001  0.311931315  0.5341672383206373  1.0000
  Rh  Rh2       1.0  0.63350077  0.798211925  0.48157260019860143  1.0000
  Rh  Rh3       1.0  0.13350077  0.452277165  0.46168966854662763  1.0000
  Rh  Rh4       1.0  0.13463388  0.9517880750000002  0.5164535189264912  1.0000
  Rh  Rh5       1.0  0.38776679000000003  0.7022771649999999  0.434458645150017  1.0000
  Rh  Rh6       1.0  0.38776679000000003  0.20227716499999995  0.48892068867551575  1.0000
  Rh  Rh7       1.0  0.8877667899999999  0.548211925  0.5088036235952121  1.0000
  Rh  Rh8       1.0  0.8877667899999999  0.04821192499999998  0.4543415800697135  1.0000
