data_image0
_chemical_formula_structural       COPt12W4
_chemical_formula_sum              "C1 O1 Pt12 W4"
_cell_length_a       4.906855891655793
_cell_length_b       5.56432426
_cell_length_c       106.67440219
_cell_angle_alpha    90.0
_cell_angle_beta     91.10189461829447
_cell_angle_gamma    90.0

_space_group_name_H-M_alt    "P 1"
_space_group_IT_number       1

loop_
  _space_group_symop_operation_xyz
  'x, y, z'

loop_
  _atom_site_type_symbol
  _atom_site_label
  _atom_site_symmetry_multiplicity
  _atom_site_fract_x
  _atom_site_fract_y
  _atom_site_fract_z
  _atom_site_occupancy
  C   C1        1.0  0.7078751950000001  0.14155305999999998  0.5358557420252467  1.0000
  O   O1        1.0  0.6830471550000001  0.15058104999999997  0.5467258482178978  1.0000
  Pt  Pt1       1.0  0.918899135  0.87434546  0.4747615010413219  1.0000
  Pt  Pt2       1.0  0.5898248250000001  0.37381735999999993  0.49608947261462816  1.0000
  Pt  Pt3       1.0  0.231399135  0.3743454599999999  0.4532741517821022  1.0000
  Pt  Pt4       1.0  0.25957337500000005  0.8747453999999999  0.5178591037595481  1.0000
  Pt  Pt5       1.0  0.918899135  0.3743454599999999  0.4747615010413219  1.0000
  Pt  Pt6       1.0  0.5889875350000001  0.87565454  0.4960462331919669  1.0000
  Pt  Pt7       1.0  0.231399135  0.87434546  0.4532741517821022  1.0000
  Pt  Pt8       1.0  0.259615305  0.3773279799999999  0.5178376886077825  1.0000
  Pt  Pt9       1.0  0.4188991350000001  0.6243454599999999  0.4747615010413219  1.0000
  Pt  Pt10      1.0  0.09645512500000004  0.12507817  0.4957655980967138  1.0000
  Pt  Pt11      1.0  0.7313991350000001  0.12434545999999998  0.4532741517821022  1.0000
  Pt  Pt12      1.0  0.7778247650000001  0.62713458  0.5181023577430419  1.0000
  W   W1        1.0  0.7313991350000001  0.6243454599999999  0.4532741517821022  1.0000
  W   W2        1.0  0.4188991350000001  0.12434545999999998  0.4747615010413219  1.0000
  W   W3        1.0  0.769694275  0.12536217999999996  0.5171064689555274  1.0000
  W   W4        1.0  0.08110086500000004  0.6250746899999999  0.49788570843544666  1.0000
