data_image0
_chemical_formula_structural       CORe8Si14Re8Si14
_chemical_formula_sum              "C1 O1 Re16 Si28"
_cell_length_a       6.3027987
_cell_length_b       11.844603374037614
_cell_length_c       103.59016869
_cell_angle_alpha    92.58218146405565
_cell_angle_beta     90.0
_cell_angle_gamma    97.64477874719533

_space_group_name_H-M_alt    "P 1"
_space_group_IT_number       1

loop_
  _space_group_symop_operation_xyz
  'x, y, z'

loop_
  _atom_site_type_symbol
  _atom_site_label
  _atom_site_symmetry_multiplicity
  _atom_site_fract_x
  _atom_site_fract_y
  _atom_site_fract_z
  _atom_site_occupancy
  C   C1        1.0  0.39912159  0.17228400999999996  0.5346170346909436  1.0000
  O   O1        1.0  0.35587469  0.14144805999999993  0.5453717986443521  1.0000
  Re  Re1       1.0  0.3620787900000001  0.45518588  0.5299705222318581  1.0000
  Re  Re2       1.0  0.05279573000000002  0.21512828999999997  0.5023652657595944  1.0000
  Re  Re3       1.0  0.4278370300000001  0.7084642200000002  0.519778823143205  1.0000
  Re  Re4       1.0  0.23967487000000004  0.9547840500000001  0.4703524344409124  1.0000
  Re  Re5       1.0  0.30351743999999997  0.21015432999999994  0.46018570014496274  1.0000
  Re  Re6       1.0  0.18068170000000006  0.71881138  0.48175165256896774  1.0000
  Re  Re7       1.0  0.11515270000000001  0.45669536999999993  0.4913020687477181  1.0000
  Re  Re8       1.0  0.49304119  0.9551306500000002  0.5114871591152627  1.0000
  Si  Si1       1.0  0.47054284000000013  0.87825593  0.48826784609155705  1.0000
  Si  Si2       1.0  0.28354328  0.11345688999999996  0.5167068792981211  1.0000
  Si  Si3       1.0  0.40589241000000004  0.6196542  0.4967122496435279  1.0000
  Si  Si4       1.0  0.012196200000000023  0.044869349999999954  0.45462820135564785  1.0000
  Si  Si5       1.0  0.14336231000000005  0.56953383  0.4648960918632058  1.0000
  Si  Si6       1.0  0.21775728000000005  0.8723263600000001  0.5275651438643749  1.0000
  Si  Si7       1.0  0.09324902000000002  0.36908064999999995  0.4681654745007186  1.0000
  Si  Si8       1.0  0.3464606  0.37562878999999993  0.5081324636194535  1.0000
  Si  Si9       1.0  0.06473384000000001  0.30437951999999996  0.5256805533169318  1.0000
  Si  Si10      1.0  0.44439337  0.77365808  0.46383183746482404  1.0000
  Si  Si11      1.0  0.141371  0.5451466399999999  0.515349892520096  1.0000
  Si  Si12      1.0  0.02034166000000001  0.07745118999999993  0.4837929126740485  1.0000
  Si  Si13      1.0  0.19922205000000007  0.7942697400000002  0.5046256155105757  1.0000
  Si  Si14      1.0  0.32100385  0.2800999599999999  0.484344651130061  1.0000
  Re  Re9       1.0  0.8683463100000001  0.46234186  0.5298878650645898  1.0000
  Re  Re10      1.0  0.55490251  0.21622210999999994  0.5021017330108504  1.0000
  Re  Re11      1.0  0.9267234900000001  0.70540935  0.5196285901505131  1.0000
  Re  Re12      1.0  0.7396748700000001  0.9547840500000001  0.4703524344409124  1.0000
  Re  Re13      1.0  0.80351744  0.21015432999999994  0.46018570014496274  1.0000
  Re  Re14      1.0  0.6806817000000001  0.71881138  0.48175165256896774  1.0000
  Re  Re15      1.0  0.6151527000000001  0.45669536999999993  0.4913020687477181  1.0000
  Re  Re16      1.0  0.9878038  0.95489062  0.5117449557010904  1.0000
  Si  Si15      1.0  0.97054284  0.87825593  0.48826784609155705  1.0000
  Si  Si16      1.0  0.77504609  0.11879930999999996  0.5174027351994768  1.0000
  Si  Si17      1.0  0.9058924100000002  0.6196542  0.4967122496435279  1.0000
  Si  Si18      1.0  0.5121962000000001  0.044869349999999954  0.45462820135564785  1.0000
  Si  Si19      1.0  0.6433623100000001  0.56953383  0.4648960918632058  1.0000
  Si  Si20      1.0  0.71965473  0.86944239  0.5277175883116225  1.0000
  Si  Si21      1.0  0.59324902  0.36908064999999995  0.4681654745007186  1.0000
  Si  Si22      1.0  0.84446851  0.38001988  0.5078372020102598  1.0000
  Si  Si23      1.0  0.58739938  0.2971907999999999  0.5264130700763603  1.0000
  Si  Si24      1.0  0.94439337  0.77365808  0.46383183746482404  1.0000
  Si  Si25      1.0  0.6320224200000001  0.5448982099999999  0.515494058604469  1.0000
  Si  Si26      1.0  0.52034166  0.07745118999999993  0.4837929126740485  1.0000
  Si  Si27      1.0  0.69917766  0.7933114600000002  0.504600517771191  1.0000
  Si  Si28      1.0  0.8210038500000001  0.2800999599999999  0.484344651130061  1.0000
