data_image0
_chemical_formula_structural       COOs18
_chemical_formula_sum              "C1 O1 Os18"
_cell_length_a       7.321770906260972
_cell_length_b       5.1512237856314895
_cell_length_c       100.44106209
_cell_angle_alpha    105.58173698445817
_cell_angle_beta     79.10660535915375
_cell_angle_gamma    66.03964815345522

_space_group_name_H-M_alt    "P 1"
_space_group_IT_number       1

loop_
  _space_group_symop_operation_xyz
  'x, y, z'

loop_
  _atom_site_type_symbol
  _atom_site_label
  _atom_site_symmetry_multiplicity
  _atom_site_fract_x
  _atom_site_fract_y
  _atom_site_fract_z
  _atom_site_occupancy
  C   C1        1.0  0.38718169999999996  0.172869225  0.5385456706213705  1.0000
  O   O1        1.0  0.2936427999999999  0.292197715  0.5515698128406336  1.0000
  Os  Os1       1.0  0.027777779999999908  0.320134535  0.45761424394401656  1.0000
  Os  Os2       1.0  0.36111110999999996  0.320134535  0.4667983007286667  1.0000
  Os  Os3       1.0  0.6944444399999999  0.320134535  0.4484301871593664  1.0000
  Os  Os4       1.0  0.63888889  0.820134535  0.4698596529902167  1.0000
  Os  Os5       1.0  0.97222222  0.820134535  0.4514915394209164  1.0000
  Os  Os6       1.0  0.30555555999999995  0.820134535  0.4606755962055665  1.0000
  Os  Os7       1.0  0.027777779999999908  0.320134535  0.48516641429796703  1.0000
  Os  Os8       1.0  0.35701581999999993  0.31804949499999996  0.4938358273936897  1.0000
  Os  Os9       1.0  0.6944444399999999  0.320134535  0.4759823575133168  1.0000
  Os  Os10      1.0  0.63015543  0.824394305  0.4976469329041911  1.0000
  Os  Os11      1.0  0.97222222  0.820134535  0.4790437097748669  1.0000
  Os  Os12      1.0  0.30555555999999995  0.820134535  0.48822776959025577  1.0000
  Os  Os13      1.0  0.038218869999999926  0.321079915  0.5124352166384709  1.0000
  Os  Os14      1.0  0.3554625799999999  0.322213455  0.5210869574964302  1.0000
  Os  Os15      1.0  0.6919470700000001  0.31538727499999997  0.5032629463968943  1.0000
  Os  Os16      1.0  0.65361201  0.7965401049999999  0.5226659420878175  1.0000
  Os  Os17      1.0  0.9714516799999997  0.827130775  0.5065443545390015  1.0000
  Os  Os18      1.0  0.30896604  0.806263085  0.5148831685882977  1.0000
