data_image0
_chemical_formula_structural       COCo12Sb24
_chemical_formula_sum              "C1 O1 Co12 Sb24"
_cell_length_a       6.581163856911659
_cell_length_b       14.513148747327554
_cell_length_c       107.00079105
_cell_angle_alpha    107.11089719258675
_cell_angle_beta     109.10502653373116
_cell_angle_gamma    102.04094406867

_space_group_name_H-M_alt    "P 1"
_space_group_IT_number       1

loop_
  _space_group_symop_operation_xyz
  'x, y, z'

loop_
  _atom_site_type_symbol
  _atom_site_label
  _atom_site_symmetry_multiplicity
  _atom_site_fract_x
  _atom_site_fract_y
  _atom_site_fract_z
  _atom_site_occupancy
  C   C1        1.0  0.8054148149999999  0.28635273000000006  0.5376458584007006  1.0000
  O   O1        1.0  0.8757650750000001  0.32560587000000013  0.5502218674718676  1.0000
  Co  Co1       1.0  0.7158622649999999  0.23936204000000003  0.4747874151227025  1.0000
  Co  Co2       1.0  0.709405665  0.90395633  0.5035934280162749  1.0000
  Co  Co3       1.0  0.684471465  0.56663067  0.5292240150016161  1.0000
  Co  Co4       1.0  0.25695936500000005  0.42780096000000006  0.46414352812177395  1.0000
  Co  Co5       1.0  0.256959365  0.09446763000000002  0.49296012938773903  1.0000
  Co  Co6       1.0  0.23700204499999997  0.75458835  0.519982534063954  1.0000
  Co  Co7       1.0  0.25340363500000007  0.4294585000000001  0.5077709074723782  1.0000
  Co  Co8       1.0  0.256959365  0.09397129000000003  0.4497781325281325  1.0000
  Co  Co9       1.0  0.256959365  0.76063796  0.4785947372520899  1.0000
  Co  Co10      1.0  0.704686145  0.23066725000000002  0.5189143291235697  1.0000
  Co  Co11      1.0  0.7158622649999998  0.9055323699999999  0.46042201952906114  1.0000
  Co  Co12      1.0  0.7158622649999999  0.5721990400000001  0.48923862425301856  1.0000
  Sb  Sb1       1.0  0.6378348149999999  0.49266643000000004  0.4629413951399888  1.0000
  Sb  Sb2       1.0  0.6378348149999999  0.15933310000000003  0.4917579964059539  1.0000
  Sb  Sb3       1.0  0.6356712849999999  0.8367992799999999  0.5225721553302656  1.0000
  Sb  Sb4       1.0  0.334986815  0.27025424  0.4677113151252167  1.0000
  Sb  Sb5       1.0  0.334986815  0.93692091  0.4965279198491741  1.0000
  Sb  Sb6       1.0  0.34399937499999994  0.6118575  0.5251670223708814  1.0000
  Sb  Sb7       1.0  0.294540015  0.17088266000000005  0.5180184532289691  1.0000
  Sb  Sb8       1.0  0.334986815  0.8406669  0.46162415596883855  1.0000
  Sb  Sb9       1.0  0.33498681500000005  0.5073335700000001  0.4904407572348036  1.0000
  Sb  Sb10      1.0  0.634316695  0.39304261000000007  0.5144938392592701  1.0000
  Sb  Sb11      1.0  0.637834815  0.06307909000000005  0.4568542325256183  1.0000
  Sb  Sb12      1.0  0.6378348149999999  0.72974576  0.4856708337915834  1.0000
  Sb  Sb13      1.0  0.8394032150000001  0.32983567000000014  0.459398592130843  1.0000
  Sb  Sb14      1.0  0.8394032149999998  0.9965023299999999  0.4882151933968081  1.0000
  Sb  Sb15      1.0  0.8382273749999999  0.66870498  0.5176566988235185  1.0000
  Sb  Sb16      1.0  0.13341841499999996  0.57663134  0.45884456643807053  1.0000
  Sb  Sb17      1.0  0.13341841499999998  0.24329801000000004  0.4876611677040357  1.0000
  Sb  Sb18      1.0  0.11911473499999996  0.8998217199999999  0.5155124531322202  1.0000
  Sb  Sb19      1.0  0.13595072500000002  0.34449918000000007  0.5234411764567402  1.0000
  Sb  Sb20      1.0  0.13341841499999998  0.0034976700000000347  0.46516695551999204  1.0000
  Sb  Sb21      1.0  0.13341841499999996  0.67016433  0.4939835602439494  1.0000
  Sb  Sb22      1.0  0.8808852650000001  0.08256562000000003  0.5240475388628252  1.0000
  Sb  Sb23      1.0  0.839403215  0.75670199  0.4657209846707567  1.0000
  Sb  Sb24      1.0  0.8394032150000001  0.42336866000000006  0.4945375859367218  1.0000
