data_image0
_chemical_formula_structural       COAlCoAlCoAlCoAlCoAlCoAlCoAlCoAlCoAlCoAlCoAlCoAlCo
_chemical_formula_sum              "C1 O1 Al12 Co12"
_cell_length_a       5.74477462
_cell_length_b       5.74477462
_cell_length_c       98.72387309999999
_cell_angle_alpha    90.0
_cell_angle_beta     90.0
_cell_angle_gamma    90.0

_space_group_name_H-M_alt    "P 1"
_space_group_IT_number       1

loop_
  _space_group_symop_operation_xyz
  'x, y, z'

loop_
  _atom_site_type_symbol
  _atom_site_label
  _atom_site_symmetry_multiplicity
  _atom_site_fract_x
  _atom_site_fract_y
  _atom_site_fract_z
  _atom_site_occupancy
  C   C1        1.0  0.37632205500000004  0.12256735  0.5394249732560653  1.0000
  O   O1        1.0  0.3763218850000001  0.12257423  0.5515676771514574  1.0000
  Al  Al1       1.0  0.12632221500000004  0.12257213  0.46297990500777636  1.0000
  Co  Co1       1.0  0.376322215  0.37257213  0.4484323228485428  1.0000
  Al  Al2       1.0  0.12367778500000004  0.12256428000000001  0.4921052264640596  1.0000
  Co  Co2       1.0  0.376322215  0.37257213  0.4775274871670099  1.0000
  Al  Al3       1.0  0.13410857500000004  0.12257646000000001  0.5225058035200034  1.0000
  Co  Co3       1.0  0.376322225  0.36837516000000003  0.5067857182434163  1.0000
  Al  Al4       1.0  0.12632221500000004  0.62257213  0.46297990500777636  1.0000
  Co  Co4       1.0  0.376322215  0.87257213  0.4484323228485428  1.0000
  Al  Al5       1.0  0.12409770500000004  0.62257523  0.4920066956900951  1.0000
  Co  Co5       1.0  0.376322215  0.87257213  0.4775274871670099  1.0000
  Al  Al6       1.0  0.13166920500000004  0.6225661599999999  0.520179746965817  1.0000
  Co  Co6       1.0  0.3763221950000001  0.87677841  0.5067861022995853  1.0000
  Al  Al7       1.0  0.626322215  0.12257213  0.46297990500777636  1.0000
  Co  Co7       1.0  0.8763222150000001  0.37257213  0.4484323228485428  1.0000
  Al  Al8       1.0  0.6289666050000001  0.12256428000000001  0.4921052264640596  1.0000
  Co  Co8       1.0  0.8763222150000001  0.37257213  0.4775274871670099  1.0000
  Al  Al9       1.0  0.618535805  0.12257648  0.5225058122485527  1.0000
  Co  Co9       1.0  0.8763221950000001  0.36770989000000004  0.5077928182611358  1.0000
  Al  Al10      1.0  0.626322215  0.62257213  0.46297990500777636  1.0000
  Co  Co10      1.0  0.8763222150000001  0.87257213  0.4484323228485428  1.0000
  Al  Al11      1.0  0.628546695  0.6225752199999999  0.4920066956900951  1.0000
  Co  Co11      1.0  0.8763222150000001  0.87257213  0.4775274871670099  1.0000
  Al  Al12      1.0  0.6209752150000001  0.62256617  0.52017975278485  1.0000
  Co  Co12      1.0  0.8763221950000001  0.87743572  0.5077922421768822  1.0000
