data_image0
_chemical_formula_structural       COAl8Cu24
_chemical_formula_sum              "C1 O1 Al8 Cu24"
_cell_length_a       6.277811032922196
_cell_length_b       10.073302747138353
_cell_length_c       102.74077593999999
_cell_angle_alpha    96.51549607366732
_cell_angle_beta     87.24656078133624
_cell_angle_gamma    54.255002322008835

_space_group_name_H-M_alt    "P 1"
_space_group_IT_number       1

loop_
  _space_group_symop_operation_xyz
  'x, y, z'

loop_
  _atom_site_type_symbol
  _atom_site_label
  _atom_site_symmetry_multiplicity
  _atom_site_fract_x
  _atom_site_fract_y
  _atom_site_fract_z
  _atom_site_occupancy
  C   C1        1.0  0.829525585  0.281083435  0.5412509947435741  1.0000
  O   O1        1.0  0.7351259750000001  0.37569641500000006  0.551188806377614  1.0000
  Al  Al1       1.0  0.251313305  0.6435862450000001  0.4654271903788235  1.0000
  Al  Al2       1.0  0.0013133050000000424  0.39358624500000006  0.48534429220648573  1.0000
  Al  Al3       1.0  0.5028042849999997  0.8942284250000001  0.5235486459585214  1.0000
  Al  Al4       1.0  0.7511971349999998  0.14437018500000004  0.5053458584795786  1.0000
  Al  Al5       1.0  0.6264636249999999  0.851869465  0.4886678032205825  1.0000
  Al  Al6       1.0  0.3767156050000001  0.611131165  0.5092263090220301  1.0000
  Al  Al7       1.0  0.8764636249999997  0.10186946500000002  0.46875070139292047  1.0000
  Al  Al8       1.0  0.126463625  0.35186946500000005  0.4488335995652583  1.0000
  Cu  Cu1       1.0  0.0020568549999999855  0.8933383949999999  0.4853640404112899  1.0000
  Cu  Cu2       1.0  0.7488280149999997  0.642525475  0.505027130675819  1.0000
  Cu  Cu3       1.0  0.25205685499999997  0.14333839500000004  0.46544693858362773  1.0000
  Cu  Cu4       1.0  0.5038817449999999  0.39500134500000006  0.523357706280088  1.0000
  Cu  Cu5       1.0  0.8757200749999999  0.602117315  0.46873095318811625  1.0000
  Cu  Cu6       1.0  0.6257200749999999  0.35211731500000004  0.4886480550157784  1.0000
  Cu  Cu7       1.0  0.12572007499999996  0.8521173150000001  0.44881385136045415  1.0000
  Cu  Cu8       1.0  0.372857675  0.11011454500000002  0.5086820208367564  1.0000
  Cu  Cu9       1.0  0.750177655  0.8942946749999999  0.4654495963216956  1.0000
  Cu  Cu10      1.0  0.5001776549999999  0.6442946749999999  0.4853666981493578  1.0000
  Cu  Cu11      1.0  0.009725334999999965  0.13967515500000002  0.5249940794325673  1.0000
  Cu  Cu12      1.0  0.24949400499999994  0.394567635  0.5050837589797355  1.0000
  Cu  Cu13      1.0  0.501167315  0.14330501500000004  0.48528785192001056  1.0000
  Cu  Cu14      1.0  0.24291551500000008  0.8988389649999999  0.5054557785745133  1.0000
  Cu  Cu15      1.0  0.751167315  0.39330501500000004  0.46537075009234835  1.0000
  Cu  Cu16      1.0  0.998686695  0.6444464550000001  0.5232010335770072  1.0000
  Cu  Cu17      1.0  0.12759927500000015  0.601161035  0.48864539727771056  1.0000
  Cu  Cu18      1.0  0.8812487750000001  0.35412416500000005  0.5084383183655294  1.0000
  Cu  Cu19      1.0  0.37759927499999996  0.851161035  0.46872829545004835  1.0000
  Cu  Cu20      1.0  0.627599275  0.10116103500000002  0.44881119362238625  1.0000
  Cu  Cu21      1.0  0.8753913249999998  0.8601891049999999  0.508653671630699  1.0000
  Cu  Cu22      1.0  0.6266096149999999  0.6021506950000001  0.44889003985173354  1.0000
  Cu  Cu23      1.0  0.12660961499999998  0.10215069500000004  0.4887242435070577  1.0000
  Cu  Cu24      1.0  0.3766096149999999  0.35215069500000007  0.46880714167939563  1.0000
