data_image0
_chemical_formula_structural       COFe4Si8Fe4Si8Fe4Si8Fe4Si8
_chemical_formula_sum              "C1 O1 Fe16 Si32"
_cell_length_a       7.494193702882602
_cell_length_b       7.68461826
_cell_length_c       108.60551248
_cell_angle_alpha    90.0
_cell_angle_beta     104.25432089791244
_cell_angle_gamma    59.15583593207093

_space_group_name_H-M_alt    "P 1"
_space_group_IT_number       1

loop_
  _space_group_symop_operation_xyz
  'x, y, z'

loop_
  _atom_site_type_symbol
  _atom_site_label
  _atom_site_symmetry_multiplicity
  _atom_site_fract_x
  _atom_site_fract_y
  _atom_site_fract_z
  _atom_site_occupancy
  C   C1        1.0  0.52713516  0.15727387999999995  0.55575216476518  1.0000
  O   O1        1.0  0.57210676  0.15321779999999996  0.5672102893634248  1.0000
  Fe  Fe1       1.0  0.8755865999999999  0.3094738  0.5362186603158512  1.0000
  Fe  Fe2       1.0  0.62282767  0.19171604999999997  0.5213625877111353  1.0000
  Fe  Fe3       1.0  0.125  0.4397955499999999  0.4920339577811647  1.0000
  Fe  Fe4       1.0  0.375  0.06479555000000002  0.5068450213446396  1.0000
  Si  Si1       1.0  0.98864111  0.25797498999999996  0.5001124372913833  1.0000
  Si  Si2       1.0  0.73762147  0.12671089999999996  0.544416562014471  1.0000
  Si  Si3       1.0  0.23864111  0.38297498999999996  0.5149235008548582  1.0000
  Si  Si4       1.0  0.48812241999999995  0.003383900000000001  0.5298042783116216  1.0000
  Si  Si5       1.0  0.76135889  0.37161610000000006  0.5135776018432409  1.0000
  Si  Si6       1.0  0.51135889  0.24661609999999998  0.498766541834421  1.0000
  Si  Si7       1.0  0.02335629  0.49022341  0.5291385163181641  1.0000
  Si  Si8       1.0  0.26204041  0.15645188000000002  0.5432772133392454  1.0000
  Fe  Fe5       1.0  0.8749999999999999  0.31479555  0.47722289777234483  1.0000
  Fe  Fe6       1.0  0.625  0.18979555  0.46241183420886994  1.0000
  Fe  Fe7       1.0  0.125  0.4397955499999999  0.43278971063657523  1.0000
  Fe  Fe8       1.0  0.375  0.06479555000000002  0.44760077064539516  1.0000
  Si  Si9       1.0  0.98864111  0.25797498999999996  0.44086819014679385  1.0000
  Si  Si10      1.0  0.73864111  0.13297498999999993  0.4853013772825635  1.0000
  Si  Si11      1.0  0.23864111  0.38297498999999996  0.4556792501556137  1.0000
  Si  Si12      1.0  0.48864111  0.007974989999999965  0.47049031371908856  1.0000
  Si  Si13      1.0  0.76135889  0.37161610000000006  0.4543333546986514  1.0000
  Si  Si14      1.0  0.51135889  0.24661609999999998  0.4395222911351766  1.0000
  Si  Si15      1.0  0.011358889999999996  0.4966161  0.4691444147074713  1.0000
  Si  Si16      1.0  0.26135888999999995  0.12161609999999999  0.48395547827094615  1.0000
  Fe  Fe9       1.0  0.86961226  0.81869669  0.535806842873512  1.0000
  Fe  Fe10      1.0  0.62495688  0.6879863900000001  0.5213187730339646  1.0000
  Fe  Fe11      1.0  0.125  0.93979555  0.4920339577811647  1.0000
  Fe  Fe12      1.0  0.375  0.56479555  0.5068450213446396  1.0000
  Si  Si17      1.0  0.98864111  0.75797499  0.5001124372913833  1.0000
  Si  Si18      1.0  0.78553315  0.60849757  0.5444819925485196  1.0000
  Si  Si19      1.0  0.23864111  0.88297499  0.5149235008548582  1.0000
  Si  Si20      1.0  0.49367757  0.50602185  0.5305470803422627  1.0000
  Si  Si21      1.0  0.76135889  0.8716161  0.5135776018432409  1.0000
  Si  Si22      1.0  0.51135889  0.7466161  0.498766541834421  1.0000
  Si  Si23      1.0  0.028826229999999998  0.98785577  0.5299384629821166  1.0000
  Si  Si24      1.0  0.24049208  0.6182326  0.5430108061677993  1.0000
  Fe  Fe13      1.0  0.8749999999999999  0.8147955500000001  0.47722289777234483  1.0000
  Fe  Fe14      1.0  0.625  0.68979555  0.46241183420886994  1.0000
  Fe  Fe15      1.0  0.125  0.93979555  0.43278971063657523  1.0000
  Fe  Fe16      1.0  0.375  0.56479555  0.44760077064539516  1.0000
  Si  Si25      1.0  0.98864111  0.75797499  0.44086819014679385  1.0000
  Si  Si26      1.0  0.73864111  0.6329749899999999  0.4853013772825635  1.0000
  Si  Si27      1.0  0.23864111  0.88297499  0.4556792501556137  1.0000
  Si  Si28      1.0  0.48864111  0.50797499  0.47049031371908856  1.0000
  Si  Si29      1.0  0.76135889  0.8716161  0.4543333546986514  1.0000
  Si  Si30      1.0  0.51135889  0.7466161  0.4395222911351766  1.0000
  Si  Si31      1.0  0.011358889999999996  0.9966160999999999  0.4691444147074713  1.0000
  Si  Si32      1.0  0.26135888999999995  0.6216161  0.48395547827094615  1.0000
