data_image0
_chemical_formula_structural       COSi8W4
_chemical_formula_sum              "C1 O1 Si8 W4"
_cell_length_a       4.55730616
_cell_length_b       4.557306156540725
_cell_length_c       102.06216692000001
_cell_angle_alpha    90.0
_cell_angle_beta     90.0
_cell_angle_gamma    119.66577240208609

_space_group_name_H-M_alt    "P 1"
_space_group_IT_number       1

loop_
  _space_group_symop_operation_xyz
  'x, y, z'

loop_
  _atom_site_type_symbol
  _atom_site_label
  _atom_site_symmetry_multiplicity
  _atom_site_fract_x
  _atom_site_fract_y
  _atom_site_fract_z
  _atom_site_occupancy
  C   C1        1.0  0.10478682999999996  0.11032168999999996  0.5376391104234958  1.0000
  O   O1        1.0  0.11835527999999998  0.12756166999999996  0.549103714836894  1.0000
  Si  Si1       1.0  0.24760620000000003  0.9174646000000001  0.4508962851631061  1.0000
  Si  Si2       1.0  0.7476061999999999  0.41746459999999996  0.4733351065531321  1.0000
  Si  Si3       1.0  0.41746459999999996  0.7476062  0.4733351065531321  1.0000
  Si  Si4       1.0  0.9174646000000002  0.24760619999999994  0.4508962851631061  1.0000
  Si  Si5       1.0  0.25056447000000004  0.91560725  0.4958048019669027  1.0000
  Si  Si6       1.0  0.74884772  0.42331026  0.5184418384847475  1.0000
  Si  Si7       1.0  0.42215146000000003  0.74994875  0.5184297031211206  1.0000
  Si  Si8       1.0  0.9150984299999999  0.25108545  0.4958214138754863  1.0000
  W   W1        1.0  0.5825353999999999  0.5825353999999999  0.4508962851631061  1.0000
  W   W2        1.0  0.08253539999999995  0.08253539999999995  0.4733351065531321  1.0000
  W   W3        1.0  0.5828889399999999  0.58347499  0.49563769647045763  1.0000
  W   W4        1.0  0.08384651999999995  0.08499689999999994  0.5177867267593056  1.0000
