data_image0
_chemical_formula_structural       COV3Ir9V3Ir9V3Ir9V3Ir9
_chemical_formula_sum              "C1 O1 V12 Ir36"
_cell_length_a       8.60342522817916
_cell_length_b       7.69513746
_cell_length_c       102.64770328
_cell_angle_alpha    90.0
_cell_angle_beta     108.43494882292201
_cell_angle_gamma    90.0

_space_group_name_H-M_alt    "P 1"
_space_group_IT_number       1

loop_
  _space_group_symop_operation_xyz
  'x, y, z'

loop_
  _atom_site_type_symbol
  _atom_site_label
  _atom_site_symmetry_multiplicity
  _atom_site_fract_x
  _atom_site_fract_y
  _atom_site_fract_z
  _atom_site_occupancy
  C   C1        1.0  0.09648841999999999  0.36655064000000004  0.5476319020836675  1.0000
  O   O1        1.0  0.12206643999999998  0.35548002999999995  0.5597420315221485  1.0000
  V   V1        1.0  0.75994538  0.12425450999999997  0.512484665655074  1.0000
  V   V2        1.0  0.41519855999999994  0.12535885999999996  0.5281031165900598  1.0000
  V   V3        1.0  0.08461186999999999  0.12652614999999998  0.4932672791098009  1.0000
  Ir  Ir1       1.0  0.73216631  0.12170645999999997  0.5364364726661299  1.0000
  Ir  Ir2       1.0  0.41794520999999996  0.12652614999999998  0.5021021615646603  1.0000
  Ir  Ir3       1.0  0.08205479  0.12426546999999998  0.5191889332682674  1.0000
  Ir  Ir4       1.0  0.91480388  0.37562082999999996  0.5291181187062024  1.0000
  Ir  Ir5       1.0  0.58461187  0.37652615  0.49326727910980084  1.0000
  Ir  Ir6       1.0  0.24978793  0.37658633  0.5106139119906045  1.0000
  Ir  Ir7       1.0  0.58892162  0.37651513999999997  0.5197344054248779  1.0000
  Ir  Ir8       1.0  0.26406313  0.37430403999999995  0.5366357092163415  1.0000
  Ir  Ir9       1.0  0.91794521  0.37652615  0.5021021615646603  1.0000
  V   V4        1.0  0.7512785399999999  0.12652614999999998  0.4579277365681289  1.0000
  V   V5        1.0  0.41794520999999996  0.12652614999999998  0.4755975078389649  1.0000
  V   V6        1.0  0.08461186999999999  0.12652614999999998  0.4402579684778516  1.0000
  Ir  Ir10      1.0  0.7512785399999999  0.12652614999999998  0.4844323934743828  1.0000
  Ir  Ir11      1.0  0.41794520999999996  0.12652614999999998  0.4490928541132695  1.0000
  Ir  Ir12      1.0  0.08461186999999999  0.12652614999999998  0.4667626222035469  1.0000
  Ir  Ir13      1.0  0.91794521  0.37652615  0.4755975078389649  1.0000
  Ir  Ir14      1.0  0.58461187  0.37652615  0.4402579684778515  1.0000
  Ir  Ir15      1.0  0.25127854  0.37652615  0.4579277365681289  1.0000
  Ir  Ir16      1.0  0.58461187  0.37652615  0.4667626222035469  1.0000
  Ir  Ir17      1.0  0.25127854  0.37652615  0.4844323934743828  1.0000
  Ir  Ir18      1.0  0.91794521  0.37652615  0.44909285411326955  1.0000
  V   V7        1.0  0.75917834  0.62878294  0.5124282711709929  1.0000
  V   V8        1.0  0.41512748  0.62751984  0.5280065293872754  1.0000
  V   V9        1.0  0.08461186999999999  0.62652615  0.4932672791098009  1.0000
  Ir  Ir19      1.0  0.73322287  0.6308790400000001  0.536443778409175  1.0000
  Ir  Ir20      1.0  0.41794520999999996  0.62652615  0.5021021615646603  1.0000
  Ir  Ir21      1.0  0.08282247999999999  0.62824295  0.5193003482351253  1.0000
  Ir  Ir22      1.0  0.91021651  0.8761548199999999  0.5281249479441139  1.0000
  Ir  Ir23      1.0  0.58461187  0.87652615  0.49326727910980084  1.0000
  Ir  Ir24      1.0  0.25149983  0.87605741  0.5106227793879096  1.0000
  Ir  Ir25      1.0  0.58340402  0.87646947  0.5195638575130066  1.0000
  Ir  Ir26      1.0  0.27340104  0.87829354  0.5364072687773006  1.0000
  Ir  Ir27      1.0  0.91794521  0.87652615  0.5021021615646603  1.0000
  V   V10       1.0  0.7512785399999999  0.62652615  0.4579277365681289  1.0000
  V   V11       1.0  0.41794520999999996  0.62652615  0.4755975078389649  1.0000
  V   V12       1.0  0.08461186999999999  0.62652615  0.4402579684778516  1.0000
  Ir  Ir28      1.0  0.7512785399999999  0.62652615  0.4844323934743828  1.0000
  Ir  Ir29      1.0  0.41794520999999996  0.62652615  0.4490928541132695  1.0000
  Ir  Ir30      1.0  0.08461186999999999  0.62652615  0.4667626222035469  1.0000
  Ir  Ir31      1.0  0.91794521  0.87652615  0.4755975078389649  1.0000
  Ir  Ir32      1.0  0.58461187  0.87652615  0.4402579684778515  1.0000
  Ir  Ir33      1.0  0.25127854  0.87652615  0.4579277365681289  1.0000
  Ir  Ir34      1.0  0.58461187  0.87652615  0.4667626222035469  1.0000
  Ir  Ir35      1.0  0.25127854  0.87652615  0.4844323934743828  1.0000
  Ir  Ir36      1.0  0.91794521  0.87652615  0.44909285411326955  1.0000
