data_image0
_chemical_formula_structural       COIr6Re18
_chemical_formula_sum              "C1 O1 Ir6 Re18"
_cell_length_a       4.793185757630123
_cell_length_b       7.310241053859716
_cell_length_c       100.73952449000001
_cell_angle_alpha    86.04880320066827
_cell_angle_beta     90.09790413721262
_cell_angle_gamma    90.20584361342034

_space_group_name_H-M_alt    "P 1"
_space_group_IT_number       1

loop_
  _space_group_symop_operation_xyz
  'x, y, z'

loop_
  _atom_site_type_symbol
  _atom_site_label
  _atom_site_symmetry_multiplicity
  _atom_site_fract_x
  _atom_site_fract_y
  _atom_site_fract_z
  _atom_site_occupancy
  C   C1        1.0  0.16104139500000003  0.47703594  0.5455833293604604  1.0000
  O   O1        1.0  0.15163128500000003  0.49787913  0.5572190754539408  1.0000
  Ir  Ir1       1.0  0.08333333500000004  0.98467144  0.4936373674633083  1.0000
  Ir  Ir2       1.0  0.416827045  0.09078228999999999  0.5273590352133957  1.0000
  Ir  Ir3       1.0  0.747021305  0.53930778  0.5104646299819106  1.0000
  Ir  Ir4       1.0  0.08333333500000004  0.31800477  0.4427809245460591  1.0000
  Ir  Ir5       1.0  0.416666665  0.42911589  0.47668522084135406  1.0000
  Ir  Ir6       1.0  0.7500000050000002  0.87356033  0.45973307116801326  1.0000
  Re  Re1       1.0  0.229525745  0.46289705999999997  0.5264414527197135  1.0000
  Re  Re2       1.0  0.583333335  0.90133811  0.5063514797183138  1.0000
  Re  Re3       1.0  0.9080992050000001  0.015328559999999995  0.5380959099164206  1.0000
  Re  Re4       1.0  0.6120814750000001  0.7497136999999999  0.530328827830206  1.0000
  Re  Re5       1.0  0.9140969249999998  0.18657673999999996  0.5153087063635415  1.0000
  Re  Re6       1.0  0.250000005  0.6235603299999999  0.49787540488164345  1.0000
  Re  Re7       1.0  0.08633946500000003  0.81582807  0.5194108868919622  1.0000
  Re  Re8       1.0  0.41666666499999994  0.26244922  0.5021134422999787  1.0000
  Re  Re9       1.0  0.7313176050000001  0.36414787000000004  0.5348666151693431  1.0000
  Re  Re10      1.0  0.250000005  0.7902269999999999  0.4724471834230189  1.0000
  Re  Re11      1.0  0.583333335  0.23467143999999998  0.4554950337496781  1.0000
  Re  Re12      1.0  0.9166666649999999  0.3457825500000001  0.48939933309635975  1.0000
  Re  Re13      1.0  0.583333335  0.06800476999999999  0.48092325825968935  1.0000
  Re  Re14      1.0  0.9166666649999999  0.51244922  0.46397110858634855  1.0000
  Re  Re15      1.0  0.250000005  0.95689366  0.44701896196439433  1.0000
  Re  Re16      1.0  0.08333333500000004  0.15133811  0.4682091460046838  1.0000
  Re  Re17      1.0  0.41666666500000005  0.59578255  0.45125699938272956  1.0000
  Re  Re18      1.0  0.7500000050000002  0.70689366  0.4851612956780246  1.0000
