data_image0
_chemical_formula_structural       COSb24Rh12
_chemical_formula_sum              "C1 O1 Sb24 Rh12"
_cell_length_a       9.4946295593463
_cell_length_b       11.524888456071972
_cell_length_c       109.15674508000001
_cell_angle_alpha    89.45317447753963
_cell_angle_beta     77.78117486046698
_cell_angle_gamma    52.98699722124837

_space_group_name_H-M_alt    "P 1"
_space_group_IT_number       1

loop_
  _space_group_symop_operation_xyz
  'x, y, z'

loop_
  _atom_site_type_symbol
  _atom_site_label
  _atom_site_symmetry_multiplicity
  _atom_site_fract_x
  _atom_site_fract_y
  _atom_site_fract_z
  _atom_site_occupancy
  C   C1        1.0  0.019852030000000024  0.7907474800000001  0.5410217392910684  1.0000
  O   O1        1.0  0.033900799999999946  0.8095780800000001  0.5510035202642657  1.0000
  Sb  Sb1       1.0  0.9089639300000002  0.44521062  0.5115551553033945  1.0000
  Sb  Sb2       1.0  0.25244245  0.77728027  0.48025482879227177  1.0000
  Sb  Sb3       1.0  0.58577579  0.11061360999999996  0.4503614680376427  1.0000
  Sb  Sb4       1.0  0.4260775800000002  0.61061661  0.5099649121490486  1.0000
  Sb  Sb5       1.0  0.7658127500000003  0.93994403  0.47905577734681515  1.0000
  Sb  Sb6       1.0  0.09914609000000006  0.27327736999999996  0.4491624165921862  1.0000
  Sb  Sb7       1.0  0.32605860000000014  0.9636902700000001  0.531569239422954  1.0000
  Sb  Sb8       1.0  0.7477538500000002  0.19897348999999995  0.5006660378552006  1.0000
  Sb  Sb9       1.0  0.08108718000000006  0.5323068200000001  0.47077267710057147  1.0000
  Sb  Sb10      1.0  0.8642976800000002  0.7045671600000001  0.5320093318890563  1.0000
  Sb  Sb11      1.0  0.2343835500000001  0.03630972999999995  0.501865089300657  1.0000
  Sb  Sb12      1.0  0.5677168799999999  0.36964305999999997  0.47197172495882467  1.0000
  Sb  Sb13      1.0  0.7343063400000002  0.73222319  0.5020310261571092  1.0000
  Sb  Sb14      1.0  0.06763967000000008  0.06555651999999994  0.4721376654024801  1.0000
  Sb  Sb15      1.0  0.40030916  0.4041918  0.5302506408358546  1.0000
  Sb  Sb16      1.0  0.937489  0.16538037999999997  0.5304731227800373  1.0000
  Sb  Sb17      1.0  0.25019522999999994  0.5018779400000001  0.5006061100346314  1.0000
  Sb  Sb18      1.0  0.5835285600000002  0.8352112700000001  0.4707127456927989  1.0000
  Sb  Sb19      1.0  0.5992233000000001  0.5773639100000001  0.4489964797357341  1.0000
  Sb  Sb20      1.0  0.9256828500000002  0.90848208  0.5094914012957548  1.0000
  Sb  Sb21      1.0  0.2658899600000001  0.24403057  0.4788898404903632  1.0000
  Sb  Sb22      1.0  0.40605023  0.15388942999999997  0.5108446917272649  1.0000
  Sb  Sb23      1.0  0.7500010700000002  0.47437582000000006  0.48031475661284084  1.0000
  Sb  Sb24      1.0  0.0833344  0.80770915  0.45042139585821184  1.0000
  Rh  Rh1       1.0  0.4808495100000001  0.7556473100000001  0.4922338390854243  1.0000
  Rh  Rh2       1.0  0.8141828400000001  0.08898063999999994  0.4623404747435918  1.0000
  Rh  Rh3       1.0  0.14708336000000005  0.4385656799999999  0.5216335002058327  1.0000
  Rh  Rh4       1.0  0.6881779300000002  0.37405321999999996  0.5186823366382725  1.0000
  Rh  Rh5       1.0  0.020048329999999975  0.72025569  0.48871848374896104  1.0000
  Rh  Rh6       1.0  0.35338166000000015  0.05358901999999996  0.4588251229943321  1.0000
  Rh  Rh7       1.0  0.8526801300000002  0.55393979  0.458793666807419  1.0000
  Rh  Rh8       1.0  0.18113911000000013  0.89289798  0.5179071419761756  1.0000
  Rh  Rh9       1.0  0.5193467900000002  0.22060644999999993  0.48868702756204796  1.0000
  Rh  Rh10      1.0  0.6398767100000001  0.9167235199999999  0.5211474305533164  1.0000
  Rh  Rh11      1.0  0.98014797  0.2559980699999999  0.4922023828985112  1.0000
  Rh  Rh12      1.0  0.31348131  0.58933141  0.4623090185566787  1.0000
