data_image0
_chemical_formula_structural       COAl26Os8
_chemical_formula_sum              "C1 O1 Al26 Os8"
_cell_length_a       8.937724750240198
_cell_length_b       9.150015480003253
_cell_length_c       100.01319261
_cell_angle_alpha    91.33811734484108
_cell_angle_beta     93.0880675292686
_cell_angle_gamma    61.09015597862308

_space_group_name_H-M_alt    "P 1"
_space_group_IT_number       1

loop_
  _space_group_symop_operation_xyz
  'x, y, z'

loop_
  _atom_site_type_symbol
  _atom_site_label
  _atom_site_symmetry_multiplicity
  _atom_site_fract_x
  _atom_site_fract_y
  _atom_site_fract_z
  _atom_site_occupancy
  C   C1        1.0  0.08537243500000001  0.23020192999999997  0.5367821375789609  1.0000
  O   O1        1.0  0.045261904999999984  0.25637549000000004  0.5478416685110044  1.0000
  Al  Al1       1.0  0.47459002499999997  0.7481119199999999  0.46219443351988976  1.0000
  Al  Al2       1.0  0.3136648649999999  0.59162311  0.47415659118319015  1.0000
  Al  Al3       1.0  0.577426415  0.18498613999999997  0.4711335090042088  1.0000
  Al  Al4       1.0  0.9032746450000002  0.18345549999999997  0.4548743591896914  1.0000
  Al  Al5       1.0  0.17591466500000003  0.26844399999999996  0.46412049215321954  1.0000
  Al  Al6       1.0  0.10128784500000003  0.49024523999999997  0.4873139385971236  1.0000
  Al  Al7       1.0  0.8770514550000001  0.17869893999999997  0.4813125690221688  1.0000
  Al  Al8       1.0  0.7472300549999998  0.8331004200000001  0.4714405634824945  1.0000
  Al  Al9       1.0  0.450252345  0.008277959999999963  0.4819132338420834  1.0000
  Al  Al10      1.0  0.07307828500000003  0.83156978  0.4551814166689005  1.0000
  Al  Al11      1.0  0.799216845  0.52631068  0.4765125290870432  1.0000
  Al  Al12      1.0  0.33683983500000003  0.42493281  0.45215833148899576  1.0000
  Al  Al13      1.0  0.023453235000000003  0.83785698  0.4825138986619981  1.0000
  Al  Al14      1.0  0.7426205849999999  0.7535325  0.500079770544779  1.0000
  Al  Al15      1.0  0.5697615449999999  0.63391032  0.5107236015691794  1.0000
  Al  Al16      1.0  0.840620535  0.18386427999999996  0.509397448522154  1.0000
  Al  Al17      1.0  0.15291497500000004  0.17940694999999998  0.4915628079413254  1.0000
  Al  Al18      1.0  0.406064815  0.26287199  0.4983667444599153  1.0000
  Al  Al19      1.0  0.5031500149999999  0.38361333000000003  0.5196875547081601  1.0000
  Al  Al20      1.0  0.15159526500000003  0.21128511999999997  0.517614915973268  1.0000
  Al  Al21      1.0  0.9765467649999999  0.84605175  0.5103131262691074  1.0000
  Al  Al22      1.0  0.6515598450000001  0.039361869999999965  0.5195562433046579  1.0000
  Al  Al23      1.0  0.326995305  0.82539505  0.49134832594687633  1.0000
  Al  Al24      1.0  0.06475996499999997  0.5339328600000001  0.5136255244683883  1.0000
  Al  Al25      1.0  0.5868398350000001  0.42493281  0.4896698735000532  1.0000
  Al  Al26      1.0  0.2511096749999999  0.8713642100000001  0.5167623716519809  1.0000
  Os  Os1       1.0  0.4699858050000001  0.02483387999999996  0.455504535089937  1.0000
  Os  Os2       1.0  0.033034124999999984  0.59667499  0.46305841736102865  1.0000
  Os  Os3       1.0  0.180518895  0.9917220400000001  0.4708103875822489  1.0000
  Os  Os4       1.0  0.617470575  0.41988093000000004  0.4632565083120807  1.0000
  Os  Os5       1.0  0.721218175  0.03017900999999996  0.49256589358301134  1.0000
  Os  Os6       1.0  0.293515175  0.5932437999999999  0.5022024406739439  1.0000
  Os  Os7       1.0  0.431099835  0.98120785  0.5075578554936215  1.0000
  Os  Os8       1.0  0.875500005  0.42497813999999995  0.5012597876268994  1.0000
