data_image0
_chemical_formula_structural       COFe5Ni15Fe5Ni15
_chemical_formula_sum              "C1 O1 Fe10 Ni30"
_cell_length_a       7.889563815057856
_cell_length_b       4.98979828
_cell_length_c       106.66737911
_cell_angle_alpha    90.0
_cell_angle_beta     104.96321745106769
_cell_angle_gamma    71.56505117771357

_space_group_name_H-M_alt    "P 1"
_space_group_IT_number       1

loop_
  _space_group_symop_operation_xyz
  'x, y, z'

loop_
  _atom_site_type_symbol
  _atom_site_label
  _atom_site_symmetry_multiplicity
  _atom_site_fract_x
  _atom_site_fract_y
  _atom_site_fract_z
  _atom_site_occupancy
  C   C1        1.0  0.5056218100000001  0.027200814999999934  0.5531469886077749  1.0000
  O   O1        1.0  0.52463738  0.9727991850000001  0.5644490999070123  1.0000
  Fe  Fe1       1.0  0.4527238600000001  0.26337191499999996  0.5385225255706665  1.0000
  Fe  Fe2       1.0  0.8533285100000001  0.06328691500000007  0.5276090939149322  1.0000
  Fe  Fe3       1.0  0.049999999999999996  0.467068325  0.49284329843333785  1.0000
  Fe  Fe4       1.0  0.25000000000000006  0.8670683249999999  0.5157602584569866  1.0000
  Fe  Fe5       1.0  0.65  0.6670683249999999  0.5043017767263903  1.0000
  Ni  Ni1       1.0  0.5504619700000001  0.470935485  0.521078534082121  1.0000
  Ni  Ni2       1.0  0.9500000000000001  0.267068325  0.5100310175916885  1.0000
  Ni  Ni3       1.0  0.15263607  0.665943095  0.5328094136610266  1.0000
  Ni  Ni4       1.0  0.35000000000000003  0.06706832499999994  0.498572539298636  1.0000
  Ni  Ni5       1.0  0.74537956  0.866289765  0.5435036709595975  1.0000
  Ni  Ni6       1.0  0.25000000000000006  0.367068325  0.5157602584569866  1.0000
  Ni  Ni7       1.0  0.65  0.16706832499999996  0.5043017767263903  1.0000
  Ni  Ni8       1.0  0.85510881  0.5645633750000001  0.5273404154890489  1.0000
  Ni  Ni9       1.0  0.049999999999999996  0.967068325  0.49284329843333785  1.0000
  Ni  Ni10      1.0  0.44959167000000005  0.758883935  0.5389751469669826  1.0000
  Ni  Ni11      1.0  0.5488419  0.967427565  0.5211592372986572  1.0000
  Ni  Ni12      1.0  0.9500000000000001  0.7670683249999999  0.5100310175916885  1.0000
  Ni  Ni13      1.0  0.14977192000000003  0.16149677499999995  0.5327731441360586  1.0000
  Ni  Ni14      1.0  0.35000000000000003  0.5670683249999999  0.498572539298636  1.0000
  Ni  Ni15      1.0  0.74697391  0.35786651500000005  0.543267504823274  1.0000
  Fe  Fe6       1.0  0.45000000000000007  0.26706832500000005  0.48138482014028533  1.0000
  Fe  Fe7       1.0  0.8500000000000001  0.06706832499999993  0.46992633840968906  1.0000
  Fe  Fe8       1.0  0.049999999999999996  0.467068325  0.43555090009298775  1.0000
  Fe  Fe9       1.0  0.25000000000000006  0.8670683249999999  0.4584678601166365  1.0000
  Fe  Fe10      1.0  0.65  0.6670683249999999  0.447009381823584  1.0000
  Ni  Ni16      1.0  0.55  0.467068325  0.46419710098193473  1.0000
  Ni  Ni17      1.0  0.9500000000000001  0.267068325  0.4527386192513384  1.0000
  Ni  Ni18      1.0  0.15000000000000002  0.6670683249999999  0.4756555792749872  1.0000
  Ni  Ni19      1.0  0.35000000000000003  0.06706832499999994  0.4412801409582858  1.0000
  Ni  Ni20      1.0  0.75  0.8670683250000001  0.4871140575680397  1.0000
  Ni  Ni21      1.0  0.25000000000000006  0.367068325  0.4584678601166365  1.0000
  Ni  Ni22      1.0  0.65  0.16706832499999996  0.447009381823584  1.0000
  Ni  Ni23      1.0  0.8500000000000001  0.5670683249999999  0.46992633840968906  1.0000
  Ni  Ni24      1.0  0.049999999999999996  0.967068325  0.43555090009298775  1.0000
  Ni  Ni25      1.0  0.45000000000000007  0.767068325  0.48138482014028533  1.0000
  Ni  Ni26      1.0  0.55  0.9670683249999998  0.46419710098193473  1.0000
  Ni  Ni27      1.0  0.9500000000000001  0.7670683249999999  0.4527386192513384  1.0000
  Ni  Ni28      1.0  0.15000000000000002  0.167068325  0.4756555792749872  1.0000
  Ni  Ni29      1.0  0.35000000000000003  0.5670683249999999  0.4412801409582858  1.0000
  Ni  Ni30      1.0  0.75  0.367068325  0.4871140575680397  1.0000
