data_image0
_chemical_formula_structural       COFe4Rh8Sn4
_chemical_formula_sum              "C1 O1 Fe4 Rh8 Sn4"
_cell_length_a       4.571696581056852
_cell_length_b       4.57169658
_cell_length_c       104.9406544
_cell_angle_alpha    90.0
_cell_angle_beta     90.0
_cell_angle_gamma    100.8776578394617

_space_group_name_H-M_alt    "P 1"
_space_group_IT_number       1

loop_
  _space_group_symop_operation_xyz
  'x, y, z'

loop_
  _atom_site_type_symbol
  _atom_site_label
  _atom_site_symmetry_multiplicity
  _atom_site_fract_x
  _atom_site_fract_y
  _atom_site_fract_z
  _atom_site_occupancy
  C   C1        1.0  0.250312985  0.24977671999999995  0.5449475836307789  1.0000
  O   O1        1.0  0.249787275  0.2500785599999999  0.5566240155963816  1.0000
  Fe  Fe1       1.0  0.249802625  0.2501113699999999  0.5271063554731682  1.0000
  Fe  Fe2       1.0  0.7499453150000001  0.7499752199999998  0.4988687059781548  1.0000
  Fe  Fe3       1.0  0.249945315  0.24997521999999991  0.471122343526105  1.0000
  Fe  Fe4       1.0  0.7499453150000001  0.7499752199999998  0.4433759844036184  1.0000
  Rh  Rh1       1.0  0.749766655  0.2499199999999999  0.5385476936383766  1.0000
  Rh  Rh2       1.0  0.250023285  0.7499014299999998  0.5120897023477922  1.0000
  Rh  Rh3       1.0  0.249961995  0.7500759799999999  0.5385481198224698  1.0000
  Rh  Rh4       1.0  0.749961945  0.2498499299999999  0.5120900020084826  1.0000
  Rh  Rh5       1.0  0.7499453150000001  0.24997521999999997  0.4849955247521299  1.0000
  Rh  Rh6       1.0  0.249945315  0.7499752199999999  0.45724916562964335  1.0000
  Rh  Rh7       1.0  0.249945315  0.7499752199999999  0.4849955247521299  1.0000
  Rh  Rh8       1.0  0.7499453150000001  0.24997521999999997  0.45724916562964335  1.0000
  Sn  Sn1       1.0  0.249945315  0.24997521999999991  0.4988687059781548  1.0000
  Sn  Sn2       1.0  0.7502127249999999  0.7502232799999999  0.5261145385197205  1.0000
  Sn  Sn3       1.0  0.249945315  0.24997521999999991  0.4433759844036184  1.0000
  Sn  Sn4       1.0  0.7499453150000001  0.7499752199999998  0.471122343526105  1.0000
