data_image0
_chemical_formula_structural       COIn8Pt24
_chemical_formula_sum              "C1 O1 In8 Pt24"
_cell_length_a       5.76204179
_cell_length_b       7.05703113
_cell_length_c       109.92059653999999
_cell_angle_alpha    90.0
_cell_angle_beta     90.0
_cell_angle_gamma    90.0

_space_group_name_H-M_alt    "P 1"
_space_group_IT_number       1

loop_
  _space_group_symop_operation_xyz
  'x, y, z'

loop_
  _atom_site_type_symbol
  _atom_site_label
  _atom_site_symmetry_multiplicity
  _atom_site_fract_x
  _atom_site_fract_y
  _atom_site_fract_z
  _atom_site_occupancy
  C   C1        1.0  0.88454059  0.38960979  0.5567182815915098  1.0000
  O   O1        1.0  0.90452714  0.33018400000000003  0.5665799410193412  1.0000
  In  In1       1.0  0.10269365  0.16089105  0.48638332257517675  1.0000
  In  In2       1.0  0.60269365  0.16089105  0.44098623845651375  1.0000
  In  In3       1.0  0.10269365  0.82755772  0.4561186010399903  1.0000
  In  In4       1.0  0.60269365  0.49422439  0.4712509636234669  1.0000
  In  In5       1.0  0.10118858  0.83950358  0.5468961793668959  1.0000
  In  In6       1.0  0.60269365  0.82755772  0.5015156851586533  1.0000
  In  In7       1.0  0.10269365  0.49422439  0.5166480477421299  1.0000
  In  In8       1.0  0.59375667  0.16432831000000003  0.532999692474399  1.0000
  Pt  Pt1       1.0  0.10269365  0.16089105  0.44098623845651375  1.0000
  Pt  Pt2       1.0  0.60269365  0.82755772  0.4561186010399903  1.0000
  Pt  Pt3       1.0  0.10269365  0.49422439  0.4712509636234669  1.0000
  Pt  Pt4       1.0  0.60269365  0.16089105  0.48638332257517675  1.0000
  Pt  Pt5       1.0  0.35269364999999997  0.49422439  0.4485524215641354  1.0000
  Pt  Pt6       1.0  0.8526936500000001  0.16089105  0.4636847805158453  1.0000
  Pt  Pt7       1.0  0.35269364999999997  0.82755772  0.47881714309932183  1.0000
  Pt  Pt8       1.0  0.8526936500000001  0.82755772  0.43342005898065883  1.0000
  Pt  Pt9       1.0  0.8526936500000001  0.49422439  0.4485524215641354  1.0000
  Pt  Pt10      1.0  0.35269364999999997  0.16089105  0.4636847805158453  1.0000
  Pt  Pt11      1.0  0.8526936500000001  0.82755772  0.47881714309932183  1.0000
  Pt  Pt12      1.0  0.35269364999999997  0.82755772  0.43342005898065883  1.0000
  Pt  Pt13      1.0  0.10269365  0.82755772  0.5015156851586533  1.0000
  Pt  Pt14      1.0  0.60269365  0.49422439  0.5166480477421299  1.0000
  Pt  Pt15      1.0  0.09547285999999999  0.16049642000000003  0.53166538500975  1.0000
  Pt  Pt16      1.0  0.5905871699999999  0.8180929500000002  0.5449612321616898  1.0000
  Pt  Pt17      1.0  0.35269364999999997  0.16089105  0.5090818646345082  1.0000
  Pt  Pt18      1.0  0.8562236400000001  0.8240765099999999  0.5240320396399998  1.0000
  Pt  Pt19      1.0  0.33652419  0.49448877  0.5384129170518097  1.0000
  Pt  Pt20      1.0  0.8526936500000001  0.49422439  0.4939495056827984  1.0000
  Pt  Pt21      1.0  0.8526936500000001  0.16089105  0.5090818646345082  1.0000
  Pt  Pt22      1.0  0.35031148  0.83476938  0.5236772378211287  1.0000
  Pt  Pt23      1.0  0.83921857  0.48883751999999997  0.5411569855666797  1.0000
  Pt  Pt24      1.0  0.35269364999999997  0.49422439  0.4939495056827984  1.0000
