data_image0
_chemical_formula_structural       COAl6Co3Ir3Al6Co3Ir3Al6Co3Ir3Al6Co3Ir3
_chemical_formula_sum              "C1 O1 Al24 Co12 Ir12"
_cell_length_a       8.384234371221641
_cell_length_b       8.38423438
_cell_length_c       100.80564416
_cell_angle_alpha    90.0
_cell_angle_beta     90.0
_cell_angle_gamma    119.99999995572537

_space_group_name_H-M_alt    "P 1"
_space_group_IT_number       1

loop_
  _space_group_symop_operation_xyz
  'x, y, z'

loop_
  _atom_site_type_symbol
  _atom_site_label
  _atom_site_symmetry_multiplicity
  _atom_site_fract_x
  _atom_site_fract_y
  _atom_site_fract_z
  _atom_site_occupancy
  C   C1        1.0  0.430002525  0.26210310500000006  0.5454885984354112  1.0000
  O   O1        1.0  0.42759422500000005  0.26450365500000006  0.5572653340703706  1.0000
  Al  Al1       1.0  0.433706075  0.25840188500000005  0.4512233979377314  1.0000
  Al  Al2       1.0  0.10037274500000001  0.09173521500000001  0.4851783381939166  1.0000
  Al  Al3       1.0  0.26624550500000005  0.42584550499999996  0.5208836958866536  1.0000
  Al  Al4       1.0  0.26703941500000006  0.425068545  0.468200868065824  1.0000
  Al  Al5       1.0  0.433706075  0.25840188500000005  0.5021558052660647  1.0000
  Al  Al6       1.0  0.066293925  0.07479455500000001  0.5355809517250573  1.0000
  Co  Co1       1.0  0.26703941500000006  0.425068545  0.4936670702020185  1.0000
  Co  Co2       1.0  0.4329659050000001  0.25914428500000003  0.5281790296638651  1.0000
  Co  Co3       1.0  0.10037274500000001  0.09173521500000001  0.4597121330017777  1.0000
  Ir  Ir1       1.0  0.10446335500000001  0.09385869500000002  0.5104136453966429  1.0000
  Ir  Ir2       1.0  0.26703941500000006  0.425068545  0.4427346659296295  1.0000
  Ir  Ir3       1.0  0.433706075  0.25840188500000005  0.4766896031298703  1.0000
  Al  Al7       1.0  0.433706075  0.758401885  0.4512233979377314  1.0000
  Al  Al8       1.0  0.10037274500000001  0.591735215  0.4851783381939166  1.0000
  Al  Al9       1.0  0.266576895  0.9243539749999999  0.5209275028493205  1.0000
  Al  Al10      1.0  0.26703941500000006  0.925068545  0.468200868065824  1.0000
  Al  Al11      1.0  0.433706075  0.758401885  0.5021558052660647  1.0000
  Al  Al12      1.0  0.09999498500000001  0.5921235249999999  0.5356003753075276  1.0000
  Co  Co4       1.0  0.26703941500000006  0.925068545  0.4936670702020185  1.0000
  Co  Co5       1.0  0.43384819500000005  0.7586894950000002  0.5266259498355602  1.0000
  Co  Co6       1.0  0.10037274500000001  0.591735215  0.4597121330017777  1.0000
  Ir  Ir4       1.0  0.10026117500000001  0.5918659650000001  0.5101955487582324  1.0000
  Ir  Ir5       1.0  0.26703941500000006  0.925068545  0.4427346659296295  1.0000
  Ir  Ir6       1.0  0.433706075  0.758401885  0.4766896031298703  1.0000
  Al  Al13      1.0  0.933706075  0.25840188500000005  0.4512233979377314  1.0000
  Al  Al14      1.0  0.600372745  0.09173521500000001  0.4851783381939166  1.0000
  Al  Al15      1.0  0.767769975  0.42552902500000006  0.5209279642969218  1.0000
  Al  Al16      1.0  0.7670394150000002  0.425068545  0.468200868065824  1.0000
  Al  Al17      1.0  0.933706075  0.25840188500000005  0.5021558052660647  1.0000
  Al  Al18      1.0  0.6171818649999999  0.074911345  0.5356230504148165  1.0000
  Co  Co7       1.0  0.7670394150000002  0.425068545  0.4936670702020185  1.0000
  Co  Co8       1.0  0.933419985  0.25826890500000016  0.5266252805837413  1.0000
  Co  Co9       1.0  0.600372745  0.09173521500000001  0.4597121330017777  1.0000
  Ir  Ir7       1.0  0.598194335  0.09391884499999999  0.5104325280769582  1.0000
  Ir  Ir8       1.0  0.7670394150000002  0.425068545  0.4427346659296295  1.0000
  Ir  Ir9       1.0  0.933706075  0.25840188500000005  0.4766896031298703  1.0000
  Al  Al19      1.0  0.933706075  0.7584018850000002  0.4512233979377314  1.0000
  Al  Al20      1.0  0.600372745  0.591735215  0.4851783381939166  1.0000
  Al  Al21      1.0  0.7669164350000002  0.9252054450000001  0.5191282972607647  1.0000
  Al  Al22      1.0  0.7670394150000002  0.925068545  0.468200868065824  1.0000
  Al  Al23      1.0  0.933706075  0.7584018850000002  0.5021558052660647  1.0000
  Al  Al24      1.0  0.617299145  0.625809165  0.5355803894312916  1.0000
  Co  Co10      1.0  0.7670394150000002  0.925068545  0.4936670702020185  1.0000
  Co  Co11      1.0  0.9334436150000001  0.758653915  0.5266123080998542  1.0000
  Co  Co12      1.0  0.600372745  0.591735215  0.4597121330017777  1.0000
  Ir  Ir10      1.0  0.5982564050000001  0.587644185  0.5104134956553684  1.0000
  Ir  Ir11      1.0  0.7670394150000002  0.925068545  0.4427346659296295  1.0000
  Ir  Ir12      1.0  0.933706075  0.7584018850000002  0.4766896031298703  1.0000
