data_image0
_chemical_formula_structural       COAl6Cu6Pd12
_chemical_formula_sum              "C1 O1 Al6 Cu6 Pd12"
_cell_length_a       7.49926132963537
_cell_length_b       6.12312124
_cell_length_c       102.97401699
_cell_angle_alpha    90.0
_cell_angle_beta     85.65224688106323
_cell_angle_gamma    114.0948425724869

_space_group_name_H-M_alt    "P 1"
_space_group_IT_number       1

loop_
  _space_group_symop_operation_xyz
  'x, y, z'

loop_
  _atom_site_type_symbol
  _atom_site_label
  _atom_site_symmetry_multiplicity
  _atom_site_fract_x
  _atom_site_fract_y
  _atom_site_fract_z
  _atom_site_occupancy
  C   C1        1.0  0.39219060999999994  0.22804765499999996  0.5384814278305218  1.0000
  O   O1        1.0  0.38505907999999994  0.22446558499999997  0.5499541737129447  1.0000
  Al  Al1       1.0  0.35416666999999996  0.20919038499999995  0.4767305672471005  1.0000
  Al  Al2       1.0  0.5301572699999999  0.7971899349999999  0.5044931517734386  1.0000
  Al  Al3       1.0  0.18749999999999994  0.6258570549999999  0.4500458262870552  1.0000
  Al  Al4       1.0  0.9375  0.500857055  0.4900729345249545  1.0000
  Al  Al5       1.0  0.10142104999999997  0.08288998499999994  0.5153071443171567  1.0000
  Al  Al6       1.0  0.7708333399999999  0.917523715  0.4633881967670778  1.0000
  Cu  Cu1       1.0  0.35416666999999996  0.7091903849999999  0.4767305672471005  1.0000
  Cu  Cu2       1.0  0.5309969999999999  0.2977389649999999  0.5032495255313303  1.0000
  Cu  Cu3       1.0  0.18749999999999994  0.12585705499999994  0.4500458262870552  1.0000
  Cu  Cu4       1.0  0.9375  0.0008570549999999955  0.4900729345249545  1.0000
  Cu  Cu5       1.0  0.11153750999999998  0.587938385  0.5172071895170173  1.0000
  Cu  Cu6       1.0  0.7708333399999999  0.4175237149999999  0.4633881967670778  1.0000
  Pd  Pd1       1.0  0.8212858699999999  0.1927107349999999  0.5099918261340057  1.0000
  Pd  Pd2       1.0  0.47916666999999996  0.02169038499999995  0.4567170131281509  1.0000
  Pd  Pd3       1.0  0.64583334  0.605023715  0.4834017508860275  1.0000
  Pd  Pd4       1.0  0.82112717  0.6935012949999999  0.5099992903891499  1.0000
  Pd  Pd5       1.0  0.47916666999999996  0.521690385  0.4567170131281509  1.0000
  Pd  Pd6       1.0  0.64583334  0.10502371499999998  0.4834017508860275  1.0000
  Pd  Pd7       1.0  0.23663751999999996  0.895787135  0.4966099056688754  1.0000
  Pd  Pd8       1.0  0.38483414999999993  0.4498681149999999  0.5233321152043999  1.0000
  Pd  Pd9       1.0  0.06249999999999998  0.31335705499999994  0.4700593804060048  1.0000
  Pd  Pd10      1.0  0.23688027999999997  0.40505704499999995  0.4966015031783141  1.0000
  Pd  Pd11      1.0  0.38500349999999994  0.9991429449999999  0.523315002815086  1.0000
  Pd  Pd12      1.0  0.06249999999999998  0.813357055  0.4700593804060048  1.0000
