data_image0
_chemical_formula_structural       COGa6Cu18Ga6Cu18
_chemical_formula_sum              "C1 O1 Ga12 Cu36"
_cell_length_a       9.1903814
_cell_length_b       6.829547286142966
_cell_length_c       104.14773641
_cell_angle_alpha    84.57323224891495
_cell_angle_beta     90.0
_cell_angle_gamma    47.71338390245275

_space_group_name_H-M_alt    "P 1"
_space_group_IT_number       1

loop_
  _space_group_symop_operation_xyz
  'x, y, z'

loop_
  _atom_site_type_symbol
  _atom_site_label
  _atom_site_symmetry_multiplicity
  _atom_site_fract_x
  _atom_site_fract_y
  _atom_site_fract_z
  _atom_site_occupancy
  C   C1        1.0  0.7208240349999999  0.33851746499999996  0.5619724622202951  1.0000
  O   O1        1.0  0.7594818849999999  0.322416695  0.573013535864481  1.0000
  Ga  Ga1       1.0  0.7518191949999999  0.837207635  0.4707898569997838  1.0000
  Ga  Ga2       1.0  0.08515252499999994  0.17054097499999998  0.4489313322448102  1.0000
  Ga  Ga3       1.0  0.4184858650000001  0.503874305  0.4270728107686151  1.0000
  Ga  Ga4       1.0  0.585152525  0.503874305  0.4598605962616863  1.0000
  Ga  Ga5       1.0  0.9184858650000002  0.837207635  0.43800207150671266  1.0000
  Ga  Ga6       1.0  0.251819195  0.17054097499999998  0.48171911773788134  1.0000
  Cu  Cu1       1.0  0.7505024549999999  0.671857705  0.4488449888904928  1.0000
  Cu  Cu2       1.0  0.08383579499999995  0.005191044999999985  0.4269864641355191  1.0000
  Cu  Cu3       1.0  0.417169125  0.338524375  0.4707035103666879  1.0000
  Cu  Cu4       1.0  0.918485865  0.33589090499999996  0.47087620363287985  1.0000
  Cu  Cu5       1.0  0.25181919500000005  0.669224235  0.4490176788779062  1.0000
  Cu  Cu6       1.0  0.5851525249999999  0.0025575650000000394  0.4271591541229326  1.0000
  Cu  Cu7       1.0  0.08646926499999995  0.503874305  0.4598605962616863  1.0000
  Cu  Cu8       1.0  0.41980259500000006  0.837207635  0.43800207150671266  1.0000
  Cu  Cu9       1.0  0.7531359350000002  0.17054097499999998  0.48171911773788134  1.0000
  Cu  Cu10      1.0  0.5864692649999999  0.669224235  0.48180546437097743  1.0000
  Cu  Cu11      1.0  0.919802595  0.0025575650000000394  0.4599469396160038  1.0000
  Cu  Cu12      1.0  0.2531359349999999  0.33589090499999996  0.4380884181398086  1.0000
  Cu  Cu13      1.0  0.41848586499999996  0.005191044999999985  0.45977424962859037  1.0000
  Cu  Cu14      1.0  0.7518191949999999  0.338524375  0.43791572487361674  1.0000
  Cu  Cu15      1.0  0.08515252499999998  0.671857705  0.481632774383564  1.0000
  Cu  Cu16      1.0  0.250502455  0.837207635  0.4707898569997838  1.0000
  Cu  Cu17      1.0  0.5838357949999999  0.17054097499999998  0.4489313322448102  1.0000
  Cu  Cu18      1.0  0.9171691249999998  0.503874305  0.4270728107686151  1.0000
  Ga  Ga7       1.0  0.7370190249999998  0.8399605849999998  0.539083745245129  1.0000
  Ga  Ga8       1.0  0.08515252499999994  0.17054097499999998  0.5145069032309526  1.0000
  Ga  Ga9       1.0  0.4184858650000001  0.503874305  0.4926483817547575  1.0000
  Ga  Ga10      1.0  0.582266235  0.5024298450000001  0.5252761694121796  1.0000
  Ga  Ga11      1.0  0.9184858650000002  0.837207635  0.5035776424928551  1.0000
  Ga  Ga12      1.0  0.26378501499999996  0.158202165  0.5469977100781418  1.0000
  Cu  Cu19      1.0  0.7505024549999999  0.671857705  0.5144205598766353  1.0000
  Cu  Cu20      1.0  0.08383579499999995  0.005191044999999985  0.4925620351216615  1.0000
  Cu  Cu21      1.0  0.41410276499999993  0.34370162499999996  0.5363027836429631  1.0000
  Cu  Cu22      1.0  0.9201100849999998  0.34775627499999995  0.536349155407986  1.0000
  Cu  Cu23      1.0  0.25181919500000005  0.669224235  0.5145932498640486  1.0000
  Cu  Cu24      1.0  0.5851525249999999  0.0025575650000000394  0.49273472510907496  1.0000
  Cu  Cu25      1.0  0.08624078499999985  0.5024747650000001  0.524795589003872  1.0000
  Cu  Cu26      1.0  0.41980259500000006  0.837207635  0.5035776424928551  1.0000
  Cu  Cu27      1.0  0.765685245  0.15702750499999996  0.5470084644717835  1.0000
  Cu  Cu28      1.0  0.5736983649999999  0.653693005  0.5471238905918333  1.0000
  Cu  Cu29      1.0  0.9164757549999999  0.006323604999999986  0.5256972924502741  1.0000
  Cu  Cu30      1.0  0.2531359349999999  0.33589090499999996  0.5036639891259511  1.0000
  Cu  Cu31      1.0  0.42581769499999994  0.997442435  0.5249893057981222  1.0000
  Cu  Cu32      1.0  0.7518191949999999  0.338524375  0.503491295859759  1.0000
  Cu  Cu33      1.0  0.07988991499999995  0.6559272349999999  0.5459238871517939  1.0000
  Cu  Cu34      1.0  0.238793425  0.8444957249999999  0.5369382732226113  1.0000
  Cu  Cu35      1.0  0.5838357949999999  0.17054097499999998  0.5145069032309526  1.0000
  Cu  Cu36      1.0  0.9171691249999998  0.503874305  0.4926483817547575  1.0000
