data_image0
_chemical_formula_structural       COCu3Ni3Sb6Cu3Ni3Sb6Cu3Ni3Sb6Cu3Ni3Sb6
_chemical_formula_sum              "C1 O1 Cu12 Ni12 Sb24"
_cell_length_a       8.286084936837579
_cell_length_b       9.779780472183203
_cell_length_c       109.86714597
_cell_angle_alpha    81.3081411639657
_cell_angle_beta     71.83445088588576
_cell_angle_gamma    64.93580206326033

_space_group_name_H-M_alt    "P 1"
_space_group_IT_number       1

loop_
  _space_group_symop_operation_xyz
  'x, y, z'

loop_
  _atom_site_type_symbol
  _atom_site_label
  _atom_site_symmetry_multiplicity
  _atom_site_fract_x
  _atom_site_fract_y
  _atom_site_fract_z
  _atom_site_occupancy
  C   C1        1.0  0.43367604999999987  0.03951019  0.554925566820743  1.0000
  O   O1        1.0  0.3864330599999999  0.059904030000000004  0.56584532278377  1.0000
  Cu  Cu1       1.0  0.34318835999999986  0.6765217  0.4365387197255107  1.0000
  Cu  Cu2       1.0  0.009855029999999878  0.009855030000000002  0.47685725901357306  1.0000
  Cu  Cu3       1.0  0.17652169999999984  0.34318835999999997  0.45669799118387616  1.0000
  Ni  Ni1       1.0  0.17652169999999984  0.84318836  0.45669799118387616  1.0000
  Ni  Ni2       1.0  0.34318835999999986  0.17652169999999998  0.4365387197255107  1.0000
  Ni  Ni3       1.0  0.009855029999999888  0.50985503  0.476857259013573  1.0000
  Sb  Sb1       1.0  0.029565089999999915  0.6568116399999999  0.4543139486745955  1.0000
  Sb  Sb2       1.0  0.19623176  0.9901449699999998  0.4341546772162301  1.0000
  Sb  Sb3       1.0  0.36289841999999994  0.32347831  0.47447321650429247  1.0000
  Sb  Sb4       1.0  0.15681163999999984  0.69623175  0.47924130152285366  1.0000
  Sb  Sb5       1.0  0.3234782999999999  0.029565090000000006  0.45908203369315675  1.0000
  Sb  Sb6       1.0  0.4901449699999999  0.36289842  0.4389227622347914  1.0000
  Cu  Cu4       1.0  0.34318835999999986  0.6765217  0.49701653047193856  1.0000
  Cu  Cu5       1.0  0.010324599999999877  0.02699308  0.5356622063755196  1.0000
  Cu  Cu6       1.0  0.17225304999999985  0.34560934  0.516946666024643  1.0000
  Ni  Ni4       1.0  0.1785855399999999  0.84711508  0.5166915234513251  1.0000
  Ni  Ni5       1.0  0.34318835999999986  0.17652169999999998  0.4970165304719385  1.0000
  Ni  Ni6       1.0  0.014890919999999891  0.52093066  0.5357784072292076  1.0000
  Sb  Sb7       1.0  0.025319199999999858  0.66897062  0.5149356361299116  1.0000
  Sb  Sb8       1.0  0.19623176  0.9901449699999998  0.4946324879626579  1.0000
  Sb  Sb9       1.0  0.35725665999999995  0.34552222  0.5344485328555089  1.0000
  Sb  Sb10      1.0  0.15698999999999994  0.7040637399999998  0.539802176121568  1.0000
  Sb  Sb11      1.0  0.32304731999999986  0.03533804  0.5200856965743954  1.0000
  Sb  Sb12      1.0  0.4901449699999999  0.36289842  0.49940057298121915  1.0000
  Cu  Cu7       1.0  0.8431883599999999  0.6765217  0.4365387197255108  1.0000
  Cu  Cu8       1.0  0.50985503  0.009855030000000002  0.47685725901357306  1.0000
  Cu  Cu9       1.0  0.6765216999999999  0.34318835999999997  0.4566979911838761  1.0000
  Ni  Ni7       1.0  0.6765216999999999  0.84318836  0.4566979911838761  1.0000
  Ni  Ni8       1.0  0.8431883599999999  0.17652169999999998  0.43653871972551067  1.0000
  Ni  Ni9       1.0  0.50985503  0.50985503  0.47685725901357306  1.0000
  Sb  Sb13      1.0  0.5295650899999998  0.6568116399999999  0.4543139486745955  1.0000
  Sb  Sb14      1.0  0.6962317600000001  0.9901449699999998  0.4341546772162301  1.0000
  Sb  Sb15      1.0  0.8628984199999998  0.32347831  0.47447321650429247  1.0000
  Sb  Sb16      1.0  0.6568116399999999  0.69623175  0.47924130152285366  1.0000
  Sb  Sb17      1.0  0.8234782999999999  0.029565090000000006  0.45908203369315675  1.0000
  Sb  Sb18      1.0  0.9901449700000001  0.36289842  0.4389227622347914  1.0000
  Cu  Cu10      1.0  0.8431883599999999  0.6765217  0.4970165304719385  1.0000
  Cu  Cu11      1.0  0.5104819799999999  0.01382379  0.5372267939184747  1.0000
  Cu  Cu12      1.0  0.6822222199999999  0.34536652  0.5169358925076523  1.0000
  Ni  Ni10      1.0  0.6763055799999997  0.84645971  0.5173130998630708  1.0000
  Ni  Ni11      1.0  0.8431883599999999  0.17652169999999998  0.4970165304719385  1.0000
  Ni  Ni12      1.0  0.5146008699999998  0.52030826  0.5357307773255287  1.0000
  Sb  Sb19      1.0  0.52452629  0.66892747  0.514913069440061  1.0000
  Sb  Sb20      1.0  0.6962317600000001  0.9901449699999998  0.4946324879626579  1.0000
  Sb  Sb21      1.0  0.85647651  0.33438713999999997  0.5361108259284393  1.0000
  Sb  Sb22      1.0  0.6612557999999998  0.6898284  0.5401368445953146  1.0000
  Sb  Sb23      1.0  0.8179270699999999  0.03503368  0.5200496965534904  1.0000
  Sb  Sb24      1.0  0.9901449700000001  0.36289842  0.49940057298121915  1.0000
