data_image0
_chemical_formula_structural       COV6Co2V6Co2
_chemical_formula_sum              "C1 O1 V12 Co4"
_cell_length_a       4.65566661
_cell_length_b       4.65566661
_cell_length_c       102.58966627000001
_cell_angle_alpha    90.0
_cell_angle_beta     90.0
_cell_angle_gamma    90.0

_space_group_name_H-M_alt    "P 1"
_space_group_IT_number       1

loop_
  _space_group_symop_operation_xyz
  'x, y, z'

loop_
  _atom_site_type_symbol
  _atom_site_label
  _atom_site_symmetry_multiplicity
  _atom_site_fract_x
  _atom_site_fract_y
  _atom_site_fract_z
  _atom_site_occupancy
  C   C1        1.0  0.12473815499999999  0.6168884050000001  0.5386595498694159  1.0000
  O   O1        1.0  0.124738785  0.616888905  0.5504691125461457  1.0000
  V   V1        1.0  0.374736785  0.116883865  0.46087624521347603  1.0000
  V   V2        1.0  0.874736785  0.116883865  0.46087624521347603  1.0000
  V   V3        1.0  0.124736785  0.6168838649999999  0.44953088745385444  1.0000
  V   V4        1.0  0.124736785  0.6168838649999999  0.47222160614979836  1.0000
  V   V5        1.0  0.624736785  0.366883865  0.4835669670861206  1.0000
  V   V6        1.0  0.624736785  0.866883865  0.4835669670861206  1.0000
  Co  Co1       1.0  0.624736785  0.6168838649999999  0.46087624521347603  1.0000
  Co  Co2       1.0  0.124736785  0.116883865  0.4835669670861206  1.0000
  V   V7        1.0  0.374210245  0.116884045  0.5058548070716024  1.0000
  V   V8        1.0  0.875263325  0.116884065  0.5058548038949017  1.0000
  V   V9        1.0  0.124736785  0.6168838649999999  0.49491232484574227  1.0000
  V   V10       1.0  0.12473677500000001  0.6168839950000001  0.5194373213420869  1.0000
  V   V11       1.0  0.6247366249999999  0.350652315  0.527915382713667  1.0000
  V   V12       1.0  0.6247366849999999  0.883116135  0.5279153954204698  1.0000
  Co  Co3       1.0  0.624736905  0.6168840950000001  0.5065277593438582  1.0000
  Co  Co4       1.0  0.124736675  0.116883865  0.5274969032261606  1.0000
