data_image0
_chemical_formula_structural       COGa18Pt30
_chemical_formula_sum              "C1 O1 Ga18 Pt30"
_cell_length_a       11.030678205290256
_cell_length_b       9.106893610648228
_cell_length_c       101.3850372
_cell_angle_alpha    87.28005848453371
_cell_angle_beta     88.14633306963286
_cell_angle_gamma    108.67533670969395

_space_group_name_H-M_alt    "P 1"
_space_group_IT_number       1

loop_
  _space_group_symop_operation_xyz
  'x, y, z'

loop_
  _atom_site_type_symbol
  _atom_site_label
  _atom_site_symmetry_multiplicity
  _atom_site_fract_x
  _atom_site_fract_y
  _atom_site_fract_z
  _atom_site_occupancy
  C   C1        1.0  0.598035375  0.16902982500000005  0.5329921674566529  1.0000
  O   O1        1.0  0.621320105  0.22944196500000005  0.5431768768369358  1.0000
  Ga  Ga1       1.0  0.3853249650000001  0.005770924999999982  0.4589539368662009  1.0000
  Ga  Ga2       1.0  0.888360195  0.175318215  0.5124185022484252  1.0000
  Ga  Ga3       1.0  0.13532496500000005  0.08910426500000003  0.4847508399214403  1.0000
  Ga  Ga4       1.0  0.706687685  0.8507675750000001  0.4773870897683953  1.0000
  Ga  Ga5       1.0  0.17186911500000004  0.994229075  0.5279700897160685  1.0000
  Ga  Ga6       1.0  0.4507139350000001  0.935742855  0.5022147516595826  1.0000
  Ga  Ga7       1.0  0.5639622350000001  0.32744094500000004  0.49211458697885724  1.0000
  Ga  Ga8       1.0  0.813962235  0.24410761500000003  0.4663176870192459  1.0000
  Ga  Ga9       1.0  0.30880222500000004  0.408674065  0.5182997282346384  1.0000
  Ga  Ga10      1.0  0.510324965  0.6307709250000001  0.497649288353432  1.0000
  Ga  Ga11      1.0  0.760324965  0.5474375950000001  0.4718523883938206  1.0000
  Ga  Ga12      1.0  0.2587115650000001  0.7179434449999998  0.5248549250880312  1.0000
  Ga  Ga13      1.0  0.8408488749999999  0.46562704499999996  0.5175764842546889  1.0000
  Ga  Ga14      1.0  0.08168768500000002  0.392434245  0.4902855412960151  1.0000
  Ga  Ga15      1.0  0.33168768500000007  0.309100915  0.46448864133640366  1.0000
  Ga  Ga16      1.0  0.928194725  0.865723485  0.5039160160049296  1.0000
  Ga  Ga17      1.0  0.18896223500000003  0.7857742849999999  0.47921613854686557  1.0000
  Ga  Ga18      1.0  0.678816725  0.8920615550000001  0.5308859639970623  1.0000
  Pt  Pt1       1.0  0.3658892350000001  0.16101963500000002  0.5135441685969575  1.0000
  Pt  Pt2       1.0  0.635324965  0.08910426500000003  0.48475083992144036  1.0000
  Pt  Pt3       1.0  0.885324965  0.00577092499999976  0.45895393686620084  1.0000
  Pt  Pt4       1.0  0.5582064750000001  0.4361995350000001  0.5148092558447124  1.0000
  Pt  Pt5       1.0  0.822824965  0.35993759500000005  0.4912000641374361  1.0000
  Pt  Pt6       1.0  0.07282496500000002  0.276604265  0.4654031641778248  1.0000
  Pt  Pt7       1.0  0.6879068650000001  0.8964295949999997  0.5037827925532012  1.0000
  Pt  Pt8       1.0  0.947824965  0.818270925  0.47830161260981635  1.0000
  Pt  Pt9       1.0  0.471746375  0.965012565  0.5275664569568912  1.0000
  Pt  Pt10      1.0  0.6672830850000001  0.19918774500000003  0.5136053289217042  1.0000
  Pt  Pt11      1.0  0.905974885  0.09598757499999995  0.48688165672020495  1.0000
  Pt  Pt12      1.0  0.15597488500000004  0.012654235000000022  0.4610847536649655  1.0000
  Pt  Pt13      1.0  0.3646750350000001  0.08222095500000003  0.48262002312267577  1.0000
  Pt  Pt14      1.0  0.6146750350000001  0.998887625  0.4568231231630644  1.0000
  Pt  Pt15      1.0  0.11882218500000004  0.17398452500000003  0.5085834462056913  1.0000
  Pt  Pt16      1.0  0.7573780350000001  0.6827306550000001  0.5225634637636604  1.0000
  Pt  Pt17      1.0  0.010324965000000028  0.630770925  0.497649288353432  1.0000
  Pt  Pt18      1.0  0.2603249650000001  0.5474375950000001  0.4718523883938206  1.0000
  Pt  Pt19      1.0  0.447824965  0.818270925  0.47830161260981635  1.0000
  Pt  Pt20      1.0  0.9296713249999999  0.967357945  0.5269982822763059  1.0000
  Pt  Pt21      1.0  0.19651035500000003  0.9030740349999999  0.5029599312603832  1.0000
  Pt  Pt22      1.0  0.3228249650000001  0.35993759500000005  0.4912000641374361  1.0000
  Pt  Pt23      1.0  0.572824965  0.276604265  0.4654031641778248  1.0000
  Pt  Pt24      1.0  0.07831624500000003  0.4413712850000001  0.5164353800087274  1.0000
  Pt  Pt25      1.0  0.5309748850000001  0.554320905  0.4739832051925852  1.0000
  Pt  Pt26      1.0  0.030254685000000028  0.718887345  0.5241203882567038  1.0000
  Pt  Pt27      1.0  0.28097488500000006  0.6376542349999998  0.49978010515219656  1.0000
  Pt  Pt28      1.0  0.7396750350000001  0.623887625  0.49551847465029547  1.0000
  Pt  Pt29      1.0  0.989675035  0.540554285  0.469721571595056  1.0000
  Pt  Pt30      1.0  0.47602367500000003  0.675446665  0.5221081030586149  1.0000
