data_image0
_chemical_formula_structural       COFe2Si4Fe2Si4Fe2Si4Fe2Si4Fe2Si4Fe2Si4
_chemical_formula_sum              "C1 O1 Fe12 Si24"
_cell_length_a       5.43384568
_cell_length_b       10.673645641123656
_cell_length_c       99.88615124
_cell_angle_alpha    104.7466243364594
_cell_angle_beta     90.0
_cell_angle_gamma    90.0

_space_group_name_H-M_alt    "P 1"
_space_group_IT_number       1

loop_
  _space_group_symop_operation_xyz
  'x, y, z'

loop_
  _atom_site_type_symbol
  _atom_site_label
  _atom_site_symmetry_multiplicity
  _atom_site_fract_x
  _atom_site_fract_y
  _atom_site_fract_z
  _atom_site_occupancy
  C   C1        1.0  0.366022855  0.48985760999999994  0.5410529361236374  1.0000
  O   O1        1.0  0.360883345  0.52636457  0.5531213894984904  1.0000
  Fe  Fe1       1.0  0.126304935  0.06787575  0.47036981806663564  1.0000
  Fe  Fe2       1.0  0.126304935  0.56787575  0.456769718963987  1.0000
  Si  Si1       1.0  0.376304935  0.43151686  0.46666082742646453  1.0000
  Si  Si2       1.0  0.376304935  0.93151686  0.45306073131583735  1.0000
  Si  Si3       1.0  0.376304935  0.20423464000000002  0.46047870661213663  1.0000
  Si  Si4       1.0  0.376304935  0.7042346399999999  0.44687861050150957  1.0000
  Fe  Fe3       1.0  0.126856385  0.07093314  0.49752809805067033  1.0000
  Fe  Fe4       1.0  0.126304935  0.56787575  0.48396991417726265  1.0000
  Si  Si5       1.0  0.376304935  0.43151686  0.4938610256317616  1.0000
  Si  Si6       1.0  0.376304935  0.93151686  0.480260926529113  1.0000
  Si  Si7       1.0  0.376304935  0.20423464000000002  0.4876789048174337  1.0000
  Si  Si8       1.0  0.376304935  0.7042346399999999  0.47407880571478517  1.0000
  Fe  Fe5       1.0  0.12343401499999998  0.06607051000000001  0.5240663474026025  1.0000
  Fe  Fe6       1.0  0.126637845  0.55526667  0.5105517782266495  1.0000
  Si  Si9       1.0  0.37551327500000004  0.43871767999999994  0.5215768867750803  1.0000
  Si  Si10      1.0  0.375730745  0.93392949  0.5084206959507593  1.0000
  Si  Si11      1.0  0.375706945  0.20153264  0.5162681879019548  1.0000
  Si  Si12      1.0  0.37633642500000003  0.70101768  0.5024686316698265  1.0000
  Fe  Fe7       1.0  0.6263049350000001  0.06787575  0.47036981806663564  1.0000
  Fe  Fe8       1.0  0.6263049350000001  0.56787575  0.456769718963987  1.0000
  Si  Si13      1.0  0.876304935  0.43151686  0.46666082742646453  1.0000
  Si  Si14      1.0  0.876304935  0.93151686  0.45306073131583735  1.0000
  Si  Si15      1.0  0.876304935  0.20423464000000002  0.46047870661213663  1.0000
  Si  Si16      1.0  0.876304935  0.7042346399999999  0.44687861050150957  1.0000
  Fe  Fe9       1.0  0.6253153450000001  0.07065743  0.49751865223878416  1.0000
  Fe  Fe10      1.0  0.6263049350000001  0.56787575  0.48396991417726265  1.0000
  Si  Si17      1.0  0.876304935  0.43151686  0.4938610256317616  1.0000
  Si  Si18      1.0  0.876304935  0.93151686  0.480260926529113  1.0000
  Si  Si19      1.0  0.876304935  0.20423464000000002  0.4876789048174337  1.0000
  Si  Si20      1.0  0.876304935  0.7042346399999999  0.47407880571478517  1.0000
  Fe  Fe11      1.0  0.627944375  0.06634279  0.524058783572242  1.0000
  Fe  Fe12      1.0  0.6253692550000001  0.55493085  0.5105870840803896  1.0000
  Si  Si21      1.0  0.876565985  0.43484481  0.5207750010760023  1.0000
  Si  Si22      1.0  0.8755285250000001  0.93336957  0.5082100546448999  1.0000
  Si  Si23      1.0  0.876009755  0.20291235000000002  0.5162259315822625  1.0000
  Si  Si24      1.0  0.8758588749999999  0.7000683699999999  0.5022946306592974  1.0000
