data_image0
_chemical_formula_structural       COV6Pd2V6Pd2
_chemical_formula_sum              "C1 O1 V12 Pd4"
_cell_length_a       4.82371655
_cell_length_b       4.82371655
_cell_length_c       103.76601585
_cell_angle_alpha    90.0
_cell_angle_beta     90.0
_cell_angle_gamma    90.0

_space_group_name_H-M_alt    "P 1"
_space_group_IT_number       1

loop_
  _space_group_symop_operation_xyz
  'x, y, z'

loop_
  _atom_site_type_symbol
  _atom_site_label
  _atom_site_symmetry_multiplicity
  _atom_site_fract_x
  _atom_site_fract_y
  _atom_site_fract_z
  _atom_site_occupancy
  C   C1        1.0  0.6250033400000001  0.5194421  0.5438804498868121  1.0000
  O   O1        1.0  0.62500631  0.5907315  0.5547500523768245  1.0000
  V   V1        1.0  0.37500073  0.12755321  0.4568715651120322  1.0000
  V   V2        1.0  0.87500073  0.12755321  0.4568715651120322  1.0000
  V   V3        1.0  0.12500073  0.6275532100000001  0.4452499476231755  1.0000
  V   V4        1.0  0.12500073  0.6275532100000001  0.4684931858549422  1.0000
  V   V5        1.0  0.62500073  0.37755321000000003  0.48011480659785233  1.0000
  V   V6        1.0  0.62500073  0.87755321  0.48011480659785233  1.0000
  Pd  Pd1       1.0  0.62500073  0.6275532100000001  0.4568715651120322  1.0000
  Pd  Pd2       1.0  0.12500073  0.12755321  0.48011480659785233  1.0000
  V   V7        1.0  0.37890145  0.12244678999999999  0.5031690917098234  1.0000
  V   V8        1.0  0.87109745  0.12244948  0.5031695765637826  1.0000
  V   V9        1.0  0.12500073  0.6275532100000001  0.491736424086709  1.0000
  V   V10       1.0  0.12499927  0.6289504800000001  0.5162994836062513  1.0000
  V   V11       1.0  0.62500455  0.40210120000000005  0.5255727646355474  1.0000
  V   V12       1.0  0.62500065  0.86474843  0.5259442311034254  1.0000
  Pd  Pd3       1.0  0.62500592  0.6255624700000001  0.502927517292213  1.0000
  Pd  Pd4       1.0  0.12500929  0.12613569  0.5260194420400647  1.0000
