data_image0
_chemical_formula_structural       CONi12Sn4Ni12Sn4
_chemical_formula_sum              "C1 O1 Ni24 Sn8"
_cell_length_a       5.36429231
_cell_length_b       11.554223227935529
_cell_length_c       104.31388888000001
_cell_angle_alpha    68.2087093126648
_cell_angle_beta     90.0
_cell_angle_gamma    62.3369387702717

_space_group_name_H-M_alt    "P 1"
_space_group_IT_number       1

loop_
  _space_group_symop_operation_xyz
  'x, y, z'

loop_
  _atom_site_type_symbol
  _atom_site_label
  _atom_site_symmetry_multiplicity
  _atom_site_fract_x
  _atom_site_fract_y
  _atom_site_fract_z
  _atom_site_occupancy
  C   C1        1.0  0.07164518000000004  0.52225057  0.5426227924425947  1.0000
  O   O1        1.0  0.1699903800000001  0.42883049999999995  0.5539730458153188  1.0000
  Ni  Ni1       1.0  0.7687381200000001  0.07800726999999996  0.4460269541846812  1.0000
  Ni  Ni2       1.0  0.7687381200000002  0.5780072699999999  0.46658623040404557  1.0000
  Ni  Ni3       1.0  0.9283548199999999  0.41839056999999996  0.45259015936661495  1.0000
  Ni  Ni4       1.0  0.9283548200000002  0.9183905699999999  0.47314943558597927  1.0000
  Ni  Ni5       1.0  0.9283548199999999  0.15781560999999997  0.4633046245235946  1.0000
  Ni  Ni6       1.0  0.9283548200000001  0.65781561  0.48386390074295893  1.0000
  Ni  Ni7       1.0  0.24758820000000004  0.33858222999999993  0.4764310414664302  1.0000
  Ni  Ni8       1.0  0.24758820000000004  0.8385822299999999  0.45587176524706596  1.0000
  Ni  Ni9       1.0  0.24758820000000004  0.07800726999999996  0.4460269541846812  1.0000
  Ni  Ni10      1.0  0.2475882000000002  0.5780072699999999  0.46658623040404557  1.0000
  Ni  Ni11      1.0  0.40720490000000004  0.41839056999999996  0.45259015936661495  1.0000
  Ni  Ni12      1.0  0.4072049000000001  0.9183905699999999  0.47314943558597927  1.0000
  Sn  Sn1       1.0  0.7546381799999999  0.3315322499999999  0.4767209239716391  1.0000
  Sn  Sn2       1.0  0.7546381800000003  0.8315322499999999  0.45616164775227475  1.0000
  Sn  Sn3       1.0  0.42130484000000007  0.16486558999999995  0.46301474201838566  1.0000
  Sn  Sn4       1.0  0.42130483999999996  0.66486559  0.48357401823775004  1.0000
  Ni  Ni13      1.0  0.7687381200000001  0.07800726999999996  0.48714550662340994  1.0000
  Ni  Ni14      1.0  0.7526728899999999  0.5832922  0.507962796825101  1.0000
  Ni  Ni15      1.0  0.9283548199999999  0.41839056999999996  0.4937087118053436  1.0000
  Ni  Ni16      1.0  0.9170317400000002  0.9218785899999999  0.5133016855949768  1.0000
  Ni  Ni17      1.0  0.9255753099999999  0.16144612999999997  0.5042895811407077  1.0000
  Ni  Ni18      1.0  0.9186165200000003  0.6702420599999999  0.5258215545470785  1.0000
  Ni  Ni19      1.0  0.22784778000000006  0.3585220599999999  0.5156593543126455  1.0000
  Ni  Ni20      1.0  0.24303593000000004  0.84349979  0.4965517208896096  1.0000
  Ni  Ni21      1.0  0.24758820000000004  0.07800726999999996  0.48714550662340994  1.0000
  Ni  Ni22      1.0  0.2546242999999999  0.58329319  0.5079564612785413  1.0000
  Ni  Ni23      1.0  0.40720490000000004  0.41839056999999996  0.4937087118053436  1.0000
  Ni  Ni24      1.0  0.41449779  0.92199273  0.5132951526793654  1.0000
  Sn  Sn5       1.0  0.75261936  0.33378221999999996  0.5182797343960713  1.0000
  Sn  Sn6       1.0  0.7564169400000003  0.8304177799999999  0.4969899591320174  1.0000
  Sn  Sn7       1.0  0.4252467300000001  0.16200572999999996  0.5053762227707481  1.0000
  Sn  Sn8       1.0  0.4040437499999999  0.68470301  0.5244356093290944  1.0000
