data_image0
_chemical_formula_structural       COV4Ir4V4Ir4V4Ir4
_chemical_formula_sum              "C1 O1 V12 Ir12"
_cell_length_a       6.469363651034862
_cell_length_b       6.77793715
_cell_length_c       101.0738692
_cell_angle_alpha    90.0
_cell_angle_beta     115.89082041300819
_cell_angle_gamma    90.0

_space_group_name_H-M_alt    "P 1"
_space_group_IT_number       1

loop_
  _space_group_symop_operation_xyz
  'x, y, z'

loop_
  _atom_site_type_symbol
  _atom_site_label
  _atom_site_symmetry_multiplicity
  _atom_site_fract_x
  _atom_site_fract_y
  _atom_site_fract_z
  _atom_site_occupancy
  C   C1        1.0  0.8042998350000001  0.14313752000000002  0.536492980749491  1.0000
  O   O1        1.0  0.886479105  0.16245582  0.5494576205470023  1.0000
  V   V1        1.0  0.685184445  0.10691396000000002  0.5152338692618182  1.0000
  V   V2        1.0  0.09504597500000003  0.10830071000000002  0.5245216644558931  1.0000
  V   V3        1.0  0.22570482500000003  0.60744336  0.5263117852962281  1.0000
  V   V4        1.0  0.615565845  0.60932724  0.5129610566167309  1.0000
  Ir  Ir1       1.0  0.8992307650000001  0.39250544000000004  0.5068251600500431  1.0000
  Ir  Ir2       1.0  0.8983245450000001  0.82278268  0.5068887841823912  1.0000
  Ir  Ir3       1.0  0.380660365  0.89340915  0.5193132475640533  1.0000
  Ir  Ir4       1.0  0.381995375  0.32040328  0.5193962494642775  1.0000
  V   V5        1.0  0.7007107050000001  0.10659085000000003  0.48675727555251347  1.0000
  V   V6        1.0  0.10919734500000002  0.10659085000000003  0.4981739996990914  1.0000
  V   V7        1.0  0.20190886500000002  0.6063756199999999  0.5013387184584855  1.0000
  V   V8        1.0  0.609197345  0.6065908499999999  0.48419958235773786  1.0000
  Ir  Ir5       1.0  0.904954025  0.39017862000000003  0.4784912172100768  1.0000
  Ir  Ir6       1.0  0.904954025  0.82300308  0.4784912172100768  1.0000
  Ir  Ir7       1.0  0.40495402500000005  0.89017862  0.4924656376258024  1.0000
  Ir  Ir8       1.0  0.40495402500000005  0.32300308000000005  0.4924656376258024  1.0000
  V   V9        1.0  0.7007107050000001  0.10659085000000003  0.4588084347210622  1.0000
  V   V10       1.0  0.10919734500000002  0.10659085000000003  0.47022516194201225  1.0000
  V   V11       1.0  0.20071070500000004  0.6065908499999999  0.4727828551367879  1.0000
  V   V12       1.0  0.609197345  0.6065908499999999  0.45625074460065884  1.0000
  Ir  Ir9       1.0  0.904954025  0.39017862000000003  0.45054237945299774  1.0000
  Ir  Ir10      1.0  0.904954025  0.82300308  0.45054237945299774  1.0000
  Ir  Ir11      1.0  0.40495402500000005  0.89017862  0.4645167998687234  1.0000
  Ir  Ir12      1.0  0.40495402500000005  0.32300308000000005  0.4645167998687234  1.0000
