data_image0
_chemical_formula_structural       COIn3Ni3In3Ni3In3Ni3In3Ni3
_chemical_formula_sum              "C1 O1 In12 Ni12"
_cell_length_a       5.333965964952409
_cell_length_b       8.8594184
_cell_length_c       107.33776175
_cell_angle_alpha    90.0
_cell_angle_beta     60.00000003071343
_cell_angle_gamma    90.0

_space_group_name_H-M_alt    "P 1"
_space_group_IT_number       1

loop_
  _space_group_symop_operation_xyz
  'x, y, z'

loop_
  _atom_site_type_symbol
  _atom_site_label
  _atom_site_symmetry_multiplicity
  _atom_site_fract_x
  _atom_site_fract_y
  _atom_site_fract_z
  _atom_site_occupancy
  C   C1        1.0  0.3836587399999999  0.38067369  0.5404878204523712  1.0000
  O   O1        1.0  0.24763837999999994  0.37143995999999996  0.5533987808618809  1.0000
  In  In1       1.0  0.67135225  0.37779765  0.46316564823253636  1.0000
  In  In2       1.0  0.33801890999999995  0.37779765  0.44660121913811907  1.0000
  In  In3       1.0  0.004685579999999982  0.12779764999999998  0.4797300773269538  1.0000
  Ni  Ni1       1.0  0.50468558  0.12779764999999998  0.4797300773269538  1.0000
  Ni  Ni2       1.0  0.004685579999999982  0.12779764999999998  0.45488343194606273  1.0000
  Ni  Ni3       1.0  0.50468558  0.12779764999999998  0.45488343194606273  1.0000
  In  In4       1.0  0.71351512  0.37757059  0.5086887416444925  1.0000
  In  In5       1.0  0.33801890999999995  0.37779765  0.4962945029428412  1.0000
  In  In6       1.0  0.001171079999999991  0.14502568999999998  0.5294230724136911  1.0000
  Ni  Ni4       1.0  0.5032457499999999  0.18923417  0.5291667917206636  1.0000
  Ni  Ni5       1.0  0.99882892  0.12220234999999999  0.5047819803237724  1.0000
  Ni  Ni6       1.0  0.5037234799999999  0.12257436999999999  0.5048056343273366  1.0000
  In  In7       1.0  0.67135225  0.8777976500000001  0.46316564823253636  1.0000
  In  In8       1.0  0.33801890999999995  0.8777976500000001  0.44660121913811907  1.0000
  In  In9       1.0  0.004685579999999982  0.62779765  0.4797300773269538  1.0000
  Ni  Ni7       1.0  0.50468558  0.62779765  0.4797300773269538  1.0000
  Ni  Ni8       1.0  0.004685579999999982  0.62779765  0.45488343194606273  1.0000
  Ni  Ni9       1.0  0.50468558  0.62779765  0.45488343194606273  1.0000
  In  In10      1.0  0.63633653  0.87703164  0.5161519971925672  1.0000
  In  In11      1.0  0.33801890999999995  0.8777976500000001  0.4962945029428412  1.0000
  In  In12      1.0  0.0006287499999999557  0.60989169  0.5294833762086599  1.0000
  Ni  Ni10      1.0  0.50244589  0.5662518700000001  0.5292416392492943  1.0000
  Ni  Ni11      1.0  0.000393809999999982  0.63324859  0.5047330026222749  1.0000
  Ni  Ni12      1.0  0.50333856  0.63293875  0.5047510283644029  1.0000
