data_image0
_chemical_formula_structural       COGa36Fe12
_chemical_formula_sum              "C1 O1 Ga36 Fe12"
_cell_length_a       14.164328788767719
_cell_length_b       6.54314798
_cell_length_c       105.83323239
_cell_angle_alpha    90.0
_cell_angle_beta     108.43494882292202
_cell_angle_gamma    90.0

_space_group_name_H-M_alt    "P 1"
_space_group_IT_number       1

loop_
  _space_group_symop_operation_xyz
  'x, y, z'

loop_
  _atom_site_type_symbol
  _atom_site_label
  _atom_site_symmetry_multiplicity
  _atom_site_fract_x
  _atom_site_fract_y
  _atom_site_fract_z
  _atom_site_occupancy
  C   C1        1.0  0.2704871000000001  0.902474025  0.5438645483882262  1.0000
  O   O1        1.0  0.29832627000000006  0.884695005  0.5555611123428311  1.0000
  Ga  Ga1       1.0  0.70745063  0.348670725  0.5200616210850879  1.0000
  Ga  Ga2       1.0  0.36459053  0.340296295  0.4638380374175405  1.0000
  Ga  Ga3       1.0  0.031257200000000034  0.340296295  0.4920532068146033  1.0000
  Ga  Ga4       1.0  0.80207614  0.355797595  0.49557766646818535  1.0000
  Ga  Ga5       1.0  0.48865047000000006  0.325235155  0.5232486193989353  1.0000
  Ga  Ga6       1.0  0.13540947000000003  0.355797595  0.4673624970711226  1.0000
  Ga  Ga7       1.0  0.90622841  0.8557975949999999  0.4444388876571691  1.0000
  Ga  Ga8       1.0  0.5728950800000001  0.8557975949999999  0.4726540604400523  1.0000
  Ga  Ga9       1.0  0.24483706000000008  0.8662350249999999  0.5022760111529613  1.0000
  Ga  Ga10      1.0  0.90622841  0.340296295  0.4444388876571691  1.0000
  Ga  Ga11      1.0  0.5728950800000001  0.340296295  0.4726540604400523  1.0000
  Ga  Ga12      1.0  0.24387932000000004  0.33060689499999996  0.5011905543565228  1.0000
  Ga  Ga13      1.0  0.9658216199999999  0.09801757500000001  0.5136553203443551  1.0000
  Ga  Ga14      1.0  0.63540947  0.09804694500000001  0.454138464230265  1.0000
  Ga  Ga15      1.0  0.30207614  0.09804694500000001  0.4823536336273278  1.0000
  Ga  Ga16      1.0  0.80207614  0.840296295  0.46912960078647026  1.0000
  Ga  Ga17      1.0  0.46906495000000004  0.834440895  0.4964765137698012  1.0000
  Ga  Ga18      1.0  0.14375306000000004  0.8255785449999998  0.5253026646268881  1.0000
  Ga  Ga19      1.0  0.63540947  0.598046945  0.4964612200187694  1.0000
  Ga  Ga20      1.0  0.31708104000000004  0.564945075  0.5251332449425565  1.0000
  Ga  Ga21      1.0  0.9687428  0.598046945  0.4682460472358862  1.0000
  Ga  Ga22      1.0  0.80207614  0.840296295  0.49557766646818535  1.0000
  Ga  Ga23      1.0  0.4830362  0.8718992349999999  0.5223618967203978  1.0000
  Ga  Ga24      1.0  0.13540947000000003  0.840296295  0.4673624970711226  1.0000
  Ga  Ga25      1.0  0.7046750100000001  0.8513509249999999  0.5200795625477218  1.0000
  Ga  Ga26      1.0  0.36459053  0.8557975949999999  0.4638380374175405  1.0000
  Ga  Ga27      1.0  0.031257200000000034  0.8557975949999999  0.4920532068146033  1.0000
  Ga  Ga28      1.0  0.80207614  0.355797595  0.46912960078647026  1.0000
  Ga  Ga29      1.0  0.46900269  0.358005315  0.4968631372226598  1.0000
  Ga  Ga30      1.0  0.13612349000000004  0.40476080500000006  0.5221721079401603  1.0000
  Ga  Ga31      1.0  0.9631424900000001  0.606870325  0.5108727785997454  1.0000
  Ga  Ga32      1.0  0.63540947  0.598046945  0.454138464230265  1.0000
  Ga  Ga33      1.0  0.30207614  0.598046945  0.4823536336273278  1.0000
  Ga  Ga34      1.0  0.63540947  0.09804694500000001  0.4964612200187694  1.0000
  Ga  Ga35      1.0  0.3113514  0.106695175  0.5273726773841447  1.0000
  Ga  Ga36      1.0  0.9687428  0.09804694500000001  0.4682460472358862  1.0000
  Fe  Fe1       1.0  0.03438836000000003  0.598046945  0.4498629720390238  1.0000
  Fe  Fe2       1.0  0.7010550200000001  0.598046945  0.4780781414360866  1.0000
  Fe  Fe3       1.0  0.36875711  0.599078115  0.5059308587525766  1.0000
  Fe  Fe4       1.0  0.5712235800000001  0.598743405  0.5144849377749622  1.0000
  Fe  Fe5       1.0  0.23643058000000003  0.598046945  0.4584139564215062  1.0000
  Fe  Fe6       1.0  0.9030972500000001  0.598046945  0.486629125818569  1.0000
  Fe  Fe7       1.0  0.7938943800000001  0.09752597500000001  0.5112690922707694  1.0000
  Fe  Fe8       1.0  0.4687428  0.09804694500000001  0.4554195740479831  1.0000
  Fe  Fe9       1.0  0.13540947000000003  0.09804694500000001  0.48363474344504576  1.0000
  Fe  Fe10      1.0  0.80207614  0.09804694500000001  0.452857354412547  1.0000
  Fe  Fe11      1.0  0.4687428  0.09804694500000001  0.4810725238096098  1.0000
  Fe  Fe12      1.0  0.13236702000000003  0.101801555  0.5100929462732273  1.0000
