data_image0
_chemical_formula_structural       COV4Pt4V4Pt4V4Pt4
_chemical_formula_sum              "C1 O1 V12 Pt12"
_cell_length_a       4.81926357
_cell_length_b       9.237753311425658
_cell_length_c       99.85537434
_cell_angle_alpha    107.0860678559635
_cell_angle_beta     90.0
_cell_angle_gamma    90.0

_space_group_name_H-M_alt    "P 1"
_space_group_IT_number       1

loop_
  _space_group_symop_operation_xyz
  'x, y, z'

loop_
  _atom_site_type_symbol
  _atom_site_label
  _atom_site_symmetry_multiplicity
  _atom_site_fract_x
  _atom_site_fract_y
  _atom_site_fract_z
  _atom_site_occupancy
  C   C1        1.0  0.062194619999999944  0.53094189  0.5357399079024932  1.0000
  O   O1        1.0  0.15771382999999994  0.5558172799999999  0.5473554273035189  1.0000
  V   V1        1.0  0.9340171  0.12522619  0.45264457269648106  1.0000
  V   V2        1.0  0.9340171  0.62522619  0.4662348537872669  1.0000
  V   V3        1.0  0.27528385999999994  0.37522618999999996  0.4594397117469433  1.0000
  V   V4        1.0  0.27528385999999994  0.8752261899999999  0.4730299928377291  1.0000
  Pt  Pt1       1.0  0.4231247999999999  0.12522619  0.4662348537872669  1.0000
  Pt  Pt2       1.0  0.4231247999999999  0.62522619  0.45264457269648106  1.0000
  Pt  Pt3       1.0  0.78617616  0.37522618999999996  0.4730299928377292  1.0000
  Pt  Pt4       1.0  0.78617616  0.8752261899999999  0.45943971174694326  1.0000
  V   V5        1.0  0.9340171  0.12522619  0.47982513188819137  1.0000
  V   V6        1.0  0.9340171  0.62522619  0.4934154129789772  1.0000
  V   V7        1.0  0.27528385999999994  0.37522618999999996  0.4866202709386535  1.0000
  V   V8        1.0  0.2735716399999999  0.87540226  0.5007281090216302  1.0000
  Pt  Pt5       1.0  0.4231247999999999  0.12522619  0.4934154129789772  1.0000
  Pt  Pt6       1.0  0.4231247999999999  0.62522619  0.47982513188819126  1.0000
  Pt  Pt7       1.0  0.7842315799999999  0.37387809999999994  0.5003867654990805  1.0000
  Pt  Pt8       1.0  0.78617616  0.8752261899999999  0.48662027093865345  1.0000
  V   V9        1.0  0.9352742599999999  0.11788641999999999  0.507095960979547  1.0000
  V   V10       1.0  0.93780538  0.60762296  0.5196450586670227  1.0000
  V   V11       1.0  0.2906905699999999  0.3798638  0.5136953328658899  1.0000
  V   V12       1.0  0.26558618999999994  0.88211358  0.5244180616716078  1.0000
  Pt  Pt9       1.0  0.4276758599999999  0.12101549999999998  0.5206868699412563  1.0000
  Pt  Pt10      1.0  0.4230049799999999  0.6250181399999999  0.5077545019028415  1.0000
  Pt  Pt11      1.0  0.7844180699999999  0.35061643  0.5269673611348069  1.0000
  Pt  Pt12      1.0  0.7926147299999998  0.86276456  0.5148367005497155  1.0000
