data_image0
_chemical_formula_structural       COCu16Pd4
_chemical_formula_sum              "C1 O1 Cu16 Pd4"
_cell_length_a       5.99054748
_cell_length_b       5.99054748
_cell_length_c       99.34148496
_cell_angle_alpha    90.0
_cell_angle_beta     90.0
_cell_angle_gamma    90.0

_space_group_name_H-M_alt    "P 1"
_space_group_IT_number       1

loop_
  _space_group_symop_operation_xyz
  'x, y, z'

loop_
  _atom_site_type_symbol
  _atom_site_label
  _atom_site_symmetry_multiplicity
  _atom_site_fract_x
  _atom_site_fract_y
  _atom_site_fract_z
  _atom_site_occupancy
  C   C1        1.0  0.09857012000000002  0.8091543150000001  0.5317114641308055  1.0000
  O   O1        1.0  0.07024976000000002  0.8563997350000001  0.542971517467364  1.0000
  Cu  Cu1       1.0  0.047211020000000034  0.048924584999999986  0.4570284825326359  1.0000
  Cu  Cu2       1.0  0.04803986000000004  0.04783108499999998  0.49394992438371566  1.0000
  Cu  Cu3       1.0  0.55568698  0.549516365  0.5124220683510118  1.0000
  Cu  Cu4       1.0  0.54721102  0.548924585  0.47548847244257536  1.0000
  Cu  Cu5       1.0  0.65114587  0.24117955499999996  0.4570284825326359  1.0000
  Cu  Cu6       1.0  0.24052694000000008  0.451095205  0.49427632358770884  1.0000
  Cu  Cu7       1.0  0.8556279400000001  0.6550180849999999  0.49420836719605316  1.0000
  Cu  Cu8       1.0  0.4432761700000001  0.8566696149999999  0.4570284825326359  1.0000
  Cu  Cu9       1.0  0.34160404  0.16252547499999997  0.5119774927220128  1.0000
  Cu  Cu10      1.0  0.14396669000000004  0.7517462549999999  0.47554404439620024  1.0000
  Cu  Cu11      1.0  0.95045535  0.346102915  0.47554404439620024  1.0000
  Cu  Cu12      1.0  0.7507495600000001  0.950262395  0.5119729087373183  1.0000
  Cu  Cu13      1.0  0.7500326900000001  0.9521689150000001  0.47543289753535206  1.0000
  Cu  Cu14      1.0  0.95278898  0.34867624499999994  0.5117493774578985  1.0000
  Cu  Cu15      1.0  0.14628639000000004  0.750844115  0.5135142322404451  1.0000
  Cu  Cu16      1.0  0.3443893500000001  0.14568025499999998  0.47543289753535206  1.0000
  Pd  Pd1       1.0  0.2547963200000001  0.446636305  0.4570284825326359  1.0000
  Pd  Pd2       1.0  0.4407625600000001  0.8422479050000001  0.4945257549713719  1.0000
  Pd  Pd3       1.0  0.64976437  0.256284235  0.4943252322233758  1.0000
  Pd  Pd4       1.0  0.8396257200000001  0.651212865  0.4570284825326359  1.0000
