data_image0
_chemical_formula_structural       COSb4Rh8Sb4Rh8
_chemical_formula_sum              "C1 O1 Sb8 Rh16"
_cell_length_a       5.86395039
_cell_length_b       9.117796689305296
_cell_length_c       103.87897183999999
_cell_angle_alpha    117.6754190626207
_cell_angle_beta     90.0
_cell_angle_gamma    90.0

_space_group_name_H-M_alt    "P 1"
_space_group_IT_number       1

loop_
  _space_group_symop_operation_xyz
  'x, y, z'

loop_
  _atom_site_type_symbol
  _atom_site_label
  _atom_site_symmetry_multiplicity
  _atom_site_fract_x
  _atom_site_fract_y
  _atom_site_fract_z
  _atom_site_occupancy
  C   C1        1.0  0.68296686  0.42093015000000006  0.5371483553643234  1.0000
  O   O1        1.0  0.7582938900000001  0.48255304000000004  0.5491671113309355  1.0000
  Sb  Sb1       1.0  0.71612828  0.10952446000000003  0.4633592732842422  1.0000
  Sb  Sb2       1.0  0.28387172000000005  0.89442372  0.4749738616401334  1.0000
  Sb  Sb3       1.0  0.21612828000000003  0.39442372000000003  0.4749738616401334  1.0000
  Sb  Sb4       1.0  0.7838717199999999  0.6095244599999999  0.46335927328424215  1.0000
  Rh  Rh1       1.0  0.15901473000000002  0.07157246000000003  0.46181207042343114  1.0000
  Rh  Rh2       1.0  0.84098527  0.9323757199999999  0.4765210645009445  1.0000
  Rh  Rh3       1.0  0.65901473  0.43237572  0.47652106450094456  1.0000
  Rh  Rh4       1.0  0.34098527000000006  0.5715724600000001  0.4618120704234311  1.0000
  Rh  Rh5       1.0  0.039058210000000024  0.70168875  0.4875002462553112  1.0000
  Rh  Rh6       1.0  0.9609417899999999  0.30225943000000005  0.4508328886690644  1.0000
  Rh  Rh7       1.0  0.53905821  0.80225943  0.4508328886690645  1.0000
  Rh  Rh8       1.0  0.46094179  0.20168875  0.48750024625531113  1.0000
  Sb  Sb5       1.0  0.7211006799999999  0.10893839000000004  0.5035387552734194  1.0000
  Sb  Sb6       1.0  0.29033999  0.90783744  0.5176731578669157  1.0000
  Sb  Sb7       1.0  0.22160206000000002  0.39639608000000004  0.5163714886641488  1.0000
  Sb  Sb8       1.0  0.7859528799999999  0.6088012999999999  0.5042052853085458  1.0000
  Rh  Rh9       1.0  0.15974464  0.06762428000000002  0.5021303179845346  1.0000
  Rh  Rh10      1.0  0.83777997  0.9277720599999999  0.5159301444821581  1.0000
  Rh  Rh11      1.0  0.68051171  0.43495201000000006  0.5184536897485844  1.0000
  Rh  Rh12      1.0  0.35051457  0.5726084899999999  0.5020284452430499  1.0000
  Rh  Rh13      1.0  0.06339116000000002  0.69704772  0.5253895907924375  1.0000
  Rh  Rh14      1.0  0.9609417899999999  0.30225943000000005  0.49160024904035093  1.0000
  Rh  Rh15      1.0  0.53905821  0.80225943  0.49160024904035093  1.0000
  Rh  Rh16      1.0  0.47137936  0.21921998  0.5264315034204738  1.0000
