data_image0
_chemical_formula_structural       COV18Au6V18Au6
_chemical_formula_sum              "C1 O1 V36 Au12"
_cell_length_a       4.88417048
_cell_length_b       10.921337207359922
_cell_length_c       111.4435608
_cell_angle_alpha    71.56505116048798
_cell_angle_beta     90.0
_cell_angle_gamma    90.0

_space_group_name_H-M_alt    "P 1"
_space_group_IT_number       1

loop_
  _space_group_symop_operation_xyz
  'x, y, z'

loop_
  _atom_site_type_symbol
  _atom_site_label
  _atom_site_symmetry_multiplicity
  _atom_site_fract_x
  _atom_site_fract_y
  _atom_site_fract_z
  _atom_site_occupancy
  C   C1        1.0  0.9847448050000001  0.21516107500000003  0.5558210899162286  1.0000
  O   O1        1.0  0.970648475  0.20481606500000005  0.5668619651824425  1.0000
  V   V1        1.0  0.021107025000000012  0.759586835  0.44346801804902497  1.0000
  V   V2        1.0  0.021107025000000012  0.4262535050000001  0.484787947256101  1.0000
  V   V3        1.0  0.021107025000000012  0.09292016500000003  0.4641279807931661  1.0000
  V   V4        1.0  0.021107025000000012  0.592920165  0.43313803481755747  1.0000
  V   V5        1.0  0.021107025000000012  0.259586835  0.4744579640246336  1.0000
  V   V6        1.0  0.021107025000000012  0.9262535049999999  0.4537980012804923  1.0000
  V   V7        1.0  0.521107025  0.759586835  0.4589629891774325  1.0000
  V   V8        1.0  0.521107025  0.4262535050000001  0.4383030264332911  1.0000
  V   V9        1.0  0.521107025  0.09292016500000003  0.4796229556403673  1.0000
  V   V10       1.0  0.521107025  0.9262535049999999  0.4383030264332911  1.0000
  V   V11       1.0  0.521107025  0.592920165  0.47962295564036733  1.0000
  V   V12       1.0  0.521107025  0.259586835  0.45896298917743245  1.0000
  V   V13       1.0  0.7711070250000001  0.509586835  0.45896298917743233  1.0000
  V   V14       1.0  0.7711070250000001  0.176253505  0.4383030264332911  1.0000
  V   V15       1.0  0.7711070250000001  0.842920165  0.47962295564036733  1.0000
  V   V16       1.0  0.271107025  0.509586835  0.45896298917743233  1.0000
  V   V17       1.0  0.271107025  0.176253505  0.4383030264332911  1.0000
  V   V18       1.0  0.271107025  0.842920165  0.47962295564036733  1.0000
  Au  Au1       1.0  0.521107025  0.6762535050000001  0.4383030264332911  1.0000
  Au  Au2       1.0  0.521107025  0.342920165  0.47962295564036733  1.0000
  Au  Au3       1.0  0.521107025  0.009586835000000021  0.45896298917743233  1.0000
  Au  Au4       1.0  0.021107025000000012  0.6762535050000001  0.46929297240889983  1.0000
  Au  Au5       1.0  0.021107025000000012  0.342920165  0.4486330096647586  1.0000
  Au  Au6       1.0  0.021107025000000012  0.009586835000000021  0.4899529388718348  1.0000
  V   V19       1.0  0.021107025000000012  0.759586835  0.5054479100002424  1.0000
  V   V20       1.0  0.01627553500000001  0.432922285  0.5435211612725448  1.0000
  V   V21       1.0  0.02105578500000001  0.09091849500000003  0.5264912320270124  1.0000
  V   V22       1.0  0.021107025000000012  0.592920165  0.4951179304875685  1.0000
  V   V23       1.0  0.01525519500000001  0.25446325500000005  0.5371361710504196  1.0000
  V   V24       1.0  0.021107025000000012  0.9262535049999999  0.5157778932317097  1.0000
  V   V25       1.0  0.521107025  0.759586835  0.5209428848474436  1.0000
  V   V26       1.0  0.521107025  0.4262535050000001  0.5002829221033022  1.0000
  V   V27       1.0  0.5273833450000001  0.09680918500000003  0.5403363454704021  1.0000
  V   V28       1.0  0.521107025  0.9262535049999999  0.5002829221033022  1.0000
  V   V29       1.0  0.5237039149999999  0.6018200150000002  0.539359462999914  1.0000
  V   V30       1.0  0.521107025  0.259586835  0.5209428848474434  1.0000
  V   V31       1.0  0.7711070250000001  0.509586835  0.5209428848474434  1.0000
  V   V32       1.0  0.7711070250000001  0.176253505  0.5002829221033022  1.0000
  V   V33       1.0  0.731294125  0.842052465  0.5415611413206225  1.0000
  V   V34       1.0  0.271107025  0.509586835  0.5209428848474434  1.0000
  V   V35       1.0  0.271107025  0.176253505  0.5002829221033022  1.0000
  V   V36       1.0  0.321905205  0.8384774749999999  0.5419114554027369  1.0000
  Au  Au7       1.0  0.521107025  0.6762535050000001  0.5002829221033022  1.0000
  Au  Au8       1.0  0.513754585  0.344019935  0.5418631185226684  1.0000
  Au  Au9       1.0  0.521107025  0.009586835000000021  0.5209428848474434  1.0000
  Au  Au10      1.0  0.02270817500000001  0.683891405  0.5322918956380139  1.0000
  Au  Au11      1.0  0.021107025000000012  0.342920165  0.510612901615976  1.0000
  Au  Au12      1.0  0.031279895000000016  0.9904131650000001  0.5523345163208663  1.0000
