data_image0
_chemical_formula_structural       COPd12V4
_chemical_formula_sum              "C1 O1 Pd12 V4"
_cell_length_a       4.804727563366874
_cell_length_b       4.80472757
_cell_length_c       103.05157642
_cell_angle_alpha    90.0
_cell_angle_beta     90.0
_cell_angle_gamma    110.04600954940815

_space_group_name_H-M_alt    "P 1"
_space_group_IT_number       1

loop_
  _space_group_symop_operation_xyz
  'x, y, z'

loop_
  _atom_site_type_symbol
  _atom_site_label
  _atom_site_symmetry_multiplicity
  _atom_site_fract_x
  _atom_site_fract_y
  _atom_site_fract_z
  _atom_site_occupancy
  C   C1        1.0  0.87197076  0.38900069999999987  0.5488084342321174  1.0000
  O   O1        1.0  0.87049602  0.3751960899999998  0.5602143026436459  1.0000
  Pd  Pd1       1.0  0.1497455  0.6420871499999998  0.5344665498770135  1.0000
  Pd  Pd2       1.0  0.63309157  0.2558210899999999  0.5065836594481715  1.0000
  Pd  Pd3       1.0  0.59478247  0.23965491999999988  0.5332986972655326  1.0000
  Pd  Pd4       1.0  0.15566697999999998  0.7436918499999998  0.5069260467323005  1.0000
  Pd  Pd5       1.0  0.13752335999999998  0.2440633199999999  0.49324044663375405  1.0000
  Pd  Pd6       1.0  0.6713964099999999  0.76887293  0.5201069388583086  1.0000
  Pd  Pd7       1.0  0.13752335999999998  0.7440633199999999  0.4798767585125828  1.0000
  Pd  Pd8       1.0  0.63752336  0.2440633199999999  0.4531493854775253  1.0000
  Pd  Pd9       1.0  0.63752336  0.2440633199999999  0.4798767585125828  1.0000
  Pd  Pd10      1.0  0.13752335999999998  0.7440633199999999  0.4531493854775253  1.0000
  Pd  Pd11      1.0  0.13752335999999998  0.2440633199999999  0.4397856973563541  1.0000
  Pd  Pd12      1.0  0.63752336  0.7440633199999999  0.46651307039141166  1.0000
  V   V1        1.0  0.12802924  0.23112706999999985  0.5185496480933258  1.0000
  V   V2        1.0  0.63752336  0.7440633199999999  0.49324044663375405  1.0000
  V   V3        1.0  0.13752335999999998  0.2440633199999999  0.46651307039141166  1.0000
  V   V4        1.0  0.63752336  0.7440633199999999  0.4397856973563541  1.0000
