data_image0
_chemical_formula_structural       COSi4Pt8Si4Pt8Si4Pt8Si4Pt8
_chemical_formula_sum              "C1 O1 Si16 Pt32"
_cell_length_a       7.99567274
_cell_length_b       12.66962192062826
_cell_length_c       101.98269099
_cell_angle_alpha    108.39372055680762
_cell_angle_beta     90.0
_cell_angle_gamma    90.0

_space_group_name_H-M_alt    "P 1"
_space_group_IT_number       1

loop_
  _space_group_symop_operation_xyz
  'x, y, z'

loop_
  _atom_site_type_symbol
  _atom_site_label
  _atom_site_symmetry_multiplicity
  _atom_site_fract_x
  _atom_site_fract_y
  _atom_site_fract_z
  _atom_site_occupancy
  C   C1        1.0  0.12421404  0.05399282999999996  0.540502754466983  1.0000
  O   O1        1.0  0.12422225  0.08510461999999995  0.5525591173820561  1.0000
  Si  Si1       1.0  0.12423357000000002  0.009364839999999952  0.4817418683349639  1.0000
  Si  Si2       1.0  0.12423357000000002  0.5093648399999999  0.46214130506809536  1.0000
  Si  Si3       1.0  0.37423356999999996  0.25936484  0.47194158670152964  1.0000
  Si  Si4       1.0  0.37423356999999996  0.75936484  0.45234102343466115  1.0000
  Pt  Pt1       1.0  0.12423357000000002  0.13436483999999996  0.46704144588481245  1.0000
  Pt  Pt2       1.0  0.12423357000000002  0.63436484  0.44744088261794396  1.0000
  Pt  Pt3       1.0  0.37423356999999996  0.13436483999999996  0.44744088261794396  1.0000
  Pt  Pt4       1.0  0.37423356999999996  0.63436484  0.46704144588481256  1.0000
  Pt  Pt5       1.0  0.37423356999999996  0.38436484  0.4572411642513782  1.0000
  Pt  Pt6       1.0  0.37423356999999996  0.88436484  0.47684172751824677  1.0000
  Pt  Pt7       1.0  0.12423357000000002  0.38436484  0.47684172751824677  1.0000
  Pt  Pt8       1.0  0.12423357000000002  0.88436484  0.45724116425137823  1.0000
  Si  Si5       1.0  0.12422907000000001  0.9906351600000001  0.521258981037284  1.0000
  Si  Si6       1.0  0.12423006  0.49818224  0.5023634390548092  1.0000
  Si  Si7       1.0  0.37321278999999996  0.23661499  0.5112424064041773  1.0000
  Si  Si8       1.0  0.372689  0.75278264  0.49199509232872946  1.0000
  Pt  Pt9       1.0  0.12423490000000001  0.11397325999999995  0.5075504882124916  1.0000
  Pt  Pt10      1.0  0.12423357000000002  0.63436484  0.48664200915168104  1.0000
  Pt  Pt11      1.0  0.37423356999999996  0.13436483999999996  0.48664200915168104  1.0000
  Pt  Pt12      1.0  0.37443524  0.6096765  0.5045391799796847  1.0000
  Pt  Pt13      1.0  0.3746374  0.37500901  0.4964756744644715  1.0000
  Pt  Pt14      1.0  0.37279632  0.8818316700000001  0.515967688243923  1.0000
  Pt  Pt15      1.0  0.12423314000000002  0.34799236  0.5138560019598036  1.0000
  Pt  Pt16      1.0  0.12423614000000001  0.87549668  0.49579363758458683  1.0000
  Si  Si9       1.0  0.62423357  0.009364839999999952  0.4817418683349639  1.0000
  Si  Si10      1.0  0.62423357  0.5093648399999999  0.46214130506809536  1.0000
  Si  Si11      1.0  0.8742335699999999  0.25936484  0.47194158670152964  1.0000
  Si  Si12      1.0  0.8742335699999999  0.75936484  0.45234102343466115  1.0000
  Pt  Pt17      1.0  0.62423357  0.13436483999999996  0.46704144588481245  1.0000
  Pt  Pt18      1.0  0.62423357  0.63436484  0.44744088261794396  1.0000
  Pt  Pt19      1.0  0.8742335699999999  0.13436483999999996  0.44744088261794396  1.0000
  Pt  Pt20      1.0  0.8742335699999999  0.63436484  0.46704144588481256  1.0000
  Pt  Pt21      1.0  0.8742335699999999  0.38436484  0.4572411642513782  1.0000
  Pt  Pt22      1.0  0.8742335699999999  0.88436484  0.47684172751824677  1.0000
  Pt  Pt23      1.0  0.62423357  0.38436484  0.47684172751824677  1.0000
  Pt  Pt24      1.0  0.62423357  0.88436484  0.45724116425137823  1.0000
  Si  Si13      1.0  0.6242782  0.9844091700000001  0.5195299636060264  1.0000
  Si  Si14      1.0  0.6242333099999999  0.49816784  0.5025276572779942  1.0000
  Si  Si15      1.0  0.8752573  0.23661297999999995  0.5112422903688427  1.0000
  Si  Si16      1.0  0.87578596  0.75277797  0.4919919217416155  1.0000
  Pt  Pt25      1.0  0.62423723  0.11503660999999996  0.5070313335813997  1.0000
  Pt  Pt26      1.0  0.62423357  0.63436484  0.48664200915168104  1.0000
  Pt  Pt27      1.0  0.8742335699999999  0.13436483999999996  0.48664200915168104  1.0000
  Pt  Pt28      1.0  0.8740292499999999  0.6096841900000001  0.5045397789728981  1.0000
  Pt  Pt29      1.0  0.8738294499999999  0.37501071999999996  0.4964756211509394  1.0000
  Pt  Pt30      1.0  0.8757104599999999  0.8817999200000001  0.5159668132747789  1.0000
  Pt  Pt31      1.0  0.62423551  0.34724632  0.5138756244757013  1.0000
  Pt  Pt32      1.0  0.6242351700000001  0.87171214  0.4953216277963096  1.0000
