data_image0
_chemical_formula_structural       COAl8Cu24
_chemical_formula_sum              "C1 O1 Al8 Cu24"
_cell_length_a       6.966072480084432
_cell_length_b       8.185193988551227
_cell_length_c       99.30988083
_cell_angle_alpha    93.29164171775403
_cell_angle_beta     93.73311474628632
_cell_angle_gamma    96.69433830267482

_space_group_name_H-M_alt    "P 1"
_space_group_IT_number       1

loop_
  _space_group_symop_operation_xyz
  'x, y, z'

loop_
  _atom_site_type_symbol
  _atom_site_label
  _atom_site_symmetry_multiplicity
  _atom_site_fract_x
  _atom_site_fract_y
  _atom_site_fract_z
  _atom_site_occupancy
  C   C1        1.0  0.26416337  0.77294266  0.5339618063675675  1.0000
  O   O1        1.0  0.31507178  0.8082122800000001  0.5454196312933821  1.0000
  Al  Al1       1.0  0.32925928000000004  0.36815237999999995  0.5228384615636281  1.0000
  Al  Al2       1.0  0.8290710900000001  0.26856905  0.46994831527917813  1.0000
  Al  Al3       1.0  0.32907109  0.64356905  0.4883942900056087  1.0000
  Al  Al4       1.0  0.8299798199999999  0.013372479999999944  0.5072272022546805  1.0000
  Al  Al5       1.0  0.9125046300000001  0.83114421  0.47302634343304834  1.0000
  Al  Al6       1.0  0.41250463000000004  0.20614420999999994  0.4914723181594788  1.0000
  Al  Al7       1.0  0.9096518800000002  0.5736883399999999  0.5096789792368425  1.0000
  Al  Al8       1.0  0.41250463000000004  0.4561442099999999  0.4545803687066179  1.0000
  Cu  Cu1       1.0  0.07956679000000001  0.08144082999999995  0.46074361746882375  1.0000
  Cu  Cu2       1.0  0.5795667900000001  0.45644082999999996  0.47918959219525414  1.0000
  Cu  Cu3       1.0  0.08354284000000001  0.82508186  0.49697159446949984  1.0000
  Cu  Cu4       1.0  0.58400927  0.19757661999999993  0.515346925539762  1.0000
  Cu  Cu5       1.0  0.16200893000000002  0.64327243  0.4637850665169724  1.0000
  Cu  Cu6       1.0  0.6620089300000002  0.018272429999999944  0.4822310412434029  1.0000
  Cu  Cu7       1.0  0.16215071  0.3996693799999999  0.49993601312719105  1.0000
  Cu  Cu8       1.0  0.6738873500000001  0.7631517400000001  0.5181153092321286  1.0000
  Cu  Cu9       1.0  0.9625629800000001  0.2894203499999999  0.5188942222420286  1.0000
  Cu  Cu10      1.0  0.45314904  0.17486975999999996  0.46533931844470955  1.0000
  Cu  Cu11      1.0  0.9531490400000001  0.54986976  0.48378529317114  1.0000
  Cu  Cu12      1.0  0.45483942000000005  0.91765835  0.5025847872167195  1.0000
  Cu  Cu13      1.0  0.7041387  0.98662752  0.45607981985695983  1.0000
  Cu  Cu14      1.0  0.20413870000000003  0.3616275199999999  0.4745257945833903  1.0000
  Cu  Cu15      1.0  0.7042132800000002  0.73463408  0.4923788891199096  1.0000
  Cu  Cu16      1.0  0.20680067000000002  0.09729121999999994  0.5114367861848808  1.0000
  Cu  Cu17      1.0  0.28842668000000005  0.9248434999999999  0.477635340267517  1.0000
  Cu  Cu18      1.0  0.7867477300000001  0.29666984999999996  0.4958009627403094  1.0000
  Cu  Cu19      1.0  0.30044109  0.66484844  0.5161367497126322  1.0000
  Cu  Cu20      1.0  0.7884266799999999  0.5498434999999999  0.45918936554108664  1.0000
  Cu  Cu21      1.0  0.037437019999999994  0.11308573999999995  0.4868948388552668  1.0000
  Cu  Cu22      1.0  0.5454909700000001  0.48714252999999996  0.5057693534178975  1.0000
  Cu  Cu23      1.0  0.04246238  0.8473960399999999  0.5222148636609246  1.0000
  Cu  Cu24      1.0  0.53743702  0.7380857399999999  0.46844886412883635  1.0000
