data_image0
_chemical_formula_structural       COFe4Sn4Rh8Fe4Sn4Rh8
_chemical_formula_sum              "C1 O1 Fe8 Sn8 Rh16"
_cell_length_a       8.163663265511147
_cell_length_b       5.8234424
_cell_length_c       104.9406544
_cell_angle_alpha    90.0
_cell_angle_beta     69.10426489829659
_cell_angle_gamma    69.10426489829659

_space_group_name_H-M_alt    "P 1"
_space_group_IT_number       1

loop_
  _space_group_symop_operation_xyz
  'x, y, z'

loop_
  _atom_site_type_symbol
  _atom_site_label
  _atom_site_symmetry_multiplicity
  _atom_site_fract_x
  _atom_site_fract_y
  _atom_site_fract_z
  _atom_site_occupancy
  C   C1        1.0  0.8037725899999999  0.9439732299999999  0.5549179407392888  1.0000
  O   O1        1.0  0.76867314  0.95740863  0.5667791334979699  1.0000
  Fe  Fe1       1.0  0.13058428  0.53186601  0.48871358807656634  1.0000
  Fe  Fe2       1.0  0.11941571999999999  0.042591369999999795  0.5169831714124983  1.0000
  Fe  Fe3       1.0  0.63058428  0.28186601  0.5025867693025913  1.0000
  Fe  Fe4       1.0  0.6299459199999999  0.7719085799999998  0.5283145673999221  1.0000
  Sn  Sn1       1.0  0.12287523999999998  0.5409348399999999  0.5170984941644592  1.0000
  Sn  Sn2       1.0  0.13058428  0.03186600999999989  0.48871358807656634  1.0000
  Sn  Sn3       1.0  0.5747671900000001  0.30320231  0.5323633595693472  1.0000
  Sn  Sn4       1.0  0.63058428  0.7818660100000001  0.5025867693025913  1.0000
  Rh  Rh1       1.0  0.37356950000000005  0.14528078999999994  0.5222504172451665  1.0000
  Rh  Rh2       1.0  0.38058428  0.65686601  0.49565017702479724  1.0000
  Rh  Rh3       1.0  0.37520263000000004  0.6788775799999999  0.5224651940507442  1.0000
  Rh  Rh4       1.0  0.38058428  0.15686600999999992  0.49565017702479724  1.0000
  Rh  Rh5       1.0  0.87359784  0.4011904799999999  0.5092620907538935  1.0000
  Rh  Rh6       1.0  0.84764189  0.9301345099999999  0.5360202188625288  1.0000
  Rh  Rh7       1.0  0.8736130799999999  0.9180295599999998  0.509290748304596  1.0000
  Rh  Rh8       1.0  0.85183084  0.4150497099999999  0.5347973302210663  1.0000
  Fe  Fe5       1.0  0.13058428  0.53186601  0.43322086650202996  1.0000
  Fe  Fe6       1.0  0.13058428  0.03186600999999989  0.46096722895407977  1.0000
  Fe  Fe7       1.0  0.63058428  0.28186601  0.4470940477280549  1.0000
  Fe  Fe8       1.0  0.63058428  0.7818660100000001  0.4748404068505414  1.0000
  Sn  Sn5       1.0  0.13058428  0.53186601  0.46096722895407977  1.0000
  Sn  Sn6       1.0  0.13058428  0.03186600999999989  0.43322086650202996  1.0000
  Sn  Sn7       1.0  0.63058428  0.28186601  0.4748404068505414  1.0000
  Sn  Sn8       1.0  0.63058428  0.7818660100000001  0.4470940477280549  1.0000
  Rh  Rh9       1.0  0.38058428  0.15686600999999992  0.4679038179023106  1.0000
  Rh  Rh10      1.0  0.38058428  0.65686601  0.44015745877982404  1.0000
  Rh  Rh11      1.0  0.38058428  0.65686601  0.4679038179023106  1.0000
  Rh  Rh12      1.0  0.38058428  0.15686600999999992  0.44015745877982404  1.0000
  Rh  Rh13      1.0  0.88058428  0.40686601000000006  0.4540306366762857  1.0000
  Rh  Rh14      1.0  0.88058428  0.90686601  0.4817769991283356  1.0000
  Rh  Rh15      1.0  0.88058428  0.90686601  0.4540306366762857  1.0000
  Rh  Rh16      1.0  0.88058428  0.40686601000000006  0.4817769991283356  1.0000
