data_image0
_chemical_formula_structural       COOs16Si32
_chemical_formula_sum              "C1 O1 Os16 Si32"
_cell_length_a       6.561603564983372
_cell_length_b       8.30358973
_cell_length_c       108.45301012
_cell_angle_alpha    90.0
_cell_angle_beta     93.21244424435585
_cell_angle_gamma    90.0

_space_group_name_H-M_alt    "P 1"
_space_group_IT_number       1

loop_
  _space_group_symop_operation_xyz
  'x, y, z'

loop_
  _atom_site_type_symbol
  _atom_site_label
  _atom_site_symmetry_multiplicity
  _atom_site_fract_x
  _atom_site_fract_y
  _atom_site_fract_z
  _atom_site_occupancy
  C   C1        1.0  0.49081178999999997  0.9209857600000001  0.55297318699997  1.0000
  O   O1        1.0  0.5175002699999999  0.95207279  0.5638505626526331  1.0000
  Os  Os1       1.0  0.4781485  0.21152239000000006  0.43772729305571995  1.0000
  Os  Os2       1.0  0.3114818399999999  0.21152239000000006  0.4968204870256745  1.0000
  Os  Os3       1.0  0.025204039999999987  0.71515348  0.5470400929918527  1.0000
  Os  Os4       1.0  0.20935720000000002  0.71152239  0.48957864417971586  1.0000
  Os  Os5       1.0  0.8948151699999999  0.3466356100000001  0.4672738900406972  1.0000
  Os  Os6       1.0  0.7262015499999999  0.34970571  0.5254040551905048  1.0000
  Os  Os7       1.0  0.79269054  0.8466356100000001  0.46003204364914685  1.0000
  Os  Os8       1.0  0.62602387  0.8466356100000001  0.5191252411646932  1.0000
  Os  Os9       1.0  0.64454624  0.51098862  0.5477013919515197  1.0000
  Os  Os10      1.0  0.80075547  0.5290790000000001  0.49115649634247727  1.0000
  Os  Os11      1.0  0.88675024  0.02907900000000005  0.43614943734736683  1.0000
  Os  Os12      1.0  0.72008357  0.02907900000000005  0.49524263486291303  1.0000
  Os  Os13      1.0  0.13717982999999995  0.5250421700000001  0.5247677632896623  1.0000
  Os  Os14      1.0  0.3034169  0.5290790000000001  0.4656960378779358  1.0000
  Os  Os15      1.0  0.21742213999999999  0.02907900000000005  0.5207030933274546  1.0000
  Os  Os16      1.0  0.38408879999999995  0.02907900000000005  0.4616098993575  1.0000
  Si  Si1       1.0  0.82702971  0.30464684000000003  0.4444679168652876  1.0000
  Si  Si2       1.0  0.6603630399999999  0.30464684000000003  0.5035611143808338  1.0000
  Si  Si3       1.0  0.860476  0.80464684  0.4828380168245565  1.0000
  Si  Si4       1.0  0.67883471  0.7940672  0.5424090182883784  1.0000
  Si  Si5       1.0  0.77732366  0.23660007000000002  0.5473013499221636  1.0000
  Si  Si6       1.0  0.94756746  0.25351116000000007  0.48901383140915855  1.0000
  Si  Si7       1.0  0.5732715799999999  0.7535111600000001  0.4973852997962318  1.0000
  Si  Si8       1.0  0.73993824  0.7535111600000001  0.4382921022806855  1.0000
  Si  Si9       1.0  0.44380932999999995  0.7535111600000001  0.4532914198395792  1.0000
  Si  Si10      1.0  0.27714267  0.7535111600000001  0.5123846138095337  1.0000
  Si  Si11      1.0  0.06879164999999998  0.25379236000000005  0.5337945137671518  1.0000
  Si  Si12      1.0  0.24369637  0.25351116000000007  0.4740145173958566  1.0000
  Si  Si13      1.0  0.15660490999999996  0.80464684  0.46783869926566274  1.0000
  Si  Si14      1.0  0.98390056  0.80356825  0.5267956255067358  1.0000
  Si  Si15      1.0  0.3642341299999999  0.30464684000000003  0.5185604319397276  1.0000
  Si  Si16      1.0  0.5309008  0.30464684000000003  0.45946723442418136  1.0000
  Si  Si17      1.0  0.21420509999999998  0.94176247  0.543012364550401  1.0000
  Si  Si18      1.0  0.38685105  0.970921  0.48400485335140253  1.0000
  Si  Si19      1.0  0.30065465999999996  0.47092100000000003  0.44330108033844157  1.0000
  Si  Si20      1.0  0.13398798999999997  0.47092100000000003  0.5023942778539878  1.0000
  Si  Si21      1.0  0.67140627  0.5872370000000001  0.46959175684623383  1.0000
  Si  Si22      1.0  0.50225272  0.5875928600000001  0.5284109510290201  1.0000
  Si  Si23      1.0  0.01609943999999999  0.08723700000000005  0.4577141768436102  1.0000
  Si  Si24      1.0  0.84943277  0.08723700000000005  0.5168073743591565  1.0000
  Si  Si25      1.0  0.7173213199999999  0.08723700000000005  0.47284768086901063  1.0000
  Si  Si26      1.0  0.5631541499999999  0.08986546000000005  0.5318163111085494  1.0000
  Si  Si27      1.0  0.9701843800000001  0.5872370000000001  0.45445825636642523  1.0000
  Si  Si28      1.0  0.80351772  0.5872370000000001  0.5135514503363797  1.0000
  Si  Si29      1.0  0.2919968  0.5188488400000001  0.5475741761184526  1.0000
  Si  Si30      1.0  0.43276611  0.47092100000000003  0.4872607738285875  1.0000
  Si  Si31      1.0  0.25473959999999995  0.970921  0.44004515986125653  1.0000
  Si  Si32      1.0  0.08807293000000001  0.970921  0.49913835737680284  1.0000
