data_image0
_chemical_formula_structural       COIn6Pd18
_chemical_formula_sum              "C1 O1 In6 Pd18"
_cell_length_a       4.847235983403719
_cell_length_b       7.666383230730034
_cell_length_c       102.89011056999999
_cell_angle_alpha    87.33734034691767
_cell_angle_beta     87.87006246886483
_cell_angle_gamma    85.42729915910586

_space_group_name_H-M_alt    "P 1"
_space_group_IT_number       1

loop_
  _space_group_symop_operation_xyz
  'x, y, z'

loop_
  _atom_site_type_symbol
  _atom_site_label
  _atom_site_symmetry_multiplicity
  _atom_site_fract_x
  _atom_site_fract_y
  _atom_site_fract_z
  _atom_site_occupancy
  C   C1        1.0  0.5563225  0.5596236949999999  0.5489210044458842  1.0000
  O   O1        1.0  0.46474240000000006  0.572406175  0.559703140851926  1.0000
  In  In1       1.0  0.08377363000000004  0.9845228549999999  0.49357394132210086  1.0000
  In  In2       1.0  0.40164263000000006  0.101968135  0.5291890531003474  1.0000
  In  In3       1.0  0.7504403000000001  0.5400784149999999  0.5113329708445266  1.0000
  In  In4       1.0  0.08377363000000003  0.31785618499999996  0.4402968591480739  1.0000
  In  In5       1.0  0.41710696  0.42896730499999997  0.4758149149963003  1.0000
  In  In6       1.0  0.7504403  0.873411745  0.45805588547387466  1.0000
  Pd  Pd1       1.0  0.5780892400000001  0.7306041349999999  0.533406728151653  1.0000
  Pd  Pd2       1.0  0.9141155400000002  0.181685615  0.5156681762093508  1.0000
  Pd  Pd3       1.0  0.25044030000000006  0.623411745  0.4980136987027072  1.0000
  Pd  Pd4       1.0  0.24574692000000004  0.46170588500000004  0.5244206187312459  1.0000
  Pd  Pd5       1.0  0.58377363  0.9011895249999999  0.5068932134639201  1.0000
  Pd  Pd6       1.0  0.8990195099999999  0.015477145000000005  0.540716955739242  1.0000
  Pd  Pd7       1.0  0.08289304000000006  0.8212866249999998  0.5200124056467149  1.0000
  Pd  Pd8       1.0  0.41710696  0.262300635  0.5024534560833137  1.0000
  Pd  Pd9       1.0  0.7394823500000001  0.372103945  0.5380044819223913  1.0000
  Pd  Pd10      1.0  0.58377363  0.06785618499999999  0.48025467237690667  1.0000
  Pd  Pd11      1.0  0.9171069599999999  0.512300635  0.4624956428544809  1.0000
  Pd  Pd12      1.0  0.25044030000000006  0.9567450749999998  0.44473661652868046  1.0000
  Pd  Pd13      1.0  0.25044030000000006  0.790078415  0.4713751576156938  1.0000
  Pd  Pd14      1.0  0.58377363  0.23452285500000003  0.45361612809326823  1.0000
  Pd  Pd15      1.0  0.9171069600000001  0.345633965  0.48913418713811946  1.0000
  Pd  Pd16      1.0  0.08377363000000003  0.15118952500000002  0.46693540023508745  1.0000
  Pd  Pd17      1.0  0.41710696  0.595633965  0.44917637390928683  1.0000
  Pd  Pd18      1.0  0.7504403  0.706745075  0.4846944297575131  1.0000
