data_image0
_chemical_formula_structural       COIn9Ni9In9Ni9
_chemical_formula_sum              "C1 O1 In18 Ni18"
_cell_length_a       5.333965966364051
_cell_length_b       10.341203380465902
_cell_length_c       111.60104079
_cell_angle_alpha    81.34208933493136
_cell_angle_beta     112.62209944977513
_cell_angle_gamma    75.05458469106526

_space_group_name_H-M_alt    "P 1"
_space_group_IT_number       1

loop_
  _space_group_symop_operation_xyz
  'x, y, z'

loop_
  _atom_site_type_symbol
  _atom_site_label
  _atom_site_symmetry_multiplicity
  _atom_site_fract_x
  _atom_site_fract_y
  _atom_site_fract_z
  _atom_site_occupancy
  C   C1        1.0  0.64502353  0.5101572799999999  0.562872099166634  1.0000
  O   O1        1.0  0.74234998  0.49355388000000006  0.5745901158834164  1.0000
  In  In1       1.0  0.33757755  0.97222222  0.4599252300505019  1.0000
  In  In2       1.0  0.33757755000000006  0.30555555999999995  0.4806344338831957  1.0000
  In  In3       1.0  0.33757755000000006  0.6388888899999999  0.43921602249015107  1.0000
  In  In4       1.0  0.6709108900000001  0.08333333999999996  0.4461190916769347  1.0000
  In  In5       1.0  0.6709108900000001  0.41666666999999996  0.4668282992372855  1.0000
  In  In6       1.0  0.6709108900000001  0.75  0.4254098841165838  1.0000
  In  In7       1.0  0.004244220000000002  0.027777779999999974  0.4840859684765875  1.0000
  In  In8       1.0  0.004244219999999965  0.36111110999999996  0.4426675570835429  1.0000
  In  In9       1.0  0.0042442200000000554  0.69444445  0.46337676464389377  1.0000
  Ni  Ni1       1.0  0.50424422  0.027777779999999974  0.4840859684765875  1.0000
  Ni  Ni2       1.0  0.5042442199999999  0.36111110999999996  0.4426675570835429  1.0000
  Ni  Ni3       1.0  0.50424422  0.69444445  0.46337676464389377  1.0000
  Ni  Ni4       1.0  0.50424422  0.86111111  0.4426675570835429  1.0000
  Ni  Ni5       1.0  0.50424422  0.19444444999999996  0.46337676464389377  1.0000
  Ni  Ni6       1.0  0.5042442200000001  0.52777778  0.4840859684765875  1.0000
  Ni  Ni7       1.0  0.0042442200000000554  0.86111111  0.4426675570835429  1.0000
  Ni  Ni8       1.0  0.00424422000000001  0.19444444999999996  0.46337676464389377  1.0000
  Ni  Ni9       1.0  0.00424422000000001  0.52777778  0.4840859684765875  1.0000
  In  In10      1.0  0.36378728000000005  0.9489850300000001  0.52404812963388  1.0000
  In  In11      1.0  0.3440728700000001  0.30855832  0.5444793658070691  1.0000
  In  In12      1.0  0.33757755000000006  0.6388888899999999  0.5013436414435465  1.0000
  In  In13      1.0  0.6709108900000001  0.08333333999999996  0.5082467106303301  1.0000
  In  In14      1.0  0.6668817300000002  0.41005224999999995  0.5288897299118767  1.0000
  In  In15      1.0  0.6709108900000001  0.75  0.4875375030699793  1.0000
  In  In16      1.0  0.0038637799999999985  0.030682559999999977  0.5466102101414491  1.0000
  In  In17      1.0  0.004244219999999965  0.36111110999999996  0.5047951760369385  1.0000
  In  In18      1.0  0.9961362200000001  0.7037325  0.5257143513366571  1.0000
  Ni  Ni10      1.0  0.4763881100000001  0.05080406999999998  0.5445386057331087  1.0000
  Ni  Ni11      1.0  0.5042442199999999  0.36111110999999996  0.5047951760369384  1.0000
  Ni  Ni12      1.0  0.4995720099999999  0.6854693  0.5253547591704515  1.0000
  Ni  Ni13      1.0  0.50424422  0.86111111  0.5047951760369384  1.0000
  Ni  Ni14      1.0  0.49826765000000006  0.19189638999999997  0.5254413712823022  1.0000
  Ni  Ni15      1.0  0.4968616  0.53330798  0.5452928188589378  1.0000
  Ni  Ni16      1.0  0.0042442200000000554  0.86111111  0.5047951760369385  1.0000
  Ni  Ni17      1.0  0.006072749999999995  0.19278594999999998  0.525379354251751  1.0000
  Ni  Ni18      1.0  0.97398291  0.53168648  0.5443005873743444  1.0000
