data_image0
_chemical_formula_structural       COIn3Cu3Pt6In3Cu3Pt6In3Cu3Pt6In3Cu3Pt6
_chemical_formula_sum              "C1 O1 In12 Cu12 Pt24"
_cell_length_a       9.069745910342991
_cell_length_b       8.20900952
_cell_length_c       103.79199413
_cell_angle_alpha    90.0
_cell_angle_beta     68.37904558239006
_cell_angle_gamma    90.0

_space_group_name_H-M_alt    "P 1"
_space_group_IT_number       1

loop_
  _space_group_symop_operation_xyz
  'x, y, z'

loop_
  _atom_site_type_symbol
  _atom_site_label
  _atom_site_symmetry_multiplicity
  _atom_site_fract_x
  _atom_site_fract_y
  _atom_site_fract_z
  _atom_site_occupancy
  C   C1        1.0  0.498928545  0.5983134549999999  0.5525025410974416  1.0000
  O   O1        1.0  0.504532515  0.580375285  0.5635068672323157  1.0000
  In  In1       1.0  0.656626115  0.368629695  0.519057343424818  1.0000
  In  In2       1.0  0.9991953249999999  0.37382388499999997  0.5366344361335825  1.0000
  In  In3       1.0  0.320865935  0.373355215  0.49979922328234727  1.0000
  Cu  Cu1       1.0  0.842451195  0.12350397499999999  0.5252651283118546  1.0000
  Cu  Cu2       1.0  0.15419926500000006  0.12335521499999998  0.4907554951357549  1.0000
  Cu  Cu3       1.0  0.4893010950000001  0.12300133499999999  0.507926922407229  1.0000
  Pt  Pt1       1.0  0.820865935  0.12335521499999998  0.4997992232823472  1.0000
  Pt  Pt2       1.0  0.15553330500000004  0.12275713499999999  0.5182695971443605  1.0000
  Pt  Pt3       1.0  0.46725177500000004  0.122530195  0.5333787496088804  1.0000
  Pt  Pt4       1.0  0.987129265  0.37370568499999995  0.5089360265775854  1.0000
  Pt  Pt5       1.0  0.326446335  0.378799455  0.5259638170291369  1.0000
  Pt  Pt6       1.0  0.654199265  0.373355215  0.4907554951357549  1.0000
  In  In4       1.0  0.654199265  0.373355215  0.4636243139517196  1.0000
  In  In5       1.0  0.9875326049999998  0.373355215  0.48171176698916246  1.0000
  In  In6       1.0  0.320865935  0.373355215  0.44553685765853485  1.0000
  Cu  Cu4       1.0  0.820865935  0.12335521499999998  0.4726680420983119  1.0000
  Cu  Cu5       1.0  0.15419926500000006  0.12335521499999998  0.4364931327676844  1.0000
  Cu  Cu6       1.0  0.487532605  0.12335521499999998  0.4545805858051273  1.0000
  Pt  Pt7       1.0  0.820865935  0.12335521499999998  0.44553685765853485  1.0000
  Pt  Pt8       1.0  0.15419926500000006  0.12335521499999998  0.4636243139517196  1.0000
  Pt  Pt9       1.0  0.487532605  0.12335521499999998  0.4817117669891625  1.0000
  Pt  Pt10      1.0  0.9875326049999998  0.373355215  0.4545805858051272  1.0000
  Pt  Pt11      1.0  0.320865935  0.373355215  0.47266804209831204  1.0000
  Pt  Pt12      1.0  0.654199265  0.373355215  0.43649313276768437  1.0000
  In  In7       1.0  0.657749945  0.877469805  0.5191321864189788  1.0000
  In  In8       1.0  0.0008046750000000426  0.871945205  0.5366443042871976  1.0000
  In  In9       1.0  0.320865935  0.8733552149999999  0.49979922328234727  1.0000
  Cu  Cu7       1.0  0.838154735  0.623219345  0.5253498329481466  1.0000
  Cu  Cu8       1.0  0.15419926500000006  0.623355215  0.4907554951357549  1.0000
  Cu  Cu9       1.0  0.49249829500000003  0.623011085  0.5087381783997467  1.0000
  Pt  Pt13      1.0  0.820865935  0.623355215  0.4997992232823472  1.0000
  Pt  Pt14      1.0  0.15368578500000005  0.622817565  0.5180520875413549  1.0000
  Pt  Pt15      1.0  0.48491768500000004  0.6223612749999999  0.5350713121360403  1.0000
  Pt  Pt16      1.0  0.987853615  0.8730205050000001  0.5089293620739727  1.0000
  Pt  Pt17      1.0  0.32868381500000005  0.864335875  0.5259305596259111  1.0000
  Pt  Pt18      1.0  0.654199265  0.8733552149999999  0.4907554951357549  1.0000
  In  In10      1.0  0.654199265  0.8733552149999999  0.4636243139517196  1.0000
  In  In11      1.0  0.9875326049999998  0.8733552149999999  0.48171176698916246  1.0000
  In  In12      1.0  0.320865935  0.8733552149999999  0.44553685765853485  1.0000
  Cu  Cu10      1.0  0.820865935  0.623355215  0.4726680420983119  1.0000
  Cu  Cu11      1.0  0.15419926500000006  0.623355215  0.4364931327676844  1.0000
  Cu  Cu12      1.0  0.487532605  0.623355215  0.4545805858051273  1.0000
  Pt  Pt19      1.0  0.820865935  0.623355215  0.44553685765853485  1.0000
  Pt  Pt20      1.0  0.15419926500000006  0.623355215  0.4636243139517196  1.0000
  Pt  Pt21      1.0  0.487532605  0.623355215  0.4817117669891625  1.0000
  Pt  Pt22      1.0  0.9875326049999998  0.8733552149999999  0.4545805858051272  1.0000
  Pt  Pt23      1.0  0.320865935  0.8733552149999999  0.47266804209831204  1.0000
  Pt  Pt24      1.0  0.654199265  0.8733552149999999  0.43649313276768437  1.0000
