data_image0
_chemical_formula_structural       COVFeVFeVFeVFeVFeVFeVFeVFeVFeVFeVFeVFe
_chemical_formula_sum              "C1 O1 V12 Fe12"
_cell_length_a       5.74721068
_cell_length_b       5.74721068
_cell_length_c       98.7360534
_cell_angle_alpha    90.0
_cell_angle_beta     90.0
_cell_angle_gamma    90.0

_space_group_name_H-M_alt    "P 1"
_space_group_IT_number       1

loop_
  _space_group_symop_operation_xyz
  'x, y, z'

loop_
  _atom_site_type_symbol
  _atom_site_label
  _atom_site_symmetry_multiplicity
  _atom_site_fract_x
  _atom_site_fract_y
  _atom_site_fract_z
  _atom_site_occupancy
  C   C1        1.0  0.11025081499999996  0.18647288499999998  0.5403208730335343  1.0000
  O   O1        1.0  0.10490201499999997  0.096687655  0.5512480500353633  1.0000
  V   V1        1.0  0.11949976499999997  0.328144555  0.5222868177527978  1.0000
  Fe  Fe1       1.0  0.36656181499999996  0.108272945  0.5065201783518475  1.0000
  V   V2        1.0  0.11704553499999996  0.360213835  0.49252637460366144  1.0000
  Fe  Fe2       1.0  0.367465355  0.10419713499999998  0.4778558612619461  1.0000
  V   V3        1.0  0.11746535499999997  0.354197135  0.4633039056132914  1.0000
  Fe  Fe3       1.0  0.367465355  0.10419713499999998  0.44875194996463674  1.0000
  V   V4        1.0  0.11675685499999996  0.9033123450000001  0.5223093849256177  1.0000
  Fe  Fe4       1.0  0.34415914499999994  0.612463345  0.508239692728724  1.0000
  V   V5        1.0  0.11770265499999998  0.8566496749999999  0.4926303192228598  1.0000
  Fe  Fe5       1.0  0.367465355  0.6041971349999999  0.4778558612619461  1.0000
  V   V6        1.0  0.11746535499999997  0.8541971349999999  0.4633039056132914  1.0000
  Fe  Fe6       1.0  0.367465355  0.6041971349999999  0.44875194996463674  1.0000
  V   V7        1.0  0.620809775  0.40358608499999993  0.5205420266289595  1.0000
  Fe  Fe7       1.0  0.869007675  0.10704721499999997  0.506527547462188  1.0000
  V   V8        1.0  0.618603805  0.369244925  0.49348720240005745  1.0000
  Fe  Fe8       1.0  0.8674653550000001  0.10419713499999998  0.4778558612619461  1.0000
  V   V9        1.0  0.617465355  0.354197135  0.4633039056132914  1.0000
  Fe  Fe9       1.0  0.8674653550000001  0.10419713499999998  0.44875194996463674  1.0000
  V   V10       1.0  0.615752565  0.8164420450000001  0.5202687292603133  1.0000
  Fe  Fe10      1.0  0.895097985  0.613833985  0.5084842994616133  1.0000
  V   V11       1.0  0.618264105  0.8468040750000001  0.4932036720961991  1.0000
  Fe  Fe11      1.0  0.8674653550000001  0.6041971349999999  0.4778558612619461  1.0000
  V   V12       1.0  0.617465355  0.8541971349999999  0.4633039056132914  1.0000
  Fe  Fe12      1.0  0.8674653550000001  0.6041971349999999  0.44875194996463674  1.0000
