data_image0
_chemical_formula_structural       COCo20Si20
_chemical_formula_sum              "C1 O1 Co20 Si20"
_cell_length_a       9.9615521198673
_cell_length_b       6.30023875
_cell_length_c       100.86474036999999
_cell_angle_alpha    90.0
_cell_angle_beta     104.96321744814213
_cell_angle_gamma    71.56505119481739

_space_group_name_H-M_alt    "P 1"
_space_group_IT_number       1

loop_
  _space_group_symop_operation_xyz
  'x, y, z'

loop_
  _atom_site_type_symbol
  _atom_site_label
  _atom_site_symmetry_multiplicity
  _atom_site_fract_x
  _atom_site_fract_y
  _atom_site_fract_z
  _atom_site_occupancy
  C   C1        1.0  0.08757538999999999  0.6356516649999999  0.5395842622309991  1.0000
  O   O1        1.0  0.07230662999999998  0.7201340550000002  0.5496651747512133  1.0000
  Co  Co1       1.0  0.33987296  0.27169077500000005  0.4702540463488254  1.0000
  Co  Co2       1.0  0.73987296  0.07169077500000004  0.4549539819969124  1.0000
  Co  Co3       1.0  0.9398729600000001  0.471690775  0.48555411070073845  1.0000
  Co  Co4       1.0  0.13822637  0.8739201150000002  0.5159261674652962  1.0000
  Co  Co5       1.0  0.5388842  0.6733677550000002  0.5000191648606073  1.0000
  Co  Co6       1.0  0.63987296  0.0814903749999999  0.4779040785247819  1.0000
  Co  Co7       1.0  0.039872959999999985  0.8814903750000002  0.46260401417286884  1.0000
  Co  Co8       1.0  0.23987296  0.281490375  0.49320414287669495  1.0000
  Co  Co9       1.0  0.44073575000000004  0.6997339650000002  0.5222181169691711  1.0000
  Co  Co10      1.0  0.83371324  0.48125250500000016  0.5084226242254707  1.0000
  Co  Co11      1.0  0.5139932  0.5395304550000001  0.47469413114377634  1.0000
  Co  Co12      1.0  0.9139932000000001  0.33953045500000006  0.4593940667918633  1.0000
  Co  Co13      1.0  0.1139932  0.7395304550000001  0.4899941954956893  1.0000
  Co  Co14      1.0  0.3109904  0.13564520500000007  0.5193994748539913  1.0000
  Co  Co15      1.0  0.71333957  0.9397077749999999  0.5058546002243882  1.0000
  Co  Co16      1.0  0.5015249700000001  0.3018663650000001  0.5103713077416134  1.0000
  Co  Co17      1.0  0.89791304  0.09757053500000006  0.4951839528437552  1.0000
  Co  Co18      1.0  0.11583727999999999  0.484707255  0.5249776885959009  1.0000
  Co  Co19      1.0  0.29791303999999996  0.8975705350000002  0.47988388849184227  1.0000
  Co  Co20      1.0  0.6979130400000001  0.6975705350000002  0.4645838241399292  1.0000
  Si  Si1       1.0  0.66199576  0.3043936850000001  0.49655439490782044  1.0000
  Si  Si2       1.0  0.060634729999999984  0.10940547500000003  0.4809349539526127  1.0000
  Si  Si3       1.0  0.27491674  0.508091885  0.5126748640103475  1.0000
  Si  Si4       1.0  0.46063473000000005  0.909405475  0.46563488960069965  1.0000
  Si  Si5       1.0  0.86063473  0.7094054750000002  0.4503348252487866  1.0000
  Si  Si6       1.0  0.36063472999999996  0.5230139150000002  0.48858498612856927  1.0000
  Si  Si7       1.0  0.76063473  0.32301391500000004  0.4732849217766562  1.0000
  Si  Si8       1.0  0.96012704  0.721630935  0.5051362101828472  1.0000
  Si  Si9       1.0  0.16063472999999998  0.12301391500000006  0.45798485742474315  1.0000
  Si  Si10      1.0  0.5594786700000001  0.9363070050000002  0.5193216893268261  1.0000
  Si  Si11      1.0  0.47246966  0.06029222500000004  0.49143678960322523  1.0000
  Si  Si12      1.0  0.87246966  0.8602922249999999  0.47613672525131223  1.0000
  Si  Si13      1.0  0.06896159999999998  0.25678490500000006  0.5073521888832306  1.0000
  Si  Si14      1.0  0.27246966  0.6602922250000001  0.46083666089939923  1.0000
  Si  Si15      1.0  0.67091038  0.47694845500000005  0.5212513609830053  1.0000
  Si  Si16      1.0  0.49791304000000003  0.29757053499999997  0.45707948223674444  1.0000
  Si  Si17      1.0  0.8937368499999999  0.10085451500000013  0.5183358449803751  1.0000
  Si  Si18      1.0  0.09791303999999999  0.49757053500000004  0.4723795465886575  1.0000
  Si  Si19      1.0  0.29384156  0.900452435  0.5025908516970955  1.0000
  Si  Si20      1.0  0.6979130400000001  0.6975705350000002  0.48767961094057055  1.0000
