data_image0
_chemical_formula_structural       COV4Pt4V4Pt4V4Pt4V4Pt4
_chemical_formula_sum              "C1 O1 V16 Pt16"
_cell_length_a       5.42824988
_cell_length_b       6.535878244351252
_cell_length_c       109.21526944
_cell_angle_alpha    84.98679838213346
_cell_angle_beta     90.0
_cell_angle_gamma    90.0

_space_group_name_H-M_alt    "P 1"
_space_group_IT_number       1

loop_
  _space_group_symop_operation_xyz
  'x, y, z'

loop_
  _atom_site_type_symbol
  _atom_site_label
  _atom_site_symmetry_multiplicity
  _atom_site_fract_x
  _atom_site_fract_y
  _atom_site_fract_z
  _atom_site_occupancy
  C   C1        1.0  0.624690355  0.37731074  0.5590232334379387  1.0000
  O   O1        1.0  0.624690525  0.46540890999999995  0.5679627272931678  1.0000
  V   V1        1.0  0.12469002500000002  0.78968331  0.43203727270683234  1.0000
  V   V2        1.0  0.12469002500000002  0.28968331  0.4619592699333991  1.0000
  V   V3        1.0  0.12469002500000002  0.21031669000000003  0.4871316514029374  1.0000
  V   V4        1.0  0.12469002500000002  0.71031669  0.4572096541763706  1.0000
  Pt  Pt1       1.0  0.374690025  0.53423716  0.47659435155701474  1.0000
  Pt  Pt2       1.0  0.374690025  0.03423716  0.44667235073980804  1.0000
  Pt  Pt3       1.0  0.374690025  0.46576284  0.44257457614339474  1.0000
  Pt  Pt4       1.0  0.374690025  0.96576284  0.4724965733699616  1.0000
  V   V5        1.0  0.12469002500000002  0.78968331  0.4918812707506059  1.0000
  V   V6        1.0  0.12469003500000003  0.2826877  0.5223328155364715  1.0000
  V   V7        1.0  0.12468997500000002  0.22420303  0.5442334060103965  1.0000
  V   V8        1.0  0.12469001500000002  0.7150773800000001  0.5162504225038254  1.0000
  Pt  Pt5       1.0  0.374633975  0.54290852  0.5356016946184706  1.0000
  Pt  Pt6       1.0  0.374690025  0.03423716  0.5065163487835816  1.0000
  Pt  Pt7       1.0  0.374690025  0.46576284  0.5024185705965285  1.0000
  Pt  Pt8       1.0  0.37406997500000005  0.96386104  0.5328252970162756  1.0000
  V   V9        1.0  0.624690025  0.78968331  0.43203727270683234  1.0000
  V   V10       1.0  0.624690025  0.28968331  0.4619592699333991  1.0000
  V   V11       1.0  0.624690025  0.21031669000000003  0.4871316514029374  1.0000
  V   V12       1.0  0.624690025  0.71031669  0.4572096541763706  1.0000
  Pt  Pt9       1.0  0.874690025  0.53423716  0.47659435155701474  1.0000
  Pt  Pt10      1.0  0.874690025  0.03423716  0.44667235073980804  1.0000
  Pt  Pt11      1.0  0.874690025  0.46576284  0.44257457614339474  1.0000
  Pt  Pt12      1.0  0.874690025  0.96576284  0.4724965733699616  1.0000
  V   V13       1.0  0.624690025  0.78968331  0.4918812707506059  1.0000
  V   V14       1.0  0.624690005  0.28323127  0.5217801298942318  1.0000
  V   V15       1.0  0.624690015  0.21744051  0.5442688743504477  1.0000
  V   V16       1.0  0.624689995  0.7153107199999998  0.5163338725636685  1.0000
  Pt  Pt13      1.0  0.8747460249999999  0.54290856  0.5356016946184706  1.0000
  Pt  Pt14      1.0  0.874690025  0.03423716  0.5065163487835816  1.0000
  Pt  Pt15      1.0  0.874690025  0.46576284  0.5024185705965285  1.0000
  Pt  Pt16      1.0  0.8753100249999999  0.96386103  0.5328252970162757  1.0000
