data_image0
_chemical_formula_structural       COAg12Pd4
_chemical_formula_sum              "C1 O1 Ag12 Pd4"
_cell_length_a       5.0659495863110315
_cell_length_b       5.87362479
_cell_length_c       108.33514533
_cell_angle_alpha    90.0
_cell_angle_beta     92.85666448565446
_cell_angle_gamma    90.0

_space_group_name_H-M_alt    "P 1"
_space_group_IT_number       1

loop_
  _space_group_symop_operation_xyz
  'x, y, z'

loop_
  _atom_site_type_symbol
  _atom_site_label
  _atom_site_symmetry_multiplicity
  _atom_site_fract_x
  _atom_site_fract_y
  _atom_site_fract_z
  _atom_site_occupancy
  C   C1        1.0  0.51223135  0.62129496  0.5358202077099209  1.0000
  O   O1        1.0  0.48801669000000003  0.62147323  0.5464680998399768  1.0000
  Ag  Ag1       1.0  0.9103876099999999  0.8714241300000001  0.4756479602421572  1.0000
  Ag  Ag2       1.0  0.59347803  0.37342176  0.49749626030023447  1.0000
  Ag  Ag3       1.0  0.22288761  0.3714241300000001  0.4535319001600232  1.0000
  Ag  Ag4       1.0  0.28348254  0.8786663800000001  0.5202019239284494  1.0000
  Ag  Ag5       1.0  0.9103876099999999  0.3714241300000001  0.4756479602421572  1.0000
  Ag  Ag6       1.0  0.59344531  0.8694505200000001  0.4974914832312567  1.0000
  Ag  Ag7       1.0  0.22288761  0.8714241300000001  0.4535319001600232  1.0000
  Ag  Ag8       1.0  0.28347392  0.3643258200000001  0.5202214179084481  1.0000
  Ag  Ag9       1.0  0.41038760999999996  0.62142413  0.4756479602421573  1.0000
  Ag  Ag10      1.0  0.10149924000000002  0.12144031000000002  0.49760395666641044  1.0000
  Ag  Ag11      1.0  0.72288761  0.12142413000000003  0.4535319001600232  1.0000
  Ag  Ag12      1.0  0.7905808899999999  0.62142501  0.5199473627690495  1.0000
  Pd  Pd1       1.0  0.72288761  0.62142413  0.4535319001600232  1.0000
  Pd  Pd2       1.0  0.41038760999999996  0.12142413000000003  0.4756479602421573  1.0000
  Pd  Pd3       1.0  0.78640227  0.12133362000000003  0.5184407955248369  1.0000
  Pd  Pd4       1.0  0.08961239000000001  0.62143005  0.4981142644060304  1.0000
