data_image0
_chemical_formula_structural       Re6V12W6CO
_chemical_formula_sum              "Re6 V12 W6 C1 O1"
_cell_length_a       6.1194396
_cell_length_b       7.494752269433711
_cell_length_c       102.95419078
_cell_angle_alpha    94.34775312636735
_cell_angle_beta     90.0
_cell_angle_gamma    114.09484253999732

_space_group_name_H-M_alt    "P 1"
_space_group_IT_number       1

loop_
  _space_group_symop_operation_xyz
  'x, y, z'

loop_
  _atom_site_type_symbol
  _atom_site_label
  _atom_site_symmetry_multiplicity
  _atom_site_fract_x
  _atom_site_fract_y
  _atom_site_fract_z
  _atom_site_occupancy
  Re  Re1       1.0  0.70191376  0.360719095  0.4993173334723388  1.0000
  Re  Re2       1.0  0.28240241000000016  0.522255005  0.4722449176716316  1.0000
  Re  Re3       1.0  0.10208639000000014  0.140686635  0.5230664152035346  1.0000
  Re  Re4       1.0  0.9907357400000001  0.938921675  0.4855818304519916  1.0000
  Re  Re5       1.0  0.5740690800000001  0.105588335  0.4589080016904122  1.0000
  Re  Re6       1.0  0.40514817000000014  0.7673609750000001  0.5119330701834375  1.0000
  V   V1        1.0  0.6782357400000002  0.8139216750000001  0.46557645808059206  1.0000
  V   V2        1.0  0.5111488700000001  0.479843915  0.5186022275618654  1.0000
  V   V3        1.0  0.0949024100000001  0.647255005  0.4922502900430311  1.0000
  V   V4        1.0  0.17823574000000017  0.8139216750000001  0.46557645808059206  1.0000
  V   V5        1.0  0.00926426000000015  0.480159315  0.5186250144812111  1.0000
  V   V6        1.0  0.5949024100000001  0.647255005  0.4922502900430311  1.0000
  V   V7        1.0  0.3865690800000001  0.23058833499999998  0.4789133740618116  1.0000
  V   V8        1.0  0.9699024100000001  0.397255005  0.4522395453002322  1.0000
  V   V9        1.0  0.8015739600000004  0.061347535000000016  0.5053042788451657  1.0000
  V   V10       1.0  0.8865690800000001  0.23058833499999998  0.4789133740618116  1.0000
  V   V11       1.0  0.46990241000000016  0.397255005  0.4522395453002322  1.0000
  V   V12       1.0  0.30195142000000014  0.06107832500000002  0.5050841237232929  1.0000
  W   W1        1.0  0.1988641800000002  0.35583603500000005  0.49922865365769087  1.0000
  W   W2        1.0  0.78240241  0.522255005  0.4722449176716316  1.0000
  W   W3        1.0  0.6108156600000001  0.193040265  0.5246472333266033  1.0000
  W   W4        1.0  0.4907357400000001  0.938921675  0.4855818304519916  1.0000
  W   W5        1.0  0.0740690800000001  0.105588335  0.4589080016904122  1.0000
  W   W6        1.0  0.9089464100000001  0.7786070750000001  0.5129330539255049  1.0000
  C   C1        1.0  0.7273833  0.414416325  0.5387210415976191  1.0000
  O   O1        1.0  0.7915080200000001  0.535437765  0.5477604546997678  1.0000
