data_image0
_chemical_formula_structural       COPt4Sn16
_chemical_formula_sum              "C1 O1 Pt4 Sn16"
_cell_length_a       9.302626147529761
_cell_length_b       6.699884764560791
_cell_length_c       104.8886236
_cell_angle_alpha    90.74445181643672
_cell_angle_beta     97.53612726140861
_cell_angle_gamma    69.63954078922596

_space_group_name_H-M_alt    "P 1"
_space_group_IT_number       1

loop_
  _space_group_symop_operation_xyz
  'x, y, z'

loop_
  _atom_site_type_symbol
  _atom_site_label
  _atom_site_symmetry_multiplicity
  _atom_site_fract_x
  _atom_site_fract_y
  _atom_site_fract_z
  _atom_site_occupancy
  C   C1        1.0  0.49581864499999984  0.30146440499999994  0.5439913497265886  1.0000
  O   O1        1.0  0.5524916749999998  0.25131532500000003  0.5544547811625176  1.0000
  Pt  Pt1       1.0  0.090886635  0.21945451499999993  0.4577064536280386  1.0000
  Pt  Pt2       1.0  0.5873363949999999  0.453913515  0.4982948489496089  1.0000
  Pt  Pt3       1.0  0.08460093499999999  0.461742705  0.49791620479057674  1.0000
  Pt  Pt4       1.0  0.5908866349999998  0.21945451500000002  0.4577064536280385  1.0000
  Sn  Sn1       1.0  0.7766373749999999  0.7119178750000003  0.5035308754931551  1.0000
  Sn  Sn2       1.0  0.2783552549999999  0.480681085  0.45943966495976324  1.0000
  Sn  Sn3       1.0  0.570043815  0.1249150449999999  0.48369542318449504  1.0000
  Sn  Sn4       1.0  0.05535876499999998  0.4137683249999999  0.5246713770266401  1.0000
  Sn  Sn5       1.0  0.9037578349999998  0.04177205499999999  0.4698676884185946  1.0000
  Sn  Sn6       1.0  0.40078154499999996  0.24604064500000003  0.5095301676337552  1.0000
  Sn  Sn7       1.0  0.944641235  0.5638240750000001  0.47326740305191795  1.0000
  Sn  Sn8       1.0  0.459301555  0.760516775  0.5168362286726571  1.0000
  Sn  Sn9       1.0  0.11851125499999998  0.793721655  0.514220914656254  1.0000
  Sn  Sn10      1.0  0.6117294549999999  0.5639939850000001  0.47329565958225556  1.0000
  Sn  Sn11      1.0  0.4034180149999999  0.9582279449999999  0.4559732389700597  1.0000
  Sn  Sn12      1.0  0.9081796149999999  0.19086850500000008  0.4982682522201704  1.0000
  Sn  Sn13      1.0  0.278015435  0.6471369749999999  0.48712339767441026  1.0000
  Sn  Sn14      1.0  0.7780154349999999  0.39713697500000017  0.4455452188374825  1.0000
  Sn  Sn15      1.0  0.7391949449999999  0.34735170500000007  0.523695121387549  1.0000
  Sn  Sn16      1.0  0.2371320349999999  0.12508495499999994  0.4837236830410869  1.0000
