data_image0
_chemical_formula_structural       COIr20V20
_chemical_formula_sum              "C1 O1 Ir20 V20"
_cell_length_a       5.264407974045019
_cell_length_b       9.694071086779747
_cell_length_c       103.26071830000001
_cell_angle_alpha    84.67477080039863
_cell_angle_beta     85.57678005440164
_cell_angle_gamma    86.80763589120826

_space_group_name_H-M_alt    "P 1"
_space_group_IT_number       1

loop_
  _space_group_symop_operation_xyz
  'x, y, z'

loop_
  _atom_site_type_symbol
  _atom_site_label
  _atom_site_symmetry_multiplicity
  _atom_site_fract_x
  _atom_site_fract_y
  _atom_site_fract_z
  _atom_site_occupancy
  C   C1        1.0  0.6838504999999999  0.35430749500000003  0.5459707810206942  1.0000
  O   O1        1.0  0.7294708699999999  0.375514785  0.5568024647637484  1.0000
  Ir  Ir1       1.0  0.92707602  0.05080772500000003  0.4652370882994322  1.0000
  Ir  Ir2       1.0  0.9937426800000001  0.7174743849999999  0.44376346921780835  1.0000
  Ir  Ir3       1.0  0.86040935  0.38414105500000006  0.4867107041600132  1.0000
  Ir  Ir4       1.0  0.7202353800000001  0.054058395000000044  0.5292493788249564  1.0000
  Ir  Ir5       1.0  0.7978783000000002  0.715133225  0.5082014785150637  1.0000
  Ir  Ir6       1.0  0.41329888000000015  0.863798925  0.48933162151137494  1.0000
  Ir  Ir7       1.0  0.47996554999999996  0.5304655949999999  0.46785800242975106  1.0000
  Ir  Ir8       1.0  0.34144664  0.19474840500000004  0.5107317267354294  1.0000
  Ir  Ir9       1.0  0.5466322100000001  0.19713226500000006  0.4463843833481273  1.0000
  Ir  Ir10      1.0  0.22169054000000002  0.5535372749999999  0.5310903496756089  1.0000
  Ir  Ir11      1.0  0.23219034000000002  0.28111994500000004  0.4677736948580901  1.0000
  Ir  Ir12      1.0  0.2988570000000001  0.947786605  0.44630007577646635  1.0000
  Ir  Ir13      1.0  0.16552367000000004  0.614453275  0.489247313939714  1.0000
  Ir  Ir14      1.0  0.006257320000000035  0.289899005  0.5310882044611699  1.0000
  Ir  Ir15      1.0  0.10305376000000002  0.9433650349999999  0.5110555091687959  1.0000
  Ir  Ir16      1.0  0.7459674700000001  0.468128735  0.4436791616461473  1.0000
  Ir  Ir17      1.0  0.46887553000000004  0.808606975  0.5288526107850237  1.0000
  Ir  Ir18      1.0  0.6793008100000002  0.8014620649999998  0.46515278072777116  1.0000
  Ir  Ir19      1.0  0.54684542  0.462775475  0.5078736117995521  1.0000
  Ir  Ir20      1.0  0.6126341399999999  0.13479540500000003  0.4866263965883523  1.0000
  V   V1        1.0  0.92347758  0.8847415949999998  0.4866333314932879  1.0000
  V   V2        1.0  0.9901442399999999  0.5514082649999998  0.4651597124116641  1.0000
  V   V3        1.0  0.8532146900000002  0.21625743500000005  0.5084998984582009  1.0000
  V   V4        1.0  0.056810910000000034  0.21807492500000003  0.4436860933300404  1.0000
  V   V5        1.0  0.74179953  0.553676475  0.5300421740650005  1.0000
  V   V6        1.0  0.4062294900000001  0.026727455000000042  0.4683396288396467  1.0000
  V   V7        1.0  0.4728961600000001  0.693394115  0.4468660129790657  1.0000
  V   V8        1.0  0.33956282  0.36006078500000005  0.4898132479212706  1.0000
  V   V9        1.0  0.22175386000000002  0.039564525000000045  0.5319689309459139  1.0000
  V   V10       1.0  0.28629156  0.690663515  0.5112568211165777  1.0000
  V   V11       1.0  0.10245544000000004  0.11385273500000004  0.48932468660643935  1.0000
  V   V12       1.0  0.16912211000000002  0.7805194049999998  0.46785107074585824  1.0000
  V   V13       1.0  0.027857530000000026  0.448339755  0.5109701322109582  1.0000
  V   V14       1.0  0.23578877999999998  0.44718606499999997  0.4463774516642343  1.0000
  V   V15       1.0  0.9421853599999999  0.7848156349999998  0.5316539677274633  1.0000
  V   V16       1.0  0.6252826800000001  0.9732725449999998  0.5081380722894906  1.0000
  V   V17       1.0  0.6863702  0.638533545  0.48614477017845664  1.0000
  V   V18       1.0  0.5097422600000001  0.31276237500000004  0.5305358310693852  1.0000
  V   V19       1.0  0.7530368599999999  0.305200215  0.4646711510968328  1.0000
  V   V20       1.0  0.8197035300000001  0.971866875  0.44319753523625177  1.0000
