data_image0
_chemical_formula_structural       COV6Pd18V6Pd18
_chemical_formula_sum              "C1 O1 V12 Pd36"
_cell_length_a       5.540595006737686
_cell_length_b       10.56745736080666
_cell_length_c       112.82396066
_cell_angle_alpha    82.54324335621895
_cell_angle_beta     112.83894909559024
_cell_angle_gamma    74.80210949505786

_space_group_name_H-M_alt    "P 1"
_space_group_IT_number       1

loop_
  _space_group_symop_operation_xyz
  'x, y, z'

loop_
  _atom_site_type_symbol
  _atom_site_label
  _atom_site_symmetry_multiplicity
  _atom_site_fract_x
  _atom_site_fract_y
  _atom_site_fract_z
  _atom_site_occupancy
  C   C1        1.0  0.8060838650000003  0.44915865  0.5565887064111922  1.0000
  O   O1        1.0  0.8821126450000001  0.46731632999999995  0.5675871091434687  1.0000
  V   V1        1.0  0.6178414750000001  0.13545411999999996  0.45022121818080035  1.0000
  V   V2        1.0  0.6178414750000002  0.46878744999999994  0.4713081280333467  1.0000
  V   V3        1.0  0.6178414750000002  0.8021207899999998  0.49239504168153736  1.0000
  V   V4        1.0  0.2845081350000001  0.85767634  0.4537357037888321  1.0000
  V   V5        1.0  0.28450813499999994  0.19100966999999996  0.47482261364137857  1.0000
  V   V6        1.0  0.28450813499999994  0.5243430099999999  0.43264879014064156  1.0000
  Pd  Pd1       1.0  0.29010165499999996  0.023410749999999984  0.43276673978269675  1.0000
  Pd  Pd2       1.0  0.29010165499999996  0.35674408999999996  0.4538536534308874  1.0000
  Pd  Pd3       1.0  0.290101655  0.6900774199999999  0.4749405670790779  1.0000
  Pd  Pd4       1.0  0.7817113849999998  0.8595408500000001  0.4534998045047217  1.0000
  Pd  Pd5       1.0  0.7817113850000001  0.19287417999999998  0.4745867143572682  1.0000
  Pd  Pd6       1.0  0.7817113850000001  0.52620751  0.4324128908565312  1.0000
  Pd  Pd7       1.0  0.7817113750000002  0.023410749999999984  0.43276673978269675  1.0000
  Pd  Pd8       1.0  0.7817113750000001  0.35674408999999996  0.4538536534308873  1.0000
  Pd  Pd9       1.0  0.781711385  0.6900774199999999  0.4749405670790779  1.0000
  Pd  Pd10      1.0  0.6122479550000001  0.9697197100000001  0.4711901783912916  1.0000
  Pd  Pd11      1.0  0.6122479550000001  0.30305304  0.4922770920394822  1.0000
  Pd  Pd12      1.0  0.6122479550000001  0.63638637  0.4501032685387452  1.0000
  Pd  Pd13      1.0  0.12063823500000001  0.13358960999999997  0.45045711746491074  1.0000
  Pd  Pd14      1.0  0.12063822500000003  0.4669229499999999  0.47154403111310134  1.0000
  Pd  Pd15      1.0  0.12063822499999995  0.8002562799999999  0.49263094096564775  1.0000
  Pd  Pd16      1.0  0.12063822500000011  0.9697197100000001  0.4711901783912916  1.0000
  Pd  Pd17      1.0  0.12063823499999997  0.30305304  0.4922770920394822  1.0000
  Pd  Pd18      1.0  0.12063823499999993  0.63638637  0.4501032685387452  1.0000
  V   V7        1.0  0.6178414750000001  0.13545411999999996  0.513481955329728  1.0000
  V   V8        1.0  0.6442616150000001  0.46053726999999994  0.537079983645387  1.0000
  V   V9        1.0  0.566809855  0.8060754099999999  0.5512244553772705  1.0000
  V   V10       1.0  0.2845081350000001  0.85767634  0.5169964409377596  1.0000
  V   V11       1.0  0.269852815  0.20307788999999993  0.5370545945816474  1.0000
  V   V12       1.0  0.28450813499999994  0.5243430099999999  0.4959095272895691  1.0000
  Pd  Pd19      1.0  0.29010165499999996  0.023410749999999984  0.4960274769316243  1.0000
  Pd  Pd20      1.0  0.29010165499999996  0.35674408999999996  0.5171143905798149  1.0000
  Pd  Pd21      1.0  0.295782655  0.68353096  0.5380848956174764  1.0000
  Pd  Pd22      1.0  0.7817113849999998  0.8595408500000001  0.5167605378580051  1.0000
  Pd  Pd23      1.0  0.7793050650000002  0.18815750999999997  0.5373363414514821  1.0000
  Pd  Pd24      1.0  0.7817113850000001  0.52620751  0.49567362800545867  1.0000
  Pd  Pd25      1.0  0.7817113850000001  0.023410749999999984  0.4960274769316243  1.0000
  Pd  Pd26      1.0  0.7817113750000001  0.35674408999999996  0.5171143905798149  1.0000
  Pd  Pd27      1.0  0.7819307550000001  0.68668716  0.5384496873857351  1.0000
  Pd  Pd28      1.0  0.610998695  0.9729487200000001  0.5353432904588156  1.0000
  Pd  Pd29      1.0  0.6176313250000001  0.27965031  0.5552567845127433  1.0000
  Pd  Pd30      1.0  0.6122479550000001  0.63638637  0.5133640018920286  1.0000
  Pd  Pd31      1.0  0.12063823500000001  0.13358960999999997  0.5137178546138383  1.0000
  Pd  Pd32      1.0  0.11788735499999997  0.46588364  0.534781132785888  1.0000
  Pd  Pd33      1.0  0.13077043499999993  0.8082573799999999  0.554969120233674  1.0000
  Pd  Pd34      1.0  0.12463892500000008  0.9765892500000001  0.5347656199882346  1.0000
  Pd  Pd35      1.0  0.13412032499999998  0.27845571999999996  0.5554527232552106  1.0000
  Pd  Pd36      1.0  0.12063822499999995  0.63638637  0.5133640018920286  1.0000
