data_image0
_chemical_formula_structural       COSi12Ir12Si12Ir12
_chemical_formula_sum              "C1 O1 Si24 Ir24"
_cell_length_a       6.47888176
_cell_length_b       12.915632725591557
_cell_length_c       104.02139495
_cell_angle_alpha    101.62281656947627
_cell_angle_beta     90.0
_cell_angle_gamma    90.0

_space_group_name_H-M_alt    "P 1"
_space_group_IT_number       1

loop_
  _space_group_symop_operation_xyz
  'x, y, z'

loop_
  _atom_site_type_symbol
  _atom_site_label
  _atom_site_symmetry_multiplicity
  _atom_site_fract_x
  _atom_site_fract_y
  _atom_site_fract_z
  _atom_site_occupancy
  C   C1        1.0  0.37518236000000005  0.24669303999999995  0.5403205179660323  1.0000
  O   O1        1.0  0.37305725  0.23143816999999994  0.5510216338399566  1.0000
  Si  Si1       1.0  0.37800855000000005  0.53894349  0.4704232827061208  1.0000
  Si  Si2       1.0  0.37801034000000006  0.20258613999999997  0.4975560998821434  1.0000
  Si  Si3       1.0  0.37815637  0.87480384  0.5238413992855937  1.0000
  Si  Si4       1.0  0.12178613000000002  0.12484306999999997  0.5147506688956875  1.0000
  Si  Si5       1.0  0.12800855000000003  0.7906683999999999  0.45973253795281444  1.0000
  Si  Si6       1.0  0.12800855000000003  0.45733506999999995  0.4869876663233326  1.0000
  Si  Si7       1.0  0.37800855000000005  0.24593545  0.4633901453617856  1.0000
  Si  Si8       1.0  0.37800855000000005  0.9126021099999999  0.4906452704616887  1.0000
  Si  Si9       1.0  0.37804175000000007  0.5713077599999999  0.5187487015524135  1.0000
  Si  Si10      1.0  0.14130106000000003  0.41763621  0.5219125082165076  1.0000
  Si  Si11      1.0  0.12800855000000003  0.08367644999999996  0.46676567856776485  1.0000
  Si  Si12      1.0  0.12800855000000003  0.75034311  0.49402080366766804  1.0000
  Ir  Ir1       1.0  0.37738872000000007  0.26439664999999996  0.5226976030284642  1.0000
  Ir  Ir2       1.0  0.37800855000000005  0.9301978999999999  0.46745974561906667  1.0000
  Ir  Ir3       1.0  0.37812917000000007  0.5889437399999999  0.4939397741775048  1.0000
  Ir  Ir4       1.0  0.12800855000000003  0.399414  0.4626960783104838  1.0000
  Ir  Ir5       1.0  0.12800855000000003  0.06608065999999997  0.48995120341038695  1.0000
  Ir  Ir6       1.0  0.15444907  0.7222120599999999  0.516076945854095  1.0000
  Ir  Ir7       1.0  0.37800855000000005  0.06718319999999996  0.4489783661600433  1.0000
  Ir  Ir8       1.0  0.37800855000000005  0.7338498699999999  0.47623349125994646  1.0000
  Ir  Ir9       1.0  0.37793192  0.39539771999999995  0.5029948156149726  1.0000
  Ir  Ir10      1.0  0.12800855000000003  0.59576202  0.45392232939898886  1.0000
  Ir  Ir11      1.0  0.12800855000000003  0.26242869  0.48117745776950716  1.0000
  Ir  Ir12      1.0  0.13219619000000002  0.93391813  0.5089649180018999  1.0000
  Si  Si13      1.0  0.87800855  0.53894349  0.4704232827061208  1.0000
  Si  Si14      1.0  0.87798266  0.20902215  0.4974338606411808  1.0000
  Si  Si15      1.0  0.87801882  0.8481866100000001  0.5206929514302102  1.0000
  Si  Si16      1.0  0.6335540000000001  0.12494582999999995  0.5147710873460241  1.0000
  Si  Si17      1.0  0.62800855  0.7906683999999999  0.45973253795281444  1.0000
  Si  Si18      1.0  0.62800855  0.45733506999999995  0.4869876663233326  1.0000
  Si  Si19      1.0  0.87800855  0.24593545  0.4633901453617856  1.0000
  Si  Si20      1.0  0.87800855  0.9126021099999999  0.4906452704616887  1.0000
  Si  Si21      1.0  0.8782138700000001  0.5936376299999999  0.5172007422996262  1.0000
  Si  Si22      1.0  0.6146457600000002  0.41739869999999996  0.5219083414528157  1.0000
  Si  Si23      1.0  0.62800855  0.08367644999999996  0.46676567856776485  1.0000
  Si  Si24      1.0  0.62800855  0.75034311  0.49402080366766804  1.0000
  Ir  Ir13      1.0  0.87764076  0.26598331  0.5203833942481733  1.0000
  Ir  Ir14      1.0  0.87800855  0.9301978999999999  0.46745974561906667  1.0000
  Ir  Ir15      1.0  0.87791208  0.59771281  0.4941299866129805  1.0000
  Ir  Ir16      1.0  0.62800855  0.399414  0.4626960783104838  1.0000
  Ir  Ir17      1.0  0.62800855  0.06608065999999997  0.48995120341038695  1.0000
  Ir  Ir18      1.0  0.60177409  0.72216567  0.5160733743423591  1.0000
  Ir  Ir19      1.0  0.87800855  0.06718319999999996  0.4489783661600433  1.0000
  Ir  Ir20      1.0  0.87800855  0.7338498699999999  0.47623349125994646  1.0000
  Ir  Ir21      1.0  0.87798097  0.41184500999999996  0.5040730098735674  1.0000
  Ir  Ir22      1.0  0.62800855  0.59576202  0.45392232939898886  1.0000
  Ir  Ir23      1.0  0.62800855  0.26242869  0.48117745776950716  1.0000
  Ir  Ir24      1.0  0.6238482300000001  0.93391934  0.5089670308192822  1.0000
