data_image0
_chemical_formula_structural       COSi12W20
_chemical_formula_sum              "C1 O1 Si12 W20"
_cell_length_a       9.67932821
_cell_length_b       4.99171896
_cell_length_c       108.71731283
_cell_angle_alpha    90.0
_cell_angle_beta     90.0
_cell_angle_gamma    90.0

_space_group_name_H-M_alt    "P 1"
_space_group_IT_number       1

loop_
  _space_group_symop_operation_xyz
  'x, y, z'

loop_
  _atom_site_type_symbol
  _atom_site_label
  _atom_site_symmetry_multiplicity
  _atom_site_fract_x
  _atom_site_fract_y
  _atom_site_fract_z
  _atom_site_occupancy
  C   C1        1.0  0.21099669000000007  0.6232611250000001  0.5420056653031922  1.0000
  O   O1        1.0  0.17870842000000006  0.6232637550000001  0.5523937429041756  1.0000
  Si  Si1       1.0  0.53807497  0.37325873500000006  0.472185948113895  1.0000
  Si  Si2       1.0  0.036926130000000064  0.369767605  0.518832492359587  1.0000
  Si  Si3       1.0  0.7062983400000001  0.12325873500000002  0.5017247115964248  1.0000
  Si  Si4       1.0  0.7183298100000002  0.623252745  0.530869853581046  1.0000
  Si  Si5       1.0  0.3698516000000001  0.6232587350000001  0.5017247115964248  1.0000
  Si  Si6       1.0  0.35779102000000007  0.12325215500000003  0.5303196745170043  1.0000
  Si  Si7       1.0  0.03692627000000007  0.8767478449999999  0.5188319367994241  1.0000
  Si  Si8       1.0  0.53807497  0.8732587350000001  0.472185948113895  1.0000
  Si  Si9       1.0  0.20629834000000008  0.6232587350000001  0.45720867291068457  1.0000
  Si  Si10      1.0  0.20629834000000008  0.12325873500000002  0.4871632233171054  1.0000
  Si  Si11      1.0  0.8698516000000003  0.12325873500000002  0.45720867291068457  1.0000
  Si  Si12      1.0  0.8698516000000003  0.6232587350000001  0.4871632233171054  1.0000
  W   W1        1.0  0.8218775300000001  0.6232572350000001  0.5094646475783356  1.0000
  W   W2        1.0  0.2642107800000001  0.623256455  0.5239788811922693  1.0000
  W   W3        1.0  0.53940801  0.373308025  0.5164678929779608  1.0000
  W   W4        1.0  0.53940895  0.8731992650000001  0.5164679072230931  1.0000
  W   W5        1.0  0.4630738700000001  0.12325873500000002  0.4921222957815645  1.0000
  W   W6        1.0  0.6130760700000001  0.12325873500000002  0.45224960400750863  1.0000
  W   W7        1.0  0.25628518000000006  0.12325847500000002  0.5092114545954236  1.0000
  W   W8        1.0  0.6130760700000001  0.6232587350000001  0.4921222957815645  1.0000
  W   W9        1.0  0.4630738700000001  0.6232587350000001  0.45224960400750863  1.0000
  W   W10       1.0  0.8005849100000002  0.12325794500000002  0.5222880872560399  1.0000
  W   W11       1.0  0.31415179000000004  0.12325873500000002  0.4655084425951073  1.0000
  W   W12       1.0  0.7619981500000002  0.12325873500000002  0.4788634536326827  1.0000
  W   W13       1.0  0.03807497000000006  0.8732587350000001  0.472185948113895  1.0000
  W   W14       1.0  0.03807497000000006  0.37325873500000006  0.472185948113895  1.0000
  W   W15       1.0  0.9630738700000001  0.6232587350000001  0.4476062570958243  1.0000
  W   W16       1.0  0.11307607000000008  0.6232587350000001  0.4967656426932488  1.0000
  W   W17       1.0  0.7619981500000002  0.6232587350000001  0.4655084425951073  1.0000
  W   W18       1.0  0.11307607000000008  0.12325873500000002  0.4476062570958243  1.0000
  W   W19       1.0  0.9630738700000001  0.12325873500000002  0.4967656426932488  1.0000
  W   W20       1.0  0.31415179000000004  0.6232587350000001  0.4788634536326827  1.0000
