data_image0
_chemical_formula_structural       COV30Pt10
_chemical_formula_sum              "C1 O1 V30 Pt10"
_cell_length_a       6.81659339
_cell_length_b       10.777980495158424
_cell_length_c       103.39435117
_cell_angle_alpha    75.03678255330213
_cell_angle_beta     90.0
_cell_angle_gamma    71.565051200372

_space_group_name_H-M_alt    "P 1"
_space_group_IT_number       1

loop_
  _space_group_symop_operation_xyz
  'x, y, z'

loop_
  _atom_site_type_symbol
  _atom_site_label
  _atom_site_symmetry_multiplicity
  _atom_site_fract_x
  _atom_site_fract_y
  _atom_site_fract_z
  _atom_site_occupancy
  C   C1        1.0  0.9121524599999999  0.605411435  0.5386720301412051  1.0000
  O   O1        1.0  0.9704208600000002  0.650612685  0.5473493093625129  1.0000
  V   V1        1.0  0.75595473  0.27500929500000004  0.4889859881088935  1.0000
  V   V2        1.0  0.5571434699999999  0.6708274150000001  0.5052102991734613  1.0000
  V   V3        1.0  0.95595473  0.875009295  0.47283696701049066  1.0000
  V   V4        1.0  0.35969311000000004  0.07490900500000006  0.5202953064889494  1.0000
  V   V5        1.0  0.15595472999999993  0.4750092950000001  0.45668794591208783  1.0000
  V   V6        1.0  0.06370610999999995  0.17552563500000004  0.5049018431810691  1.0000
  V   V7        1.0  0.8697177500000001  0.5603484850000001  0.5222359375841487  1.0000
  V   V8        1.0  0.2559547299999999  0.7750092950000002  0.4889859881088935  1.0000
  V   V9        1.0  0.6559547300000002  0.975009295  0.4566879459120878  1.0000
  V   V10       1.0  0.45595473000000003  0.375009295  0.47283696701049066  1.0000
  V   V11       1.0  0.60595473  0.5750092950000001  0.4809114775596921  1.0000
  V   V12       1.0  0.40595473000000004  0.975009295  0.4970604986580949  1.0000
  V   V13       1.0  0.8059547300000001  0.17500929500000006  0.4647624564612892  1.0000
  V   V14       1.0  0.19736375  0.37284314500000004  0.5135170972421421  1.0000
  V   V15       1.0  0.99404527  0.7763451150000001  0.5278958432689127  1.0000
  V   V16       1.0  0.40595473  0.4750092950000001  0.4970604986580948  1.0000
  V   V17       1.0  0.2103428199999999  0.8724585950000001  0.5127778467331248  1.0000
  V   V18       1.0  0.60595473  0.07500929500000005  0.48091147755969205  1.0000
  V   V19       1.0  0.97980864  0.28628485500000006  0.5281267193639481  1.0000
  V   V20       1.0  0.8059547300000001  0.6750092950000001  0.46476245646128933  1.0000
  V   V21       1.0  0.05595472999999999  0.42500929500000006  0.4849487328342928  1.0000
  V   V22       1.0  0.85512077  0.8270872049999999  0.5008812052491787  1.0000
  V   V23       1.0  0.25595472999999996  0.025009295000000046  0.4687997117358899  1.0000
  V   V24       1.0  0.6462859200000001  0.23284160500000003  0.5168921715960154  1.0000
  V   V25       1.0  0.45595473000000003  0.6250092950000001  0.45265069063748714  1.0000
  V   V26       1.0  0.9559547299999999  0.6250092950000001  0.49302324338349424  1.0000
  V   V27       1.0  0.7515988100000001  0.024990705000000044  0.5091542357147428  1.0000
  V   V28       1.0  0.15595473  0.22500929500000003  0.4768742222850914  1.0000
  V   V29       1.0  0.5608905899999997  0.4464193350000001  0.5231970691834498  1.0000
  V   V30       1.0  0.35595473000000005  0.8250092950000001  0.4607252011866885  1.0000
  Pt  Pt1       1.0  0.8089050999999999  0.4248879250000001  0.5043654372962646  1.0000
  Pt  Pt2       1.0  0.60356947  0.822403145  0.5202650012359562  1.0000
  Pt  Pt3       1.0  0.00595472999999997  0.025009295000000046  0.48898598810889343  1.0000
  Pt  Pt4       1.0  0.40595473000000004  0.22500929500000003  0.45668794591208783  1.0000
  Pt  Pt5       1.0  0.20595472999999997  0.6250092950000001  0.47283696701049066  1.0000
  Pt  Pt6       1.0  0.8059547300000001  0.42500929500000006  0.4647624564612892  1.0000
  Pt  Pt7       1.0  0.60595473  0.8250092950000001  0.48091147755969205  1.0000
  Pt  Pt8       1.0  0.0067885499999999705  0.030867705000000044  0.52761766669108  1.0000
  Pt  Pt9       1.0  0.40595473000000004  0.22500929500000003  0.4970604986580949  1.0000
  Pt  Pt10      1.0  0.20252237999999992  0.6250411850000002  0.5134047388129479  1.0000
