data_image0
_chemical_formula_structural       COAl18V6
_chemical_formula_sum              "C1 O1 Al18 V6"
_cell_length_a       4.965518064266292
_cell_length_b       7.30558996890711
_cell_length_c       35.09267685
_cell_angle_alpha    91.40206015140356
_cell_angle_beta     92.0630410846611
_cell_angle_gamma    85.06619305823406

_space_group_name_H-M_alt    "P 1"
_space_group_IT_number       1

loop_
  _space_group_symop_operation_xyz
  'x, y, z'

loop_
  _atom_site_type_symbol
  _atom_site_label
  _atom_site_symmetry_multiplicity
  _atom_site_fract_x
  _atom_site_fract_y
  _atom_site_fract_z
  _atom_site_occupancy
  C   C1        1.0  0.8618379849999999  0.964102575  0.64764834996699  1.0000
  O   O1        1.0  0.8150654949999998  0.973975815  0.6800084914959514  1.0000
  Al  Al1       1.0  0.7244061150000001  0.604611465  0.5800093748140953  1.0000
  Al  Al2       1.0  0.080930615  0.17746012499999997  0.5370797957311073  1.0000
  Al  Al3       1.0  0.4125349550000001  0.7403099049999998  0.4857778628428507  1.0000
  Al  Al4       1.0  0.5772565249999999  0.22756799499999994  0.5690243042216617  1.0000
  Al  Al5       1.0  0.909601975  0.8116826249999999  0.5200998273271719  1.0000
  Al  Al6       1.0  0.24586829500000001  0.383167045  0.47393598181110513  1.0000
  Al  Al7       1.0  0.23893226499999998  0.536262575  0.5472652820203084  1.0000
  Al  Al8       1.0  0.579201625  0.09745275499999997  0.49761975382177803  1.0000
  Al  Al9       1.0  0.9207983749999998  0.9366256949999998  0.5915655329998903  1.0000
  Al  Al10      1.0  0.745868295  0.31173847499999996  0.4384103387158681  1.0000
  Al  Al11      1.0  0.079201625  0.883167045  0.39104280464170404  1.0000
  Al  Al12      1.0  0.412534955  0.45459561499999995  0.34367527056753977  1.0000
  Al  Al13      1.0  0.579201625  0.9545956149999999  0.42656845768412255  1.0000
  Al  Al14      1.0  0.912534955  0.5260241849999999  0.3792009236099584  1.0000
  Al  Al15      1.0  0.24586829499999996  0.09745275499999997  0.33183338953579417  1.0000
  Al  Al16      1.0  0.24586829499999996  0.24030990499999993  0.40288468567344965  1.0000
  Al  Al17      1.0  0.579201625  0.811738475  0.35551715159928554  1.0000
  Al  Al18      1.0  0.912534955  0.668881325  0.4502522197476138  1.0000
  V   V1        1.0  0.079201625  0.026024184999999977  0.4620941007793596  1.0000
  V   V2        1.0  0.40359035500000007  0.8839610649999998  0.5535788576905945  1.0000
  V   V3        1.0  0.745397315  0.452188145  0.5095352439977945  1.0000
  V   V4        1.0  0.07920162500000003  0.7403099049999998  0.31999150850404867  1.0000
  V   V5        1.0  0.4125349550000001  0.597452755  0.41472656670519525  1.0000
  V   V6        1.0  0.745868295  0.16888132499999994  0.3673590425782128  1.0000
