data_image0
_chemical_formula_structural       COV18Sn6V18Sn6
_chemical_formula_sum              "C1 O1 V36 Sn12"
_cell_length_a       4.54236436
_cell_length_b       15.006023204886597
_cell_length_c       104.03046191
_cell_angle_alpha    79.10660533648101
_cell_angle_beta     90.0
_cell_angle_gamma    90.0

_space_group_name_H-M_alt    "P 1"
_space_group_IT_number       1

loop_
  _space_group_symop_operation_xyz
  'x, y, z'

loop_
  _atom_site_type_symbol
  _atom_site_label
  _atom_site_symmetry_multiplicity
  _atom_site_fract_x
  _atom_site_fract_y
  _atom_site_fract_z
  _atom_site_occupancy
  C   C1        1.0  0.24978273999999995  0.13526691999999998  0.5517867613997769  1.0000
  O   O1        1.0  0.24976296999999997  0.18577596000000002  0.5601834911629996  1.0000
  V   V1        1.0  0.24991955999999999  0.6183522899999999  0.4544387736894218  1.0000
  V   V2        1.0  0.24991955999999999  0.28501894999999994  0.4907854583739907  1.0000
  V   V3        1.0  0.24991955999999999  0.95168562  0.4726121176673071  1.0000
  V   V4        1.0  0.7499195599999999  0.9018772700000001  0.48618987801789815  1.0000
  V   V5        1.0  0.7499195599999999  0.56854394  0.4680165373112146  1.0000
  V   V6        1.0  0.7499195599999999  0.23521061000000004  0.44984319333332934  1.0000
  V   V7        1.0  0.7499195599999999  0.7179689899999999  0.4761631935215693  1.0000
  V   V8        1.0  0.7499195599999999  0.38463565  0.45798985281488563  1.0000
  V   V9        1.0  0.7499195599999999  0.05130232  0.4398165088370004  1.0000
  V   V10       1.0  0.24991955999999999  0.434444  0.4444120891930929  1.0000
  V   V11       1.0  0.24991955999999999  0.10111067  0.4807587738776618  1.0000
  V   V12       1.0  0.24991955999999999  0.76777733  0.46258543317097817  1.0000
  V   V13       1.0  0.24991955999999999  0.6183522899999999  0.47887874559168747  1.0000
  V   V14       1.0  0.24991955999999999  0.28501894999999994  0.4607054048850039  1.0000
  V   V15       1.0  0.24991955999999999  0.95168562  0.44253206090711866  1.0000
  V   V16       1.0  0.7499195599999999  0.7179689899999999  0.4517232216193036  1.0000
  V   V17       1.0  0.7499195599999999  0.38463565  0.4880699063038725  1.0000
  V   V18       1.0  0.7499195599999999  0.05130232  0.4698965655971889  1.0000
  Sn  Sn1       1.0  0.24991955999999999  0.77927175  0.4895321072737417  1.0000
  Sn  Sn2       1.0  0.24991955999999999  0.44593841  0.4713587665670581  1.0000
  Sn  Sn3       1.0  0.24991955999999999  0.11260508  0.45318542258917294  1.0000
  Sn  Sn4       1.0  0.7499195599999999  0.55704953  0.4410698599372494  1.0000
  Sn  Sn5       1.0  0.7499195599999999  0.22371619000000004  0.4774165446218182  1.0000
  Sn  Sn6       1.0  0.7499195599999999  0.8903828600000001  0.4592432039151347  1.0000
  V   V19       1.0  0.24991955999999999  0.6183522899999999  0.508958802351876  1.0000
  V   V20       1.0  0.24987457999999996  0.27236282  0.542616134020376  1.0000
  V   V21       1.0  0.24992873999999998  0.9435527800000001  0.5274035710158269  1.0000
  V   V22       1.0  0.7500358500000001  0.9314012700000001  0.5395717476751587  1.0000
  V   V23       1.0  0.7500993899999999  0.5930364899999999  0.5230627518445732  1.0000
  V   V24       1.0  0.7499195599999999  0.23521061000000004  0.5043632219957835  1.0000
  V   V25       1.0  0.7502370300000001  0.7341339200000001  0.5322912533236422  1.0000
  V   V26       1.0  0.7499195599999999  0.38463565  0.5125098782061381  1.0000
  V   V27       1.0  0.7499195599999999  0.05130232  0.49433653749945455  1.0000
  V   V28       1.0  0.24991955999999999  0.434444  0.498932117855547  1.0000
  V   V29       1.0  0.24985944999999998  0.09939115999999998  0.5351235251399885  1.0000
  V   V30       1.0  0.24996101999999998  0.75498917  0.5182169311043283  1.0000
  V   V31       1.0  0.25016516  0.6309161000000001  0.5346699141489868  1.0000
  V   V32       1.0  0.24991955999999999  0.28501894999999994  0.5152254302762563  1.0000
  V   V33       1.0  0.24991955999999999  0.95168562  0.49705208956957275  1.0000
  V   V34       1.0  0.7499195599999999  0.7179689899999999  0.5062432502817578  1.0000
  V   V35       1.0  0.7500406299999999  0.37642783  0.5367247881633846  1.0000
  V   V36       1.0  0.74989404  0.048314380000000004  0.5239669545074497  1.0000
  Sn  Sn7       1.0  0.25042202999999996  0.78633202  0.5459107345801326  1.0000
  Sn  Sn8       1.0  0.25003535  0.45457379000000003  0.5268408654496537  1.0000
  Sn  Sn9       1.0  0.24991955999999999  0.11260508  0.507705451251627  1.0000
  Sn  Sn10      1.0  0.7499195599999999  0.55704953  0.4955898885997035  1.0000
  Sn  Sn11      1.0  0.7498576699999999  0.20896861  0.5325362074459215  1.0000
  Sn  Sn12      1.0  0.7499195599999999  0.8903828600000001  0.5137632293063871  1.0000
