data_image0
_chemical_formula_structural       COCo12Ga6Ni6Co12Ga6Ni6
_chemical_formula_sum              "C1 O1 Co24 Ga12 Ni12"
_cell_length_a       6.724764402271796
_cell_length_b       8.764588823945735
_cell_length_c       103.03813170000001
_cell_angle_alpha    90.24453373549105
_cell_angle_beta     90.15935382814256
_cell_angle_gamma    90.60069479005915

_space_group_name_H-M_alt    "P 1"
_space_group_IT_number       1

loop_
  _space_group_symop_operation_xyz
  'x, y, z'

loop_
  _atom_site_type_symbol
  _atom_site_label
  _atom_site_symmetry_multiplicity
  _atom_site_fract_x
  _atom_site_fract_y
  _atom_site_fract_z
  _atom_site_occupancy
  C   C1        1.0  0.94217656  0.10668539500000006  0.5456560148920718  1.0000
  O   O1        1.0  0.88627101  0.13309044500000008  0.5562155318359208  1.0000
  Co  Co1       1.0  0.75220671  0.20867831500000003  0.5224970061131975  1.0000
  Co  Co2       1.0  0.18540186999999994  0.04216460500000006  0.5084497836456239  1.0000
  Co  Co3       1.0  0.61352747  0.3749999950000001  0.49340730468454713  1.0000
  Co  Co4       1.0  0.48327949000000003  0.3705174050000001  0.5162434419541293  1.0000
  Co  Co5       1.0  0.89924175  0.20833333500000004  0.5010415857462813  1.0000
  Co  Co6       1.0  0.02932967999999996  0.07228735500000005  0.5299508374768309  1.0000
  Co  Co7       1.0  0.04209889999999995  0.20833333500000004  0.4781387393546802  1.0000
  Co  Co8       1.0  0.47067032000000003  0.04166666500000006  0.4628701740248133  1.0000
  Co  Co9       1.0  0.89924175  0.3749999950000001  0.4476016119013448  1.0000
  Co  Co10      1.0  0.7563846099999999  0.3749999950000001  0.470504458292946  1.0000
  Co  Co11      1.0  0.18495603999999996  0.20833333500000004  0.4552358929630791  1.0000
  Co  Co12      1.0  0.32781318  0.04166666500000006  0.48577302362281294  1.0000
  Ga  Ga1       1.0  0.9706703200000001  0.458333335  0.48959016415368006  1.0000
  Ga  Ga2       1.0  0.12666776999999999  0.3093765850000001  0.5212692023578078  1.0000
  Ga  Ga3       1.0  0.54193338  0.12177184500000007  0.504407345520012  1.0000
  Ga  Ga4       1.0  0.2563846099999999  0.458333335  0.4437844681640792  1.0000
  Ga  Ga5       1.0  0.39924175000000006  0.29166666500000005  0.47432159882381314  1.0000
  Ga  Ga6       1.0  0.8278131799999999  0.12499999500000003  0.45905303349394616  1.0000
  Ni  Ni1       1.0  0.82619601  0.455864965  0.5126879820224555  1.0000
  Ni  Ni2       1.0  0.2563846099999999  0.29166666500000005  0.49722444521541426  1.0000
  Ni  Ni3       1.0  0.39487475000000005  0.12196342500000004  0.5262121671378971  1.0000
  Ni  Ni4       1.0  0.11352746999999998  0.458333335  0.46668731776207895  1.0000
  Ni  Ni5       1.0  0.5420989  0.29166666500000005  0.451418752432212  1.0000
  Ni  Ni6       1.0  0.68495604  0.12499999500000006  0.4819558798855473  1.0000
  Co  Co13      1.0  0.76081915  0.707321615  0.5222120502668648  1.0000
  Co  Co14      1.0  0.18070924999999996  0.5468069050000002  0.5084783398311898  1.0000
  Co  Co15      1.0  0.61352747  0.8749999950000001  0.4934073046845472  1.0000
  Co  Co16      1.0  0.48380924  0.870669385  0.5163245959016564  1.0000
  Co  Co17      1.0  0.89924175  0.7083333350000001  0.5010415857462813  1.0000
  Co  Co18      1.0  0.041972219999999956  0.567478085  0.529098666519021  1.0000
  Co  Co19      1.0  0.04209889999999995  0.7083333350000002  0.4781387393546802  1.0000
  Co  Co20      1.0  0.47067032000000003  0.541666665  0.4628701740248133  1.0000
  Co  Co21      1.0  0.89924175  0.8749999950000001  0.44760161190134484  1.0000
  Co  Co22      1.0  0.7563846099999999  0.8749999950000001  0.47050445829294607  1.0000
  Co  Co23      1.0  0.18495603999999996  0.7083333350000001  0.4552358929630791  1.0000
  Co  Co24      1.0  0.32781318  0.541666665  0.48577302362281294  1.0000
  Ga  Ga7       1.0  0.9706703200000001  0.9583333350000001  0.48959016415368  1.0000
  Ga  Ga8       1.0  0.12648323999999997  0.816875035  0.5221192089965904  1.0000
  Ga  Ga9       1.0  0.54087048  0.621142535  0.5043491044965872  1.0000
  Ga  Ga10      1.0  0.2563846099999999  0.9583333350000001  0.4437844681640792  1.0000
  Ga  Ga11      1.0  0.39924175000000006  0.7916666650000002  0.47432159882381314  1.0000
  Ga  Ga12      1.0  0.8278131799999999  0.6249999950000001  0.45905303349394616  1.0000
  Ni  Ni7       1.0  0.8263234500000001  0.9563493350000001  0.5126947956193931  1.0000
  Ni  Ni8       1.0  0.2563846099999999  0.791666665  0.49722444521541426  1.0000
  Ni  Ni9       1.0  0.39565754999999997  0.624047225  0.5260407210069499  1.0000
  Ni  Ni10      1.0  0.11352746999999998  0.9583333350000001  0.46668731776207883  1.0000
  Ni  Ni11      1.0  0.5420989  0.791666665  0.451418752432212  1.0000
  Ni  Ni12      1.0  0.68495604  0.6249999950000001  0.4819558798855473  1.0000
