data_image0
_chemical_formula_structural       CORh12W4Rh12W4
_chemical_formula_sum              "C1 O1 Rh24 W8"
_cell_length_a       7.04975666431913
_cell_length_b       5.517900708349791
_cell_length_c       112.29853997000001
_cell_angle_alpha    66.96122544329558
_cell_angle_beta     76.98162511222901
_cell_angle_gamma    66.9612255406869

_space_group_name_H-M_alt    "P 1"
_space_group_IT_number       1

loop_
  _space_group_symop_operation_xyz
  'x, y, z'

loop_
  _atom_site_type_symbol
  _atom_site_label
  _atom_site_symmetry_multiplicity
  _atom_site_fract_x
  _atom_site_fract_y
  _atom_site_fract_z
  _atom_site_occupancy
  C   C1        1.0  0.55721639  0.20198371  0.5617073267205764  1.0000
  O   O1        1.0  0.5452427  0.1250737699999999  0.5730838985979417  1.0000
  Rh  Rh1       1.0  0.70100314  0.19341711999999986  0.521178813437817  1.0000
  Rh  Rh2       1.0  0.20519435  0.19116641999999992  0.4896930206884508  1.0000
  Rh  Rh3       1.0  0.28676430999999997  0.3430876699999999  0.5279628793352436  1.0000
  Rh  Rh4       1.0  0.78799697  0.3583637999999999  0.4948911155443548  1.0000
  Rh  Rh5       1.0  0.038793039999999994  0.35836379999999995  0.5106353227011651  1.0000
  Rh  Rh6       1.0  0.57973624  0.32638090999999997  0.5435425682686377  1.0000
  Rh  Rh7       1.0  0.94976125  0.7018759200000001  0.5358720030922018  1.0000
  Rh  Rh8       1.0  0.45439828  0.69275855  0.505337276941452  1.0000
  Rh  Rh9       1.0  0.7007633799999999  0.6947314700000001  0.5211577203920931  1.0000
  Rh  Rh10      1.0  0.20519435  0.6927585499999999  0.4896930206884508  1.0000
  Rh  Rh11      1.0  0.28635035  0.85090065  0.5279645630122861  1.0000
  Rh  Rh12      1.0  0.78799697  0.85995592  0.4948911155443548  1.0000
  W   W1        1.0  0.96173767  0.2044501299999999  0.534895602239025  1.0000
  W   W2        1.0  0.45492899  0.1922278399999999  0.5053705964204652  1.0000
  W   W3        1.0  0.03826233  0.8588945  0.5106020032221518  1.0000
  W   W4        1.0  0.54446678  0.87492623  0.539732610518442  1.0000
  Rh  Rh13      1.0  0.7051943500000001  0.19116641999999984  0.4583045610452545  1.0000
  Rh  Rh14      1.0  0.20519435  0.19116641999999992  0.4269161014020584  1.0000
  Rh  Rh15      1.0  0.28799697  0.35836379999999984  0.46350265590115847  1.0000
  Rh  Rh16      1.0  0.78799697  0.3583637999999999  0.4321141962579623  1.0000
  Rh  Rh17      1.0  0.038793039999999994  0.35836379999999995  0.4478583996481573  1.0000
  Rh  Rh18      1.0  0.53879304  0.3583637999999999  0.4792468592913535  1.0000
  Rh  Rh19      1.0  0.95439828  0.6927585499999999  0.4739488172982558  1.0000
  Rh  Rh20      1.0  0.45439828  0.69275855  0.44256035765505963  1.0000
  Rh  Rh21      1.0  0.7051943500000001  0.6927585499999998  0.4583045610452545  1.0000
  Rh  Rh22      1.0  0.20519435  0.6927585499999999  0.4269161014020584  1.0000
  Rh  Rh23      1.0  0.28799697  0.85995592  0.46350265590115847  1.0000
  Rh  Rh24      1.0  0.78799697  0.85995592  0.4321141962579623  1.0000
  W   W5        1.0  0.9549289900000001  0.1922278399999999  0.4739821330106538  1.0000
  W   W6        1.0  0.45492899  0.1922278399999999  0.4425936733674575  1.0000
  W   W7        1.0  0.03826233  0.8588945  0.44782508393575937  1.0000
  W   W8        1.0  0.53826233  0.8588945  0.4792135435789555  1.0000
