data_image0
_chemical_formula_structural       COV18Pt6V18Pt6
_chemical_formula_sum              "C1 O1 V36 Pt12"
_cell_length_a       10.777980491499664
_cell_length_b       4.82005941
_cell_length_c       110.89956033
_cell_angle_alpha    90.0
_cell_angle_beta     108.43494880611134
_cell_angle_gamma    90.0

_space_group_name_H-M_alt    "P 1"
_space_group_IT_number       1

loop_
  _space_group_symop_operation_xyz
  'x, y, z'

loop_
  _atom_site_type_symbol
  _atom_site_label
  _atom_site_symmetry_multiplicity
  _atom_site_fract_x
  _atom_site_fract_y
  _atom_site_fract_z
  _atom_site_occupancy
  C   C1        1.0  0.662567115  0.35082598499999995  0.5592208988395073  1.0000
  O   O1        1.0  0.724706895  0.17206038499999998  0.5668697775881305  1.0000
  V   V1        1.0  0.960889275  0.13718387499999998  0.5404581898758437  1.0000
  V   V2        1.0  0.622444055  0.125720065  0.4997187876700825  1.0000
  V   V3        1.0  0.2891107249999999  0.125720065  0.5202075792498294  1.0000
  V   V4        1.0  0.783153615  0.156088945  0.5496349664536608  1.0000
  V   V5        1.0  0.455777385  0.125720065  0.509963183459956  1.0000
  V   V6        1.0  0.12103213499999996  0.125013145  0.5315375842288785  1.0000
  V   V7        1.0  0.9593944950000001  0.627466085  0.5253262551217753  1.0000
  V   V8        1.0  0.615997535  0.623689485  0.5460333273033613  1.0000
  V   V9        1.0  0.2891107249999999  0.625720065  0.5048409855650192  1.0000
  V   V10       1.0  0.11806605499999998  0.631189815  0.5448434404177825  1.0000
  V   V11       1.0  0.789110725  0.625720065  0.5048409855650192  1.0000
  V   V12       1.0  0.456109395  0.617247965  0.5247004598639814  1.0000
  V   V13       1.0  0.705706245  0.881547575  0.5256184096948485  1.0000
  V   V14       1.0  0.364813905  0.858278375  0.5444328794885391  1.0000
  V   V15       1.0  0.03911072499999998  0.8757200650000001  0.5048409855650192  1.0000
  V   V16       1.0  0.706380365  0.377416015  0.5258584604555512  1.0000
  V   V17       1.0  0.394052865  0.44835350500000004  0.5470187487683821  1.0000
  V   V18       1.0  0.03911072499999998  0.375720065  0.5048409855650192  1.0000
  Pt  Pt1       1.0  0.876803015  0.6448626749999999  0.5456600002423011  1.0000
  Pt  Pt2       1.0  0.539110725  0.625720065  0.5048409855650192  1.0000
  Pt  Pt3       1.0  0.20513841499999996  0.616245025  0.5250207758690522  1.0000
  Pt  Pt4       1.0  0.872444055  0.125720065  0.5150853813548927  1.0000
  Pt  Pt5       1.0  0.533252005  0.11845242499999999  0.5353297482270606  1.0000
  Pt  Pt6       1.0  0.20577738499999998  0.125720065  0.4945965897751458  1.0000
  V   V19       1.0  0.955777385  0.125720065  0.4792299997783178  1.0000
  V   V20       1.0  0.622444055  0.125720065  0.43825241661882414  1.0000
  V   V21       1.0  0.2891107249999999  0.125720065  0.4587412081985709  1.0000
  V   V22       1.0  0.789110725  0.125720065  0.4894743918802091  1.0000
  V   V23       1.0  0.455777385  0.125720065  0.4484968124086975  1.0000
  V   V24       1.0  0.12244405499999995  0.125720065  0.4689856039884444  1.0000
  V   V25       1.0  0.955777385  0.625720065  0.4638634060935077  1.0000
  V   V26       1.0  0.622444055  0.625720065  0.4843521939852724  1.0000
  V   V27       1.0  0.2891107249999999  0.625720065  0.4433746145137608  1.0000
  V   V28       1.0  0.12244405499999995  0.625720065  0.4843521939852723  1.0000
  V   V29       1.0  0.789110725  0.625720065  0.4433746145137608  1.0000
  V   V30       1.0  0.455777385  0.625720065  0.4638634060935077  1.0000
  V   V31       1.0  0.705777385  0.8757200650000001  0.46386340609350774  1.0000
  V   V32       1.0  0.37244405499999994  0.8757200650000001  0.4843521939852724  1.0000
  V   V33       1.0  0.03911072499999998  0.8757200650000001  0.4433746145137608  1.0000
  V   V34       1.0  0.705777385  0.375720065  0.46386340609350774  1.0000
  V   V35       1.0  0.37244405499999994  0.375720065  0.4843521939852724  1.0000
  V   V36       1.0  0.03911072499999998  0.375720065  0.4433746145137608  1.0000
  Pt  Pt7       1.0  0.872444055  0.625720065  0.4843521939852724  1.0000
  Pt  Pt8       1.0  0.539110725  0.625720065  0.4433746145137608  1.0000
  Pt  Pt9       1.0  0.20577738499999998  0.625720065  0.46386340609350774  1.0000
  Pt  Pt10      1.0  0.872444055  0.125720065  0.4536190103036342  1.0000
  Pt  Pt11      1.0  0.539110725  0.125720065  0.4741078018833811  1.0000
  Pt  Pt12      1.0  0.20577738499999998  0.125720065  0.43313022241186955  1.0000
