data_image0
_chemical_formula_structural       COGa4Pt4Ga4Pt4
_chemical_formula_sum              "C1 O1 Ga8 Pt8"
_cell_length_a       4.9988332
_cell_length_b       4.9988332
_cell_length_c       104.99183239999999
_cell_angle_alpha    90.0
_cell_angle_beta     90.0
_cell_angle_gamma    90.0

_space_group_name_H-M_alt    "P 1"
_space_group_IT_number       1

loop_
  _space_group_symop_operation_xyz
  'x, y, z'

loop_
  _atom_site_type_symbol
  _atom_site_label
  _atom_site_symmetry_multiplicity
  _atom_site_fract_x
  _atom_site_fract_y
  _atom_site_fract_z
  _atom_site_occupancy
  C   C1        1.0  0.65492064  0.890198215  0.5444026455200314  1.0000
  O   O1        1.0  0.6463846  0.8693929350000001  0.5554658306483722  1.0000
  Ga  Ga1       1.0  0.09223741999999997  0.077832715  0.47770632077820735  1.0000
  Ga  Ga2       1.0  0.9077625800000001  0.5778327150000001  0.4451173519361254  1.0000
  Ga  Ga3       1.0  0.5922374200000001  0.39335787499999997  0.46892317085439467  1.0000
  Ga  Ga4       1.0  0.40776258  0.8933578750000001  0.45390050185993813  1.0000
  Pt  Pt1       1.0  0.39551384  0.38110913500000004  0.4445341693516278  1.0000
  Pt  Pt2       1.0  0.60448616  0.8811091350000001  0.4782895033627049  1.0000
  Pt  Pt3       1.0  0.8955138400000001  0.09008145499999999  0.45448368444443576  1.0000
  Pt  Pt4       1.0  0.10448615999999998  0.5900814550000001  0.46833998826989703  1.0000
  Ga  Ga5       1.0  0.15103735999999998  0.09328387499999999  0.5239994604524453  1.0000
  Ga  Ga6       1.0  0.9077625800000001  0.5778327150000001  0.4927289897726638  1.0000
  Ga  Ga7       1.0  0.62606889  0.423614215  0.5191052753681888  1.0000
  Ga  Ga8       1.0  0.42210534  0.8955379450000001  0.5015066572162701  1.0000
  Pt  Pt5       1.0  0.39551384  0.38110913500000004  0.49214580718816625  1.0000
  Pt  Pt6       1.0  0.65752361  0.9221672850000001  0.5263551038916026  1.0000
  Pt  Pt7       1.0  0.90007028  0.09163286500000001  0.5019506447941867  1.0000
  Pt  Pt8       1.0  0.13085079999999996  0.5925405650000001  0.5157018316435301  1.0000
