data_image0
_chemical_formula_structural       CONiPtNiPtNiPtNiPtNiPtNiPtNiPtNiPtNiPtNiPtNiPtNiPt
_chemical_formula_sum              "C1 O1 Ni12 Pt12"
_cell_length_a       5.46079288
_cell_length_b       7.28651632
_cell_length_c       100.03436079
_cell_angle_alpha    90.0
_cell_angle_beta     90.0
_cell_angle_gamma    90.0

_space_group_name_H-M_alt    "P 1"
_space_group_IT_number       1

loop_
  _space_group_symop_operation_xyz
  'x, y, z'

loop_
  _atom_site_type_symbol
  _atom_site_label
  _atom_site_symmetry_multiplicity
  _atom_site_fract_x
  _atom_site_fract_y
  _atom_site_fract_z
  _atom_site_occupancy
  C   C1        1.0  0.11752380499999995  0.37629288  0.5354936295238729  1.0000
  O   O1        1.0  0.11754750499999995  0.37554975999999995  0.5474218250346363  1.0000
  Ni  Ni1       1.0  0.3675360549999999  0.38025088  0.4525781749653637  1.0000
  Pt  Pt1       1.0  0.11753605499999996  0.13025088  0.466225466187321  1.0000
  Ni  Ni2       1.0  0.3675360549999999  0.38025088  0.47987276041168286  1.0000
  Pt  Pt2       1.0  0.11752029499999996  0.11974912  0.49399365691309843  1.0000
  Ni  Ni3       1.0  0.37487340499999994  0.37914105  0.5061476932850201  1.0000
  Pt  Pt3       1.0  0.11752558499999996  0.16877845  0.5219404456663419  1.0000
  Ni  Ni4       1.0  0.3675360549999999  0.88025088  0.4525781749653637  1.0000
  Pt  Pt4       1.0  0.11753605499999996  0.6302508800000001  0.466225466187321  1.0000
  Ni  Ni5       1.0  0.3675360549999999  0.88025088  0.47987276041168286  1.0000
  Pt  Pt5       1.0  0.11752464499999994  0.6389171999999999  0.49399078661446416  1.0000
  Ni  Ni6       1.0  0.3526190349999999  0.87798618  0.5093952740598211  1.0000
  Pt  Pt6       1.0  0.11751873499999996  0.58641237  0.5220971471583065  1.0000
  Ni  Ni7       1.0  0.867536055  0.38025088  0.4525781749653637  1.0000
  Pt  Pt7       1.0  0.6175360549999999  0.13025088  0.466225466187321  1.0000
  Ni  Ni8       1.0  0.867536055  0.38025088  0.47987276041168286  1.0000
  Pt  Pt8       1.0  0.617559065  0.12085213  0.49364164300821073  1.0000
  Ni  Ni9       1.0  0.8601694350000001  0.3791428499999999  0.506145831794274  1.0000
  Pt  Pt9       1.0  0.6175388249999999  0.13205048  0.5202951190319713  1.0000
  Ni  Ni10      1.0  0.867536055  0.88025088  0.4525781749653637  1.0000
  Pt  Pt10      1.0  0.6175360549999999  0.6302508800000001  0.466225466187321  1.0000
  Ni  Ni11      1.0  0.867536055  0.88025088  0.47987276041168286  1.0000
  Pt  Pt11      1.0  0.617557775  0.63840201  0.49363359956674513  1.0000
  Ni  Ni12      1.0  0.882481265  0.87797567  0.5093925388693862  1.0000
  Pt  Pt12      1.0  0.617525915  0.62424449  0.5203618264535774  1.0000
