data_image0
_chemical_formula_structural       COIn4Pd12
_chemical_formula_sum              "C1 O1 In4 Pd12"
_cell_length_a       4.84723598801667
_cell_length_b       5.93950631
_cell_length_c       107.55381263999999
_cell_angle_alpha    90.0
_cell_angle_beta     89.9569536578637
_cell_angle_gamma    90.0

_space_group_name_H-M_alt    "P 1"
_space_group_IT_number       1

loop_
  _space_group_symop_operation_xyz
  'x, y, z'

loop_
  _atom_site_type_symbol
  _atom_site_label
  _atom_site_symmetry_multiplicity
  _atom_site_fract_x
  _atom_site_fract_y
  _atom_site_fract_z
  _atom_site_occupancy
  C   C1        1.0  0.30303026499999985  1.2799999999614727e-06  0.5353949089126409  1.0000
  O   O1        1.0  0.3073321749999999  1.4599999999614731e-06  0.5463811692974316  1.0000
  In  In1       1.0  0.6827670049999999  0.5000003199999999  0.4536188307025686  1.0000
  In  In2       1.0  0.057767004999999934  3.1999999996147303e-07  0.4754415186425691  1.0000
  In  In3       1.0  0.798182515  1.3999999996147306e-07  0.517452773241692  1.0000
  In  In4       1.0  0.437939625  0.50000021  0.4974872344533164  1.0000
  Pd  Pd1       1.0  0.557767005  0.7500003199999999  0.4754415186425691  1.0000
  Pd  Pd2       1.0  0.9422327749999999  0.25363203999999995  0.49695395779266416  1.0000
  Pd  Pd3       1.0  0.18276700499999993  0.25000031999999994  0.4536188307025686  1.0000
  Pd  Pd4       1.0  0.29334436499999994  0.7629555499999999  0.5215761229909492  1.0000
  Pd  Pd5       1.0  0.557767005  0.25000031999999994  0.4754415186425691  1.0000
  Pd  Pd6       1.0  0.9422329949999999  0.7463678499999999  0.4969540136587453  1.0000
  Pd  Pd7       1.0  0.18276700499999993  0.7500003199999999  0.4536188307025686  1.0000
  Pd  Pd8       1.0  0.29334418499999987  0.23704456999999993  0.5215759588843358  1.0000
  Pd  Pd9       1.0  0.057767004999999934  0.5000003199999999  0.4754415186425691  1.0000
  Pd  Pd10      1.0  0.43685810499999994  0.99999986  0.4973706419420056  1.0000
  Pd  Pd11      1.0  0.6827670049999999  3.1999999996147303e-07  0.4536188307025686  1.0000
  Pd  Pd12      1.0  0.7910019749999999  0.4999999799999999  0.5184588445469169  1.0000
