data_image0
_chemical_formula_structural       COGa24Ir12
_chemical_formula_sum              "C1 O1 Ga24 Ir12"
_cell_length_a       6.893231934136929
_cell_length_b       11.74904008377239
_cell_length_c       98.76777136999999
_cell_angle_alpha    93.49350560282673
_cell_angle_beta     92.10696046933555
_cell_angle_gamma    95.54774318777339

_space_group_name_H-M_alt    "P 1"
_space_group_IT_number       1

loop_
  _space_group_symop_operation_xyz
  'x, y, z'

loop_
  _atom_site_type_symbol
  _atom_site_label
  _atom_site_symmetry_multiplicity
  _atom_site_fract_x
  _atom_site_fract_y
  _atom_site_fract_z
  _atom_site_occupancy
  C   C1        1.0  0.12445346999999998  0.27284480499999997  0.5336803523202928  1.0000
  O   O1        1.0  0.14090298  0.28815339500000003  0.5455980163900276  1.0000
  Ga  Ga1       1.0  0.47248677  0.20480655499999997  0.5163052108225084  1.0000
  Ga  Ga2       1.0  0.11189905000000001  0.015173534999999995  0.5222343627718383  1.0000
  Ga  Ga3       1.0  0.33350381  0.657983115  0.49532638848560007  1.0000
  Ga  Ga4       1.0  0.53244132  0.49581656499999993  0.5071217729330549  1.0000
  Ga  Ga5       1.0  0.7732357799999998  0.110244745  0.5093746690980856  1.0000
  Ga  Ga6       1.0  0.10156183  0.04222220499999999  0.4957591177248666  1.0000
  Ga  Ga7       1.0  0.9139305499999998  0.41667708499999995  0.519763843714657  1.0000
  Ga  Ga8       1.0  0.82562139  0.8548573549999999  0.5206201651540996  1.0000
  Ga  Ga9       1.0  0.39299136999999995  0.285778335  0.49130059508157514  1.0000
  Ga  Ga10      1.0  0.4788510499999999  0.850041465  0.5114129482442017  1.0000
  Ga  Ga11      1.0  0.8324597499999999  0.516453345  0.4908103319139848  1.0000
  Ga  Ga12      1.0  0.030867480000000013  0.6308684149999999  0.5133470033961288  1.0000
  Ga  Ga13      1.0  0.62340827  0.109545535  0.4819550177101185  1.0000
  Ga  Ga14      1.0  0.37659173  0.909612275  0.4853841248881265  1.0000
  Ga  Ga15      1.0  0.4655550199999999  0.5323553249999999  0.4594720732993997  1.0000
  Ga  Ga16      1.0  0.6594449699999999  0.36180249499999995  0.47145872390750093  1.0000
  Ga  Ga17      1.0  0.8993701899999997  0.984826465  0.47132154307642715  1.0000
  Ga  Ga18      1.0  0.22562980000000002  0.909331355  0.45960925413047354  1.0000
  Ga  Ga19      1.0  0.030475790000000006  0.261610625  0.48426134385445235  1.0000
  Ga  Ga20      1.0  0.9695242099999998  0.7575471850000001  0.48307779874379275  1.0000
  Ga  Ga21      1.0  0.51799137  0.160778335  0.45489224677756296  1.0000
  Ga  Ga22      1.0  0.6070086199999999  0.7333794849999999  0.4760385504293377  1.0000
  Ga  Ga23      1.0  0.9574597499999999  0.39145334499999995  0.4544019836099726  1.0000
  Ga  Ga24      1.0  0.16754025  0.502704465  0.4765288106842601  1.0000
  Ir  Ir1       1.0  0.11303919999999998  0.22440285499999998  0.5150941992538883  1.0000
  Ir  Ir2       1.0  0.74724213  0.927435655  0.49387694883827443  1.0000
  Ir  Ir3       1.0  0.71280099  0.695162635  0.5013969358964034  1.0000
  Ir  Ir4       1.0  0.16799029000000001  0.44418627499999996  0.5007303893316608  1.0000
  Ir  Ir5       1.0  0.12697803  0.833298035  0.5054104902700626  1.0000
  Ir  Ir6       1.0  0.7461086099999998  0.310186105  0.49833980553134793  1.0000
  Ir  Ir7       1.0  0.25229885  0.09950389499999998  0.47409022903021114  1.0000
  Ir  Ir8       1.0  0.8727011499999999  0.7946539149999999  0.4568405652640216  1.0000
  Ir  Ir9       1.0  0.8409045399999998  0.5720776049999999  0.46610186167815637  1.0000
  Ir  Ir10      1.0  0.28409546  0.322080205  0.4648289326160765  1.0000
  Ir  Ir11      1.0  0.25246732  0.709743395  0.46915414245121784  1.0000
  Ir  Ir12      1.0  0.87253268  0.184414415  0.461776651843015  1.0000
