data_image0
_chemical_formula_structural       COV30Ir10
_chemical_formula_sum              "C1 O1 V30 Ir10"
_cell_length_a       10.710065593336143
_cell_length_b       6.77364023
_cell_length_c       103.18392453
_cell_angle_alpha    90.0
_cell_angle_beta     104.96321740385514
_cell_angle_gamma    71.5650511571973

_space_group_name_H-M_alt    "P 1"
_space_group_IT_number       1

loop_
  _space_group_symop_operation_xyz
  'x, y, z'

loop_
  _atom_site_type_symbol
  _atom_site_label
  _atom_site_symmetry_multiplicity
  _atom_site_fract_x
  _atom_site_fract_y
  _atom_site_fract_z
  _atom_site_occupancy
  C   C1        1.0  0.236110195  0.06027307999999995  0.5369023237246927  1.0000
  O   O1        1.0  0.31202931500000003  0.09945976999999998  0.5467753557084072  1.0000
  V   V1        1.0  0.348154965  0.17499999999999996  0.49342461328040566  1.0000
  V   V2        1.0  0.7481549650000001  0.9749999999999999  0.4773446256848805  1.0000
  V   V3        1.0  0.9518450350000001  0.3727959599999998  0.509396234623527  1.0000
  V   V4        1.0  0.148154965  0.775  0.4612646380893553  1.0000
  V   V5        1.0  0.5230759250000001  0.56355145  0.5238699536661648  1.0000
  V   V6        1.0  0.248154965  0.4749999999999999  0.4773446256848805  1.0000
  V   V7        1.0  0.648154965  0.27499999999999997  0.46126463808935536  1.0000
  V   V8        1.0  0.8481549650000002  0.6749999999999999  0.49342461328040566  1.0000
  V   V9        1.0  0.049377945000000006  0.06936945999999998  0.5245915398935165  1.0000
  V   V10       1.0  0.4481850050000001  0.86818157  0.5096568365504925  1.0000
  V   V11       1.0  0.6491137950000001  0.03240673999999994  0.50087912829782  1.0000
  V   V12       1.0  0.04815496500000001  0.825  0.48538461948264305  1.0000
  V   V13       1.0  0.245969085  0.2374650799999999  0.5174780106610577  1.0000
  V   V14       1.0  0.44815496500000007  0.625  0.46930463188711785  1.0000
  V   V15       1.0  0.8481549650000002  0.425  0.4532246442915928  1.0000
  V   V16       1.0  0.548154965  0.825  0.48538461948264305  1.0000
  V   V17       1.0  0.9481549650000001  0.625  0.46930463188711796  1.0000
  V   V18       1.0  0.14972582500000003  0.031074799999999972  0.5014739720629438  1.0000
  V   V19       1.0  0.348154965  0.425  0.4532246442915928  1.0000
  V   V20       1.0  0.7552088250000001  0.2373957199999999  0.5169552952882925  1.0000
  V   V21       1.0  0.4981549650000001  0.4749999999999999  0.4974446101792869  1.0000
  V   V22       1.0  0.898154965  0.27499999999999997  0.4813646225837618  1.0000
  V   V23       1.0  0.09042526499999999  0.68255283  0.5127184308127078  1.0000
  V   V24       1.0  0.298154965  0.075  0.4652846349882367  1.0000
  V   V25       1.0  0.6908555650000001  0.9033882299999998  0.5269419420323618  1.0000
  V   V26       1.0  0.6981549650000001  0.3749999999999999  0.4894046163815243  1.0000
  V   V27       1.0  0.098154965  0.17499999999999996  0.47332462878599924  1.0000
  V   V28       1.0  0.295809265  0.5715664099999999  0.5049622198520286  1.0000
  V   V29       1.0  0.4981549650000001  0.975  0.4572446411904741  1.0000
  V   V30       1.0  0.8824106749999999  0.7942359200000001  0.520781827424417  1.0000
  Ir  Ir1       1.0  0.4981549650000001  0.22499999999999992  0.4773446256848805  1.0000
  Ir  Ir2       1.0  0.898154965  0.024999999999999967  0.46126463808935547  1.0000
  Ir  Ir3       1.0  0.098154965  0.425  0.49342461328040566  1.0000
  Ir  Ir4       1.0  0.294728035  0.81572705  0.524226498447118  1.0000
  Ir  Ir5       1.0  0.7001545950000001  0.6217051299999999  0.5102093288442873  1.0000
  Ir  Ir6       1.0  0.500300065  0.22185131999999988  0.5169667056474903  1.0000
  Ir  Ir7       1.0  0.8990871950000001  0.02634692999999994  0.5013630265805297  1.0000
  Ir  Ir8       1.0  0.098154965  0.425  0.4532246442915928  1.0000
  Ir  Ir9       1.0  0.298154965  0.825  0.48538461948264305  1.0000
  Ir  Ir10      1.0  0.6981549650000001  0.625  0.46930463188711796  1.0000
