data_image0
_chemical_formula_structural       COV30Ir10
_chemical_formula_sum              "C1 O1 V30 Ir10"
_cell_length_a       6.77364023
_cell_length_b       10.710065593336145
_cell_length_c       103.18392453
_cell_angle_alpha    75.03678259614487
_cell_angle_beta     90.0
_cell_angle_gamma    71.56505115719732

_space_group_name_H-M_alt    "P 1"
_space_group_IT_number       1

loop_
  _space_group_symop_operation_xyz
  'x, y, z'

loop_
  _atom_site_type_symbol
  _atom_site_label
  _atom_site_symmetry_multiplicity
  _atom_site_fract_x
  _atom_site_fract_y
  _atom_site_fract_z
  _atom_site_occupancy
  C   C1        1.0  0.3698324349999999  0.7019786700000001  0.5314314424090573  1.0000
  O   O1        1.0  0.29706254499999996  0.6741898700000001  0.5436882360738827  1.0000
  V   V1        1.0  0.765596485  0.27504478000000004  0.49249173601604873  1.0000
  V   V2        1.0  0.5751718049999999  0.6733738400000001  0.508295012753035  1.0000
  V   V3        1.0  0.9655964849999997  0.8750447800000002  0.4764117484205236  1.0000
  V   V4        1.0  0.37303940500000005  0.06438531000000002  0.5238660430131816  1.0000
  V   V5        1.0  0.16559648499999996  0.4750447800000001  0.4603317608249985  1.0000
  V   V6        1.0  0.07446875499999997  0.17436306000000001  0.5084555778611713  1.0000
  V   V7        1.0  0.8891370350000001  0.5699071000000001  0.5242134447131879  1.0000
  V   V8        1.0  0.26559648499999994  0.7750447800000001  0.49249173601604873  1.0000
  V   V9        1.0  0.6655964849999999  0.97504478  0.4603317608249985  1.0000
  V   V10       1.0  0.46559648499999995  0.37504478  0.47641174842052353  1.0000
  V   V11       1.0  0.6155964849999999  0.5750447800000001  0.4844517422182862  1.0000
  V   V12       1.0  0.4155964849999999  0.97504478  0.5005317298138112  1.0000
  V   V13       1.0  0.815596485  0.17504478  0.46837175462276104  1.0000
  V   V14       1.0  0.21092791500000002  0.37222411000000005  0.5166228737047303  1.0000
  V   V15       1.0  0.03377105500000004  0.7819290600000001  0.532968698871182  1.0000
  V   V16       1.0  0.4155964849999999  0.4750447800000001  0.5005317298138113  1.0000
  V   V17       1.0  0.20563041499999993  0.8795162300000001  0.5161249954808049  1.0000
  V   V18       1.0  0.6155964849999999  0.07504478000000003  0.48445174221828613  1.0000
  V   V19       1.0  0.9922771450000001  0.2859555  0.5314827407854845  1.0000
  V   V20       1.0  0.8155964849999999  0.6750447800000001  0.46837175462276104  1.0000
  V   V21       1.0  0.06559648499999998  0.42504478000000007  0.48847173911716746  1.0000
  V   V22       1.0  0.866486235  0.8240114400000002  0.5051833261134622  1.0000
  V   V23       1.0  0.265596485  0.02504478000000002  0.47239175152164226  1.0000
  V   V24       1.0  0.657566405  0.23568678  0.5201026795003274  1.0000
  V   V25       1.0  0.4655964849999999  0.6250447800000001  0.4563117639261172  1.0000
  V   V26       1.0  0.965596485  0.6250447800000001  0.49651173291493  1.0000
  V   V27       1.0  0.7565884649999999  0.02495522000000002  0.5127543406410061  1.0000
  V   V28       1.0  0.165596485  0.22504478000000003  0.4804317453194048  1.0000
  V   V29       1.0  0.5728581349999999  0.44870366000000006  0.5271982184426642  1.0000
  V   V30       1.0  0.365596485  0.8250447800000001  0.46435175772387977  1.0000
  Ir  Ir1       1.0  0.8155948050000001  0.42534748000000006  0.5080377779754719  1.0000
  Ir  Ir2       1.0  0.613069385  0.8049683800000001  0.5248021748670278  1.0000
  Ir  Ir3       1.0  0.015596484999999988  0.02504478000000002  0.4924917360160487  1.0000
  Ir  Ir4       1.0  0.415596485  0.22504478000000003  0.4603317608249985  1.0000
  Ir  Ir5       1.0  0.21559648499999995  0.6250447800000001  0.47641174842052353  1.0000
  Ir  Ir6       1.0  0.8155964849999999  0.42504478000000007  0.46837175462276104  1.0000
  Ir  Ir7       1.0  0.6155964849999999  0.8250447800000001  0.4844517422182862  1.0000
  Ir  Ir8       1.0  0.007722854999999988  0.03919094000000002  0.5304485949752485  1.0000
  Ir  Ir9       1.0  0.415596485  0.22504478000000003  0.5005317298138112  1.0000
  Ir  Ir10      1.0  0.22220863499999993  0.6201873600000001  0.5170069538564419  1.0000
