data_image0
_chemical_formula_structural       COGa10Pd26
_chemical_formula_sum              "C1 O1 Ga10 Pd26"
_cell_length_a       12.545944423273964
_cell_length_b       5.57428587
_cell_length_c       98.87347325
_cell_angle_alpha    90.0
_cell_angle_beta     80.53837045689444
_cell_angle_gamma    102.39290872705128

_space_group_name_H-M_alt    "P 1"
_space_group_IT_number       1

loop_
  _space_group_symop_operation_xyz
  'x, y, z'

loop_
  _atom_site_type_symbol
  _atom_site_label
  _atom_site_symmetry_multiplicity
  _atom_site_fract_x
  _atom_site_fract_y
  _atom_site_fract_z
  _atom_site_occupancy
  C   C1        1.0  0.65077161  0.45252061999999993  0.5420891154464574  1.0000
  O   O1        1.0  0.63932287  0.43326754  0.5540099425504493  1.0000
  Ga  Ga1       1.0  0.11549716999999997  0.57502242  0.4697880919630139  1.0000
  Ga  Ga2       1.0  0.90368436  0.93046593  0.4742062702843304  1.0000
  Ga  Ga3       1.0  0.32730997999999994  0.21957890999999996  0.4653699107214528  1.0000
  Ga  Ga4       1.0  0.46917731999999995  0.88749163  0.48326960586358403  1.0000
  Ga  Ga5       1.0  0.7618170199999998  0.2625532099999999  0.45630657514219913  1.0000
  Ga  Ga6       1.0  0.11405549999999998  0.57064395  0.5111277032549383  1.0000
  Ga  Ga7       1.0  0.89671647  0.93298212  0.5160620873847177  1.0000
  Ga  Ga8       1.0  0.32332103999999995  0.21929817  0.5071011151416112  1.0000
  Ga  Ga9       1.0  0.47551331999999996  0.88211379  0.5233583829188221  1.0000
  Ga  Ga10      1.0  0.76607488  0.27494780999999996  0.497391015455533  1.0000
  Pd  Pd1       1.0  0.11549716999999997  0.07502241999999998  0.4697880919630139  1.0000
  Pd  Pd2       1.0  0.89002538  0.45079966  0.4744911810345616  1.0000
  Pd  Pd3       1.0  0.34096895999999993  0.69924518  0.46508499997122155  1.0000
  Pd  Pd4       1.0  0.69048562  0.9821506300000001  0.4786533590278033  1.0000
  Pd  Pd5       1.0  0.54050872  0.16789420999999996  0.4609228219779798  1.0000
  Pd  Pd6       1.0  0.6664933200000001  0.46572131  0.479153813036558  1.0000
  Pd  Pd7       1.0  0.56450102  0.6843235299999999  0.46042236796922514  1.0000
  Pd  Pd8       1.0  0.43576694999999993  0.40422247999999994  0.48396651057125994  1.0000
  Pd  Pd9       1.0  0.7952273899999999  0.7458223600000001  0.45560967335476793  1.0000
  Pd  Pd10      1.0  0.25640324  0.9482854199999999  0.44599005744955067  1.0000
  Pd  Pd11      1.0  0.9745911  0.20175941999999997  0.4518683435007868  1.0000
  Pd  Pd12      1.0  0.20558543999999995  0.4232272999999999  0.44705005953804583  1.0000
  Pd  Pd13      1.0  0.025408899999999963  0.72681754  0.4508083414122916  1.0000
  Pd  Pd14      1.0  0.11010724999999996  0.06846524999999999  0.5114318730187174  1.0000
  Pd  Pd15      1.0  0.8985644699999998  0.4537592  0.5162674857132843  1.0000
  Pd  Pd16      1.0  0.3300704199999999  0.70241201  0.5082855722171238  1.0000
  Pd  Pd17      1.0  0.69763208  0.017849369999999976  0.5188899179844212  1.0000
  Pd  Pd18      1.0  0.54424314  0.17242104999999996  0.5019616947936033  1.0000
  Pd  Pd19      1.0  0.6732055699999999  0.50866838  0.5229004272306378  1.0000
  Pd  Pd20      1.0  0.56246735  0.68308875  0.5021629259330368  1.0000
  Pd  Pd21      1.0  0.43919352999999994  0.38621756999999995  0.524380921188545  1.0000
  Pd  Pd22      1.0  0.79270679  0.7418182499999999  0.4974755682194848  1.0000
  Pd  Pd23      1.0  0.25640324  0.9482854199999999  0.48770783750499647  1.0000
  Pd  Pd24      1.0  0.9745911  0.20175941999999997  0.49358612647647726  1.0000
  Pd  Pd25      1.0  0.20558543999999995  0.4232272999999999  0.4887678395934916  1.0000
  Pd  Pd26      1.0  0.025408899999999963  0.72681754  0.49252612146773733  1.0000
