data_image0
_chemical_formula_structural       COV18Sb6V18Sb6
_chemical_formula_sum              "C1 O1 V36 Sb12"
_cell_length_a       4.95031387
_cell_length_b       11.069238324928168
_cell_length_c       112.00480608000001
_cell_angle_alpha    71.56505116070964
_cell_angle_beta     90.0
_cell_angle_gamma    90.0

_space_group_name_H-M_alt    "P 1"
_space_group_IT_number       1

loop_
  _space_group_symop_operation_xyz
  'x, y, z'

loop_
  _atom_site_type_symbol
  _atom_site_label
  _atom_site_symmetry_multiplicity
  _atom_site_fract_x
  _atom_site_fract_y
  _atom_site_fract_z
  _atom_site_occupancy
  C   C1        1.0  0.62788091  0.712019585  0.5575683530126974  1.0000
  O   O1        1.0  0.6304762  0.7971250650000001  0.56330286559265  1.0000
  V   V1        1.0  0.12499999999999999  0.7918590749999999  0.4471145468655218  1.0000
  V   V2        1.0  0.12499999999999999  0.458525745  0.48878419294794057  1.0000
  V   V3        1.0  0.12499999999999999  0.12519240499999998  0.4679493680315971  1.0000
  V   V4        1.0  0.12499999999999999  0.6251924049999998  0.4366971344073501  1.0000
  V   V5        1.0  0.12499999999999999  0.29185907499999997  0.47836678048976883  1.0000
  V   V6        1.0  0.12499999999999999  0.958525745  0.45753195932369345  1.0000
  V   V7        1.0  0.625  0.7918590749999999  0.4627406618025113  1.0000
  V   V8        1.0  0.625  0.458525745  0.44190584063643595  1.0000
  V   V9        1.0  0.625  0.12519240499999998  0.48357548671885464  1.0000
  V   V10       1.0  0.625  0.958525745  0.44190584063643595  1.0000
  V   V11       1.0  0.625  0.6251924049999998  0.4835754867188547  1.0000
  V   V12       1.0  0.625  0.29185907499999997  0.4627406618025112  1.0000
  V   V13       1.0  0.8750000000000001  0.541859075  0.4627406618025112  1.0000
  V   V14       1.0  0.8750000000000001  0.20852574499999998  0.44190584063643595  1.0000
  V   V15       1.0  0.8750000000000001  0.8751924049999998  0.48357548671885464  1.0000
  V   V16       1.0  0.375  0.541859075  0.4627406618025112  1.0000
  V   V17       1.0  0.375  0.20852574499999998  0.44190584063643595  1.0000
  V   V18       1.0  0.375  0.8751924049999998  0.48357548671885464  1.0000
  Sb  Sb1       1.0  0.625  0.7085257449999999  0.44190584063643595  1.0000
  Sb  Sb2       1.0  0.625  0.375192405  0.4835754867188547  1.0000
  Sb  Sb3       1.0  0.625  0.04185907499999998  0.4627406618025112  1.0000
  Sb  Sb4       1.0  0.12499999999999999  0.7085257449999999  0.473158074260683  1.0000
  Sb  Sb5       1.0  0.12499999999999999  0.375192405  0.45232325309460764  1.0000
  Sb  Sb6       1.0  0.12499999999999999  0.04185907499999998  0.49399289917702643  1.0000
  V   V19       1.0  0.12499999999999999  0.7918590749999999  0.5096190141140159  1.0000
  V   V20       1.0  0.12542066999999998  0.47054679499999996  0.547730765768328  1.0000
  V   V21       1.0  0.12500236999999997  0.12562634499999997  0.5309562849607022  1.0000
  V   V22       1.0  0.12499999999999999  0.6251924049999998  0.49920160540611236  1.0000
  V   V23       1.0  0.1252887  0.299698645  0.5404395581177649  1.0000
  V   V24       1.0  0.12499999999999999  0.958525745  0.5200364265721876  1.0000
  V   V25       1.0  0.625  0.7918590749999999  0.5252451328012735  1.0000
  V   V26       1.0  0.625  0.458525745  0.5044103116351982  1.0000
  V   V27       1.0  0.62941284  0.11978248499999998  0.5455879975371192  1.0000
  V   V28       1.0  0.625  0.958525745  0.5044103116351981  1.0000
  V   V29       1.0  0.6248419  0.627825695  0.545353249500084  1.0000
  V   V30       1.0  0.625  0.29185907499999997  0.5252451328012735  1.0000
  V   V31       1.0  0.8750000000000001  0.541859075  0.5252451328012735  1.0000
  V   V32       1.0  0.8750000000000001  0.20852574499999998  0.5044103116351981  1.0000
  V   V33       1.0  0.8596063600000001  0.8780354049999999  0.546265685999207  1.0000
  V   V34       1.0  0.375  0.541859075  0.5252451328012735  1.0000
  V   V35       1.0  0.375  0.20852574499999998  0.5044103116351981  1.0000
  V   V36       1.0  0.39493423  0.877078815  0.5462865299897788  1.0000
  Sb  Sb7       1.0  0.625  0.7085257449999999  0.5044103116351982  1.0000
  Sb  Sb8       1.0  0.62529708  0.36695118499999996  0.5481736649404307  1.0000
  Sb  Sb9       1.0  0.625  0.04185907499999998  0.5252451328012735  1.0000
  Sb  Sb10      1.0  0.12516287999999998  0.715514095  0.5356080238605729  1.0000
  Sb  Sb11      1.0  0.12499999999999999  0.375192405  0.5148277203431018  1.0000
  Sb  Sb12      1.0  0.12903473  0.04147425499999998  0.5572466175051131  1.0000
