data_image0
_chemical_formula_structural       CORe30Pd10
_chemical_formula_sum              "C1 O1 Re30 Pd10"
_cell_length_a       14.766696613059752
_cell_length_b       7.134724732807242
_cell_length_c       98.53889892000001
_cell_angle_alpha    85.2919443538335
_cell_angle_beta     81.49850123501777
_cell_angle_gamma    53.74776339670663

_space_group_name_H-M_alt    "P 1"
_space_group_IT_number       1

loop_
  _space_group_symop_operation_xyz
  'x, y, z'

loop_
  _atom_site_type_symbol
  _atom_site_label
  _atom_site_symmetry_multiplicity
  _atom_site_fract_x
  _atom_site_fract_y
  _atom_site_fract_z
  _atom_site_occupancy
  C   C1        1.0  0.55736523  0.50854881  0.5363722382589501  1.0000
  O   O1        1.0  0.5720549699999999  0.40441741  0.5468707808098634  1.0000
  Re  Re1       1.0  0.1441126  0.8705716600000002  0.5066877243132063  1.0000
  Re  Re2       1.0  0.5343883500000001  0.68823538  0.5195811602055198  1.0000
  Re  Re3       1.0  0.74369619  0.07837259999999997  0.49250108013384813  1.0000
  Re  Re4       1.0  0.94237526  0.4772277999999999  0.4629847662706956  1.0000
  Re  Re5       1.0  0.34237526000000007  0.2772277999999999  0.4774657982452712  1.0000
  Re  Re6       1.0  0.25141814000000007  0.07905933999999995  0.49133184685774417  1.0000
  Re  Re7       1.0  0.63992409  0.89306892  0.5061675714370923  1.0000
  Re  Re8       1.0  0.8465502300000001  0.28557773999999997  0.4768612209527455  1.0000
  Re  Re9       1.0  0.05310369000000013  0.6751062499999999  0.5181804070864127  1.0000
  Re  Re10      1.0  0.44655023000000016  0.4855777399999999  0.4623801889781698  1.0000
  Re  Re11      1.0  0.3614935  0.7533997699999999  0.5130458067588531  1.0000
  Re  Re12      1.0  0.7507252000000001  0.5730528199999999  0.4560465389296706  1.0000
  Re  Re13      1.0  0.9524000000000001  0.9723660000000001  0.5001769886208963  1.0000
  Re  Re14      1.0  0.1507252000000001  0.37305282  0.47052757090424624  1.0000
  Re  Re15      1.0  0.5507252000000001  0.17305281999999997  0.48500860287882197  1.0000
  Re  Re16      1.0  0.6507252000000001  0.7133444400000001  0.48209128313928784  1.0000
  Re  Re17      1.0  0.04638652000000008  0.51010122  0.49731211917917423  1.0000
  Re  Re18      1.0  0.2507252000000001  0.91334444  0.4676102511647122  1.0000
  Re  Re19      1.0  0.45148935000000007  0.31734043999999995  0.5097899871045004  1.0000
  Re  Re20      1.0  0.8507252000000001  0.11334443999999995  0.45312921919013655  1.0000
  Re  Re21      1.0  0.5487347600000002  0.5073850799999999  0.4965974020536563  1.0000
  Re  Re22      1.0  0.95762474  0.2935327099999999  0.5097860019245011  1.0000
  Re  Re23      1.0  0.1465502300000001  0.7049945  0.48269586332802  1.0000
  Re  Re24      1.0  0.34655023000000007  0.10499449999999995  0.4537337993788687  1.0000
  Re  Re25      1.0  0.7465502300000001  0.9049945  0.46821482845723794  1.0000
  Re  Re26      1.0  0.4423752600000001  0.81751942  0.4745484785057371  1.0000
  Re  Re27      1.0  0.8454636  0.6120290399999999  0.48879481060268803  1.0000
  Re  Re28      1.0  0.042375260000000095  0.017519419999999963  0.46006744653116155  1.0000
  Re  Re29      1.0  0.24108889000000006  0.42877423  0.5038671523482945  1.0000
  Re  Re30      1.0  0.6388539800000002  0.21557762999999994  0.5164244834884779  1.0000
  Pd  Pd1       1.0  0.34744541000000007  0.6097862799999999  0.4885610635769673  1.0000
  Pd  Pd2       1.0  0.7506761100000001  0.4135159299999999  0.5040883877623892  1.0000
  Pd  Pd3       1.0  0.9465502300000002  0.81195279  0.4749515290686855  1.0000
  Pd  Pd4       1.0  0.15524698000000012  0.19463473999999995  0.5179030489847971  1.0000
  Pd  Pd5       1.0  0.54655023  0.011952789999999961  0.4604704970941098  1.0000
  Pd  Pd6       1.0  0.4426946  0.9880472100000002  0.4988495037311679  1.0000
  Pd  Pd7       1.0  0.8427406900000001  0.7839841500000001  0.5136203098441741  1.0000
  Pd  Pd8       1.0  0.046550230000000095  0.17861944999999993  0.4846055523158736  1.0000
  Pd  Pd9       1.0  0.24655023000000004  0.5786194499999999  0.4556434883667222  1.0000
  Pd  Pd10      1.0  0.6465502300000001  0.37861945  0.4701245203412979  1.0000
