data_image0
_chemical_formula_structural       COIr12V12Ir12V12
_chemical_formula_sum              "C1 O1 Ir24 V24"
_cell_length_a       8.93381519212282
_cell_length_b       9.369797123258786
_cell_length_c       99.62798463
_cell_angle_alpha    89.99739699087284
_cell_angle_beta     87.38686051671564
_cell_angle_gamma    81.71104232784965

_space_group_name_H-M_alt    "P 1"
_space_group_IT_number       1

loop_
  _space_group_symop_operation_xyz
  'x, y, z'

loop_
  _atom_site_type_symbol
  _atom_site_label
  _atom_site_symmetry_multiplicity
  _atom_site_fract_x
  _atom_site_fract_y
  _atom_site_fract_z
  _atom_site_occupancy
  C   C1        1.0  0.2605074600000001  0.05747195499999997  0.5378949351107815  1.0000
  O   O1        1.0  0.20424808000000005  0.07097306499999997  0.5489955965004968  1.0000
  Ir  Ir1       1.0  0.10942827000000004  0.5182158649999999  0.5178056578220153  1.0000
  Ir  Ir2       1.0  0.10701508000000004  0.06104877499999997  0.5051995622221159  1.0000
  Ir  Ir3       1.0  0.38225406000000006  0.313337145  0.51300432244435  1.0000
  Ir  Ir4       1.0  0.4028148400000001  0.759338615  0.5245371513619334  1.0000
  Ir  Ir5       1.0  0.10605143000000004  0.608029995  0.4915570639293548  1.0000
  Ir  Ir6       1.0  0.10605143000000003  0.15348453499999998  0.4780395094614503  1.0000
  Ir  Ir7       1.0  0.3896391899999999  0.411291595  0.48570633603098506  1.0000
  Ir  Ir8       1.0  0.39214964  0.864895055  0.49902647663861754  1.0000
  Ir  Ir9       1.0  0.10605143000000004  0.6989390849999999  0.4645219579674076  1.0000
  Ir  Ir10      1.0  0.10605143000000002  0.244393625  0.45100440349950327  1.0000
  Ir  Ir11      1.0  0.38963919  0.5022006949999999  0.45867123006903804  1.0000
  Ir  Ir12      1.0  0.38963919  0.9567461449999999  0.4721887815630807  1.0000
  V   V1        1.0  0.35267454000000004  0.5929512549999999  0.5071979556407438  1.0000
  V   V2        1.0  0.35344949000000003  0.03833568499999997  0.5196993594138649  1.0000
  V   V3        1.0  0.14324018000000005  0.7902175149999999  0.5118222362152363  1.0000
  V   V4        1.0  0.1470643  0.23844340499999997  0.5230989621121832  1.0000
  V   V5        1.0  0.34996697000000004  0.6895501949999999  0.4791120534953768  1.0000
  V   V6        1.0  0.34996697000000004  0.14409564499999997  0.4926296079632811  1.0000
  V   V7        1.0  0.14572365  0.875225945  0.48463379199705875  1.0000
  V   V8        1.0  0.1419439  0.330148055  0.49853042461402053  1.0000
  V   V9        1.0  0.3499669700000001  0.780459285  0.45207694753342964  1.0000
  V   V10       1.0  0.34996697000000004  0.235004745  0.4655944990274724  1.0000
  V   V11       1.0  0.14572365000000004  0.966135035  0.4575986860351116  1.0000
  V   V12       1.0  0.14572365000000004  0.42068048499999994  0.471116240503016  1.0000
  Ir  Ir13      1.0  0.6155483600000001  0.5198236549999999  0.5179774102298027  1.0000
  Ir  Ir14      1.0  0.6057324300000001  0.05980015499999997  0.5050324847248983  1.0000
  Ir  Ir15      1.0  0.8822952300000001  0.311087885  0.5131539195825802  1.0000
  Ir  Ir16      1.0  0.89021015  0.7563897449999999  0.52401988083421  1.0000
  Ir  Ir17      1.0  0.60605143  0.608029995  0.4915570639293547  1.0000
  Ir  Ir18      1.0  0.6060514300000001  0.15348453499999998  0.47803950946145035  1.0000
  Ir  Ir19      1.0  0.88963919  0.411291595  0.4857063360309851  1.0000
  Ir  Ir20      1.0  0.8939485699999999  0.8650776849999999  0.498816884814743  1.0000
  Ir  Ir21      1.0  0.60605143  0.6989390849999999  0.4645219579674077  1.0000
  Ir  Ir22      1.0  0.60605143  0.244393625  0.45100440349950327  1.0000
  Ir  Ir23      1.0  0.8896391900000001  0.5022006949999999  0.4586712300690381  1.0000
  Ir  Ir24      1.0  0.8896391900000001  0.9567461449999999  0.47218878156308075  1.0000
  V   V13       1.0  0.8537011500000001  0.587199445  0.5066523085248169  1.0000
  V   V14       1.0  0.8536802  0.03386496499999997  0.5187053937272559  1.0000
  V   V15       1.0  0.6375748600000001  0.8035309249999999  0.513764170869764  1.0000
  V   V16       1.0  0.6452639900000001  0.238631945  0.5225147231931628  1.0000
  V   V17       1.0  0.8499669700000002  0.6895501949999999  0.4791120534953768  1.0000
  V   V18       1.0  0.8499669700000001  0.14409564499999997  0.4926296079632811  1.0000
  V   V19       1.0  0.64572365  0.875225945  0.48463379199705875  1.0000
  V   V20       1.0  0.6420066000000001  0.332826395  0.49847446843254517  1.0000
  V   V21       1.0  0.8499669700000001  0.780459285  0.4520769475334296  1.0000
  V   V22       1.0  0.8499669700000001  0.235004745  0.46559449902747235  1.0000
  V   V23       1.0  0.64572365  0.966135035  0.45759868603511156  1.0000
  V   V24       1.0  0.64572365  0.42068048499999994  0.471116240503016  1.0000
