data_image0
_chemical_formula_structural       COSi18V30
_chemical_formula_sum              "C1 O1 Si18 V30"
_cell_length_a       9.75385031939641
_cell_length_b       7.079945878152442
_cell_length_c       107.91162465
_cell_angle_alpha    93.71519782719177
_cell_angle_beta     91.18971150959277
_cell_angle_gamma    75.85189281210963

_space_group_name_H-M_alt    "P 1"
_space_group_IT_number       1

loop_
  _space_group_symop_operation_xyz
  'x, y, z'

loop_
  _atom_site_type_symbol
  _atom_site_label
  _atom_site_symmetry_multiplicity
  _atom_site_fract_x
  _atom_site_fract_y
  _atom_site_fract_z
  _atom_site_occupancy
  C   C1        1.0  0.011732879999999966  0.39753232499999996  0.5398449848809439  1.0000
  O   O1        1.0  0.9882671199999999  0.3161367749999999  0.5490235141638499  1.0000
  Si  Si1       1.0  0.40970129999999993  0.6925508749999998  0.4705395944144895  1.0000
  Si  Si2       1.0  0.76083455  0.534047275  0.5281129629055469  1.0000
  Si  Si3       1.0  0.07636796999999997  0.6092175449999999  0.49981635043737116  1.0000
  Si  Si4       1.0  0.77107015  0.4896799849999998  0.4827156053858758  1.0000
  Si  Si5       1.0  0.10440347999999997  0.5730133249999999  0.45343885287620467  1.0000
  Si  Si6       1.0  0.43148759  0.40889156499999996  0.5117340350449802  1.0000
  Si  Si7       1.0  0.68851003  0.926986685  0.5047410810042697  1.0000
  Si  Si8       1.0  0.021843369999999966  0.010320014999999964  0.47546432849459846  1.0000
  Si  Si9       1.0  0.3797759  0.8523230249999999  0.5316322336352477  1.0000
  Si  Si10      1.0  0.9659662699999999  0.24536159500000002  0.5094829243752053  1.0000
  Si  Si11      1.0  0.29910566999999993  0.3284757649999999  0.48025323834582134  1.0000
  Si  Si12      1.0  0.632439  0.411809095  0.45097648583615013  1.0000
  Si  Si13      1.0  0.27808145999999995  0.36771297499999994  0.5281124429504015  1.0000
  Si  Si14      1.0  0.60440348  0.448013325  0.4973539833973167  1.0000
  Si  Si15      1.0  0.93773682  0.5313466550000001  0.468077227374435  1.0000
  Si  Si16      1.0  0.35363026999999997  0.927373295  0.504605260288594  1.0000
  Si  Si17      1.0  0.6869635999999999  0.010706624999999964  0.4753285042657124  1.0000
  Si  Si18      1.0  0.030466419999999966  0.842627625  0.5329704400849602  1.0000
  V   V1        1.0  0.34612945  0.6086732749999999  0.49370784009893504  1.0000
  V   V2        1.0  0.67946278  0.6920066149999999  0.4644310875892638  1.0000
  V   V3        1.0  0.022185999999999966  0.5084012649999999  0.5242674378881785  1.0000
  V   V4        1.0  0.10440347999999997  0.9480133249999999  0.4973539833973167  1.0000
  V   V5        1.0  0.43773681999999997  0.031346654999999946  0.468077227374435  1.0000
  V   V6        1.0  0.76494463  0.890469125  0.5270175403766177  1.0000
  V   V7        1.0  0.8128422  0.162765055  0.4922460248530423  1.0000
  V   V8        1.0  0.14617552999999994  0.2460983849999999  0.4629692723433711  1.0000
  V   V9        1.0  0.47981052  0.09126062499999993  0.5210009777818616  1.0000
  V   V10       1.0  0.56263144  0.774928255  0.4878235604169398  1.0000
  V   V11       1.0  0.8959647699999999  0.8582615849999999  0.4585468079072686  1.0000
  V   V12       1.0  0.22974980999999997  0.691186945  0.5174919796794922  1.0000
  V   V13       1.0  0.9308159799999999  0.9052569250000001  0.5119543309057262  1.0000
  V   V14       1.0  0.27107015  0.989679985  0.4827156053858758  1.0000
  V   V15       1.0  0.60440348  0.07301332499999996  0.45343885287620467  1.0000
  V   V16       1.0  0.49589395  0.158668785  0.49368513070664  1.0000
  V   V17       1.0  0.8292272900000001  0.24200211499999988  0.4644083781969688  1.0000
  V   V18       1.0  0.16083852999999995  0.07268674499999994  0.5226730375934269  1.0000
  V   V19       1.0  0.69267547  0.2504714249999999  0.5159746521954104  1.0000
  V   V20       1.0  0.02934418999999996  0.32902002499999994  0.48636174868425747  1.0000
  V   V21       1.0  0.36267752000000003  0.41235336499999997  0.45708499266137576  1.0000
  V   V22       1.0  0.14591699999999994  0.6587263949999999  0.47612312922983446  1.0000
  V   V23       1.0  0.51332475  0.500643995  0.5319341729934484  1.0000
  V   V24       1.0  0.81258366  0.5753930549999999  0.5053998817395056  1.0000
  V   V25       1.0  0.8795796799999998  0.779024525  0.4863844545633422  1.0000
  V   V26       1.0  0.21291300999999999  0.8623578549999998  0.45710770205367085  1.0000
  V   V27       1.0  0.55267769  0.689667515  0.5152912835795556  1.0000
  V   V28       1.0  0.90112827  0.179646615  0.5323481170137403  1.0000
  V   V29       1.0  0.22955663999999998  0.2789669149999999  0.503946459553358  1.0000
  V   V30       1.0  0.5628899699999999  0.36230025499999996  0.47466970704368683  1.0000
