data_image0
_chemical_formula_structural       COAl3Cu2Al3Cu2Al3Cu2Al3Cu2Al3Cu2Al3Cu2Al3Cu2Al3Cu2
_chemical_formula_sum              "C1 O1 Al24 Cu16"
_cell_length_a       8.36053902443617
_cell_length_b       8.36053902
_cell_length_c       100.49344618
_cell_angle_alpha    90.0
_cell_angle_beta     90.0
_cell_angle_gamma    120.00000006158065

_space_group_name_H-M_alt    "P 1"
_space_group_IT_number       1

loop_
  _space_group_symop_operation_xyz
  'x, y, z'

loop_
  _atom_site_type_symbol
  _atom_site_label
  _atom_site_symmetry_multiplicity
  _atom_site_fract_x
  _atom_site_fract_y
  _atom_site_fract_z
  _atom_site_occupancy
  C   C1        1.0  0.06500582499999998  0.29688653  0.5462534637959526  1.0000
  O   O1        1.0  0.06493251499999998  0.29680324999999996  0.5583212447194104  1.0000
  Al  Al1       1.0  0.06574679499999997  0.29735206999999997  0.500299358967245  1.0000
  Al  Al2       1.0  0.327106585  0.42803726000000003  0.5332205220828274  1.0000
  Al  Al3       1.0  0.238872815  0.12430925999999998  0.5181553099724392  1.0000
  Cu  Cu1       1.0  0.40389093499999995  0.46642582000000005  0.5081661494728487  1.0000
  Cu  Cu2       1.0  0.23241346499999999  0.13068540999999997  0.4922516167440299  1.0000
  Al  Al4       1.0  0.06574679499999997  0.29735206999999997  0.44972650053817653  1.0000
  Al  Al5       1.0  0.399080135  0.46401875000000004  0.4824960634128963  1.0000
  Al  Al6       1.0  0.23241346499999999  0.13068540999999997  0.46752979609252526  1.0000
  Cu  Cu3       1.0  0.399080135  0.46401875000000004  0.4577742427613917  1.0000
  Cu  Cu4       1.0  0.23241346499999999  0.13068540999999997  0.44167875528058975  1.0000
  Al  Al7       1.0  0.06574679499999997  0.79735207  0.500299358967245  1.0000
  Al  Al8       1.0  0.39911765499999996  0.9640311200000001  0.53451713638844  1.0000
  Al  Al9       1.0  0.238861525  0.6435133599999999  0.5181553919004731  1.0000
  Cu  Cu5       1.0  0.39920878499999995  0.96408219  0.5079370544150011  1.0000
  Cu  Cu6       1.0  0.23241346499999999  0.63068541  0.4922516167440299  1.0000
  Al  Al10      1.0  0.06574679499999997  0.79735207  0.44972650053817653  1.0000
  Al  Al11      1.0  0.399080135  0.9640187499999999  0.4824960634128963  1.0000
  Al  Al12      1.0  0.23241346499999999  0.63068541  0.46752979609252526  1.0000
  Cu  Cu7       1.0  0.399080135  0.9640187499999999  0.4577742427613917  1.0000
  Cu  Cu8       1.0  0.23241346499999999  0.63068541  0.44167875528058975  1.0000
  Al  Al13      1.0  0.565746795  0.29735206999999997  0.500299358967245  1.0000
  Al  Al14      1.0  0.935067485  0.42806677  0.5332095922762264  1.0000
  Al  Al15      1.0  0.7197732849999998  0.12436902999999988  0.5181645921152465  1.0000
  Cu  Cu9       1.0  0.896588205  0.4665407399999999  0.5081657216264492  1.0000
  Cu  Cu10      1.0  0.7324134649999999  0.13068540999999997  0.4922516167440299  1.0000
  Al  Al16      1.0  0.565746795  0.29735206999999997  0.44972650053817653  1.0000
  Al  Al17      1.0  0.899080135  0.46401875  0.4824960634128963  1.0000
  Al  Al18      1.0  0.7324134649999999  0.13068540999999997  0.46752979609252526  1.0000
  Cu  Cu11      1.0  0.899080135  0.46401875  0.4577742427613917  1.0000
  Cu  Cu12      1.0  0.7324134649999999  0.13068540999999997  0.44167875528058975  1.0000
  Al  Al19      1.0  0.565746795  0.79735207  0.500299358967245  1.0000
  Al  Al20      1.0  0.935050115  0.03591780999999996  0.5332059540646455  1.0000
  Al  Al21      1.0  0.7324356249999999  0.63070578  0.521070075773132  1.0000
  Cu  Cu13      1.0  0.8966068049999999  0.95902566  0.5081642924374129  1.0000
  Cu  Cu14      1.0  0.7324134649999999  0.63068541  0.4922516167440299  1.0000
  Al  Al22      1.0  0.565746795  0.79735207  0.44972650053817653  1.0000
  Al  Al23      1.0  0.899080135  0.9640187499999999  0.4824960634128963  1.0000
  Al  Al24      1.0  0.7324134649999999  0.63068541  0.46752979609252526  1.0000
  Cu  Cu15      1.0  0.899080135  0.9640187499999999  0.4577742427613917  1.0000
  Cu  Cu16      1.0  0.7324134649999999  0.63068541  0.44167875528058975  1.0000
