data_image0
_chemical_formula_structural       COPt12Rh4Pt12Rh4
_chemical_formula_sum              "C1 O1 Pt24 Rh8"
_cell_length_a       8.856128607954785
_cell_length_b       5.58740711
_cell_length_c       103.52444269
_cell_angle_alpha    90.0
_cell_angle_beta     71.6117603407426
_cell_angle_gamma    71.6117603407426

_space_group_name_H-M_alt    "P 1"
_space_group_IT_number       1

loop_
  _space_group_symop_operation_xyz
  'x, y, z'

loop_
  _atom_site_type_symbol
  _atom_site_label
  _atom_site_symmetry_multiplicity
  _atom_site_fract_x
  _atom_site_fract_y
  _atom_site_fract_z
  _atom_site_occupancy
  C   C1        1.0  0.82390332  0.5879176249999999  0.5521173095476042  1.0000
  O   O1        1.0  0.79643874  0.6016486249999999  0.564147297953318  1.0000
  Pt  Pt1       1.0  0.37275507  0.060694845000000025  0.5239863667453422  1.0000
  Pt  Pt2       1.0  0.3710763900000001  0.564305155  0.49657104875826696  1.0000
  Pt  Pt3       1.0  0.37284293  0.5663074250000001  0.5239890674974038  1.0000
  Pt  Pt4       1.0  0.3710763900000001  0.06430515499999996  0.49657104875826696  1.0000
  Pt  Pt5       1.0  0.61617078  0.19170222500000003  0.5302322509621383  1.0000
  Pt  Pt6       1.0  0.62107639  0.6893051549999999  0.5033175306467835  1.0000
  Pt  Pt7       1.0  0.8789142  0.3093610549999999  0.5098162104378567  1.0000
  Pt  Pt8       1.0  0.8607423500000001  0.8182965349999999  0.5372246081525627  1.0000
  Pt  Pt9       1.0  0.87892361  0.8114086650000001  0.5098143225020629  1.0000
  Pt  Pt10      1.0  0.86076535  0.320782865  0.5372194106620842  1.0000
  Pt  Pt11      1.0  0.12695509000000002  0.43645442500000003  0.5180557548528553  1.0000
  Pt  Pt12      1.0  0.12107639000000002  0.9393051550000001  0.48982456686975046  1.0000
  Rh  Rh1       1.0  0.12107639000000002  0.43930515499999995  0.48982456686975046  1.0000
  Rh  Rh2       1.0  0.12363391000000001  0.938079255  0.5179755256774005  1.0000
  Rh  Rh3       1.0  0.62107639  0.189305155  0.5033175306467835  1.0000
  Rh  Rh4       1.0  0.61981451  0.6900851450000001  0.5293210029679382  1.0000
  Pt  Pt13      1.0  0.3710763900000001  0.06430515499999996  0.4695851179658888  1.0000
  Pt  Pt14      1.0  0.3710763900000001  0.564305155  0.44259918393519887  1.0000
  Pt  Pt15      1.0  0.3710763900000001  0.564305155  0.4695851179658888  1.0000
  Pt  Pt16      1.0  0.3710763900000001  0.06430515499999996  0.44259918393519887  1.0000
  Pt  Pt17      1.0  0.62107639  0.189305155  0.4763315998544054  1.0000
  Pt  Pt18      1.0  0.62107639  0.6893051549999999  0.4493456690620272  1.0000
  Pt  Pt19      1.0  0.87107639  0.314305155  0.4560921509505439  1.0000
  Pt  Pt20      1.0  0.87107639  0.8143051549999999  0.48307808174292205  1.0000
  Pt  Pt21      1.0  0.87107639  0.8143051549999999  0.4560921509505439  1.0000
  Pt  Pt22      1.0  0.87107639  0.314305155  0.48307808174292205  1.0000
  Pt  Pt23      1.0  0.12107639000000002  0.43930515499999995  0.4628386328390604  1.0000
  Pt  Pt24      1.0  0.12107639000000002  0.9393051550000001  0.43585270204668225  1.0000
  Rh  Rh5       1.0  0.12107639000000002  0.43930515499999995  0.43585270204668225  1.0000
  Rh  Rh6       1.0  0.12107639000000002  0.9393051550000001  0.4628386328390604  1.0000
  Rh  Rh7       1.0  0.62107639  0.189305155  0.4493456690620272  1.0000
  Rh  Rh8       1.0  0.62107639  0.6893051549999999  0.4763315998544054  1.0000
