data_image0
_chemical_formula_structural       COAg8Al4
_chemical_formula_sum              "C1 O1 Ag8 Al4"
_cell_length_a       4.667067
_cell_length_b       5.114678438266393
_cell_length_c       100.9133108
_cell_angle_alpha    94.18712017499581
_cell_angle_beta     90.0
_cell_angle_gamma    90.0

_space_group_name_H-M_alt    "P 1"
_space_group_IT_number       1

loop_
  _space_group_symop_operation_xyz
  'x, y, z'

loop_
  _atom_site_type_symbol
  _atom_site_label
  _atom_site_symmetry_multiplicity
  _atom_site_fract_x
  _atom_site_fract_y
  _atom_site_fract_z
  _atom_site_occupancy
  C   C1        1.0  0.74999628  0.9682665  0.5393134062656747  1.0000
  O   O1        1.0  0.74999425  0.9052448300000001  0.55016888827108  1.0000
  Ag  Ag1       1.0  0.24999715000000003  0.8761589900000001  0.4798102680590846  1.0000
  Ag  Ag2       1.0  0.24999715000000003  0.37009636999999995  0.4657171005446713  1.0000
  Ag  Ag3       1.0  0.74999715  0.03173349999999999  0.46392427924333324  1.0000
  Ag  Ag4       1.0  0.74999715  0.52567088  0.44983111172892  1.0000
  Ag  Ag5       1.0  0.25000612000000005  0.41964726999999996  0.522799963078669  1.0000
  Ag  Ag6       1.0  0.25000026000000003  0.9184954900000001  0.5095243800118006  1.0000
  Ag  Ag7       1.0  0.7500028499999999  0.59638114  0.5090109804048366  1.0000
  Ag  Ag8       1.0  0.74999715  0.09709945  0.49359329863775653  1.0000
  Al  Al1       1.0  0.24999715000000003  0.84125034  0.45049079257525854  1.0000
  Al  Al2       1.0  0.74999715  0.56057952  0.47915058721274606  1.0000
  Al  Al3       1.0  0.24999777000000004  0.40289516  0.4947682569265368  1.0000
  Al  Al4       1.0  0.74999958  0.11067173999999999  0.5212452715340488  1.0000
