data_image0
_chemical_formula_structural       COSi12V20
_chemical_formula_sum              "C1 O1 Si12 V20"
_cell_length_a       7.079945879553532
_cell_length_b       7.079945880964986
_cell_length_c       99.98689046
_cell_angle_alpha    83.77558377605283
_cell_angle_beta     83.77558377480703
_cell_angle_gamma    83.55508868364359

_space_group_name_H-M_alt    "P 1"
_space_group_IT_number       1

loop_
  _space_group_symop_operation_xyz
  'x, y, z'

loop_
  _atom_site_type_symbol
  _atom_site_label
  _atom_site_symmetry_multiplicity
  _atom_site_fract_x
  _atom_site_fract_y
  _atom_site_fract_z
  _atom_site_occupancy
  C   C1        1.0  0.914907545  0.5003100549999999  0.5402663660660981  1.0000
  O   O1        1.0  0.8960641349999999  0.5249524050000001  0.5517701946300382  1.0000
  Si  Si1       1.0  0.691912165  0.023699064999999984  0.4885399925257987  1.0000
  Si  Si2       1.0  0.392857145  0.39285714499999996  0.4492994250417474  1.0000
  Si  Si3       1.0  0.952270495  0.6204835949999999  0.4671179771550805  1.0000
  Si  Si4       1.0  0.30808783500000003  0.976300935  0.47432490366985075  1.0000
  Si  Si5       1.0  0.4642857150000001  0.464285715  0.4707214404124656  1.0000
  Si  Si6       1.0  0.9048723649999999  0.23665926499999998  0.4529028882991325  1.0000
  Si  Si7       1.0  0.818382325  0.15555202499999998  0.5284931449424756  1.0000
  Si  Si8       1.0  0.5357142850000002  0.535714285  0.4921434557831839  1.0000
  Si  Si9       1.0  0.08711450500000004  0.754964495  0.5090392682760584  1.0000
  Si  Si10      1.0  0.4547668350000001  0.11610991499999998  0.5174525606151472  1.0000
  Si  Si11      1.0  0.610686115  0.5868473949999999  0.5162143325414097  1.0000
  Si  Si12      1.0  0.04772950500000002  0.37951640499999995  0.49574691904056906  1.0000
  V   V1        1.0  0.5895320050000001  0.139462875  0.46321315112163447  1.0000
  V   V2        1.0  0.8928571450000001  0.892857145  0.44929942504174747  1.0000
  V   V3        1.0  0.210891445  0.6609605849999999  0.4846351694914349  1.0000
  V   V4        1.0  0.7891085550000001  0.3390394249999999  0.47822972970329686  1.0000
  V   V5        1.0  0.964285715  0.9642857149999999  0.4707214404124657  1.0000
  V   V6        1.0  0.160931675  0.310437645  0.4696518207406801  1.0000
  V   V7        1.0  0.26761085500000004  0.7176799849999999  0.45680771433257866  1.0000
  V   V8        1.0  0.618133785  0.7676397549999999  0.4717910600842512  1.0000
  V   V9        1.0  0.6962111849999999  0.546705215  0.450369044713533  1.0000
  V   V10       1.0  0.23900907500000002  0.08950310499999999  0.4482298053699619  1.0000
  V   V11       1.0  0.7311717249999999  0.281996215  0.505287407431747  1.0000
  V   V12       1.0  0.03571428500000002  0.035714284999999985  0.49214345578318397  1.0000
  V   V13       1.0  0.337897055  0.798765925  0.523707620423017  1.0000
  V   V14       1.0  0.9399079350000001  0.46010797499999995  0.5204369803140955  1.0000
  V   V15       1.0  0.11779114500000001  0.11006239499999998  0.5137754339004738  1.0000
  V   V16       1.0  0.307705895  0.4500767249999999  0.511390902621875  1.0000
  V   V17       1.0  0.413348455  0.8521021049999999  0.5006412442645103  1.0000
  V   V18       1.0  0.7574361650000001  0.903642795  0.5146118989229432  1.0000
  V   V19       1.0  0.8390683250000001  0.689562355  0.4932130754549695  1.0000
  V   V20       1.0  0.38186621499999995  0.232360245  0.4910738361113983  1.0000
