data_image0
_chemical_formula_structural       COAl18Rh4
_chemical_formula_sum              "C1 O1 Al18 Rh4"
_cell_length_a       6.399851992614613
_cell_length_b       6.48542389
_cell_length_c       34.76928226
_cell_angle_alpha    90.0
_cell_angle_beta     85.04612685268874
_cell_angle_gamma    90.0

_space_group_name_H-M_alt    "P 1"
_space_group_IT_number       1

loop_
  _space_group_symop_operation_xyz
  'x, y, z'

loop_
  _atom_site_type_symbol
  _atom_site_label
  _atom_site_symmetry_multiplicity
  _atom_site_fract_x
  _atom_site_fract_y
  _atom_site_fract_z
  _atom_site_occupancy
  C   C1        1.0  0.28552911500000006  0.6248381949999999  0.6190693193112073  1.0000
  O   O1        1.0  0.26600776500000006  0.629446015  0.652934367894681  1.0000
  Al  Al1       1.0  0.04827997500000003  0.508219055  0.5183927547074537  1.0000
  Al  Al2       1.0  0.045205445000000025  0.012323574999999972  0.3896996120546877  1.0000
  Al  Al3       1.0  0.25738484500000003  0.618001875  0.3795646693099986  1.0000
  Al  Al4       1.0  0.8381876750000001  0.11030157499999996  0.5251969529164483  1.0000
  Al  Al5       1.0  0.4453024350000001  0.5335911349999999  0.44815205483936355  1.0000
  Al  Al6       1.0  0.645108455  0.03359113499999997  0.45790607848365344  1.0000
  Al  Al7       1.0  0.693717535  0.4468465649999999  0.5767499601174947  1.0000
  Al  Al8       1.0  0.483848575  0.987676425  0.5726085883652702  1.0000
  Al  Al9       1.0  0.4382146350000001  0.310412205  0.5163131875079169  1.0000
  Al  Al10      1.0  0.656960715  0.816010995  0.3889817092998325  1.0000
  Al  Al11      1.0  0.6602688750000001  0.713096255  0.514532879870298  1.0000
  Al  Al12      1.0  0.43345017500000005  0.20863615499999996  0.39041751480954273  1.0000
  Al  Al13      1.0  0.14156319500000006  0.22558341499999998  0.45879535582274095  1.0000
  Al  Al14      1.0  0.9488476950000001  0.7255834149999999  0.4472627775002759  1.0000
  Al  Al15      1.0  0.954794555  0.8147342750000001  0.574916263212193  1.0000
  Al  Al16      1.0  0.12900008500000004  0.230932075  0.5778185966190902  1.0000
  Al  Al17      1.0  0.259486635  0.8970824150000001  0.5069929554633179  1.0000
  Al  Al18      1.0  0.8330260450000001  0.4066452749999999  0.3998345446666629  1.0000
  Rh  Rh1       1.0  0.32249277500000006  0.6187189149999999  0.5641196745382658  1.0000
  Rh  Rh2       1.0  0.780968375  0.13519056499999996  0.34706563210531877  1.0000
  Rh  Rh3       1.0  0.780968375  0.38945658499999997  0.47372455145167397  1.0000
  Rh  Rh4       1.0  0.3094425150000001  0.8894565849999998  0.432333581871343  1.0000
