data_image0
_chemical_formula_structural       COV2Fe2V2Fe2V2Fe2V2Fe2V2Fe2V2Fe2V2Fe2V2Fe2
_chemical_formula_sum              "C1 O1 V16 Fe16"
_cell_length_a       5.74721068
_cell_length_b       8.12778328
_cell_length_c       98.44724151
_cell_angle_alpha    90.0
_cell_angle_beta     90.0
_cell_angle_gamma    90.0

_space_group_name_H-M_alt    "P 1"
_space_group_IT_number       1

loop_
  _space_group_symop_operation_xyz
  'x, y, z'

loop_
  _atom_site_type_symbol
  _atom_site_label
  _atom_site_symmetry_multiplicity
  _atom_site_fract_x
  _atom_site_fract_y
  _atom_site_fract_z
  _atom_site_occupancy
  C   C1        1.0  0.2520715699999999  0.25209864500000007  0.5357039384018663  1.0000
  O   O1        1.0  0.25206727  0.25209883499999997  0.547588624486987  1.0000
  V   V1        1.0  0.25206478  0.252095425  0.47305132184708615  1.0000
  V   V2        1.0  0.25206478  0.0020954249999999715  0.45241137551301297  1.0000
  Fe  Fe1       1.0  0.0020647799999999623  0.252095425  0.45241137551301297  1.0000
  Fe  Fe2       1.0  0.0020647799999999623  0.0020954249999999715  0.47305132184708615  1.0000
  V   V3        1.0  0.25207029999999997  0.25209576499999997  0.5154838469749254  1.0000
  V   V4        1.0  0.25208217  0.0031177949999999714  0.4942208351380237  1.0000
  Fe  Fe3       1.0  0.99793522  0.252096405  0.4937084150233188  1.0000
  Fe  Fe4       1.0  0.0029611999999999625  0.9986381650000001  0.5125327581218301  1.0000
  V   V5        1.0  0.25206478  0.752095425  0.47305132184708615  1.0000
  V   V6        1.0  0.25206478  0.502095425  0.45241137551301297  1.0000
  Fe  Fe5       1.0  0.0020647799999999623  0.752095425  0.45241137551301297  1.0000
  Fe  Fe6       1.0  0.0020647799999999623  0.502095425  0.47305132184708615  1.0000
  V   V7        1.0  0.25207417  0.752096895  0.5152203797058974  1.0000
  V   V8        1.0  0.25208231999999997  0.5010730250000001  0.4942211905579066  1.0000
  Fe  Fe7       1.0  0.0027709499999999626  0.7520940650000001  0.4940607372630922  1.0000
  Fe  Fe8       1.0  0.0029589999999999625  0.5055536850000001  0.5125325096168711  1.0000
  V   V9        1.0  0.7520647799999998  0.252095425  0.47305132184708615  1.0000
  V   V10       1.0  0.7520647799999998  0.0020954249999999715  0.45241137551301297  1.0000
  Fe  Fe9       1.0  0.50206478  0.252095425  0.45241137551301297  1.0000
  Fe  Fe10      1.0  0.50206478  0.0020954249999999715  0.47305132184708615  1.0000
  V   V11       1.0  0.7520567299999998  0.252094975  0.5149532166480048  1.0000
  V   V12       1.0  0.7520469599999999  0.0013618349999999712  0.49430099243520975  1.0000
  Fe  Fe11      1.0  0.50619861  0.252093905  0.49370896115630974  1.0000
  Fe  Fe12      1.0  0.50117093  0.9986306650000001  0.5125318536793636  1.0000
  V   V13       1.0  0.7520647799999998  0.752095425  0.47305132184708615  1.0000
  V   V14       1.0  0.7520647799999998  0.502095425  0.45241137551301297  1.0000
  Fe  Fe13      1.0  0.50206478  0.752095425  0.45241137551301297  1.0000
  Fe  Fe14      1.0  0.50206478  0.502095425  0.47305132184708615  1.0000
  V   V15       1.0  0.7520583799999999  0.752095755  0.5152904436563254  1.0000
  V   V16       1.0  0.7520460999999998  0.502828385  0.494301206265058  1.0000
  Fe  Fe15      1.0  0.50135659  0.7520964050000001  0.4940608615155716  1.0000
  Fe  Fe16      1.0  0.5011715299999999  0.505560385  0.5125316542974779  1.0000
