data_image0
_chemical_formula_structural       COAl15Ni25
_chemical_formula_sum              "C1 O1 Al15 Ni25"
_cell_length_a       5.051436682672612
_cell_length_b       9.123131890233449
_cell_length_c       101.52695292
_cell_angle_alpha    86.06819048307476
_cell_angle_beta     86.25126985530272
_cell_angle_gamma    86.241483602501

_space_group_name_H-M_alt    "P 1"
_space_group_IT_number       1

loop_
  _space_group_symop_operation_xyz
  'x, y, z'

loop_
  _atom_site_type_symbol
  _atom_site_label
  _atom_site_symmetry_multiplicity
  _atom_site_fract_x
  _atom_site_fract_y
  _atom_site_fract_z
  _atom_site_occupancy
  C   C1        1.0  0.8631529450000001  0.9330607899999999  0.5451913975051724  1.0000
  O   O1        1.0  0.8411745650000002  0.91727791  0.5567349093959465  1.0000
  Al  Al1       1.0  0.9613122450000002  0.13039912  0.5066311124476386  1.0000
  Al  Al2       1.0  0.03255032500000007  0.79360445  0.48588681061935163  1.0000
  Al  Al3       1.0  0.898887755  0.46522652000000003  0.528984902191906  1.0000
  Al  Al4       1.0  0.09921699500000004  0.46027112000000003  0.4651849486410913  1.0000
  Al  Al5       1.0  0.16588365500000005  0.12693778000000003  0.44448308976811013  1.0000
  Al  Al6       1.0  0.8158770250000003  0.20046524  0.46640294780514774  1.0000
  Al  Al7       1.0  0.8825436850000002  0.86713191  0.44570108893216653  1.0000
  Al  Al8       1.0  0.749210355  0.5337985800000001  0.48710480978340803  1.0000
  Al  Al9       1.0  0.6151901050000002  0.20683061  0.5282770258640945  1.0000
  Al  Al10      1.0  0.680273615  0.87185095  0.5074564894328844  1.0000
  Al  Al11      1.0  0.31589029500000015  0.05341032  0.48466881145529517  1.0000
  Al  Al12      1.0  0.3825569650000001  0.72007699  0.46396694947703476  1.0000
  Al  Al13      1.0  0.24758165500000007  0.38933414  0.505487171085827  1.0000
  Al  Al14      1.0  0.44922362500000007  0.38674366000000004  0.4432650906040536  1.0000
  Al  Al15      1.0  0.1831717950000001  0.72092523  0.5264655022766113  1.0000
  Ni  Ni1       1.0  0.39894485500000015  0.9653827  0.5265262011679896  1.0000
  Ni  Ni2       1.0  0.46687465499999997  0.62941905  0.506517378493803  1.0000
  Ni  Ni3       1.0  0.6658836550000001  0.62693778  0.4444830897681101  1.0000
  Ni  Ni4       1.0  0.532550325  0.29360445  0.48588681061935163  1.0000
  Ni  Ni5       1.0  0.5992169950000003  0.9602711199999999  0.4651849486410913  1.0000
  Ni  Ni6       1.0  0.5992169950000001  0.46027112000000003  0.4651849486410913  1.0000
  Ni  Ni7       1.0  0.6658836550000002  0.12693778000000003  0.44448308976811013  1.0000
  Ni  Ni8       1.0  0.5325503250000001  0.79360445  0.48588681061935163  1.0000
  Ni  Ni9       1.0  0.400782245  0.46309188  0.5268286988302773  1.0000
  Ni  Ni10      1.0  0.46353692500000004  0.12956357  0.5064582198208787  1.0000
  Ni  Ni11      1.0  0.032550325000000054  0.29360445  0.48588681061935163  1.0000
  Ni  Ni12      1.0  0.09921699500000007  0.9602711199999999  0.4651849486410913  1.0000
  Ni  Ni13      1.0  0.9674496749999999  0.62799027  0.5067157716728725  1.0000
  Ni  Ni14      1.0  0.16588365500000005  0.62693778  0.4444830897681101  1.0000
  Ni  Ni15      1.0  0.9054951050000002  0.96108001  0.5278555649578968  1.0000
  Ni  Ni16      1.0  0.185667605  0.8874147299999999  0.5055905924076339  1.0000
  Ni  Ni17      1.0  0.25918374499999997  0.5525916000000001  0.4847705062418994  1.0000
  Ni  Ni18      1.0  0.12775705500000006  0.22504652  0.5257514837066579  1.0000
  Ni  Ni19      1.0  0.32585041500000006  0.21925826000000004  0.4640686442636389  1.0000
  Ni  Ni20      1.0  0.3925170750000001  0.8859249299999998  0.4433667853906578  1.0000
  Ni  Ni21      1.0  0.8059169050000002  0.034617300000000004  0.48700311499680393  1.0000
  Ni  Ni22      1.0  0.8725835750000001  0.70128397  0.46630125301854364  1.0000
  Ni  Ni23      1.0  0.7425859950000001  0.3744287  0.5079086118653248  1.0000
  Ni  Ni24      1.0  0.939250235  0.36795064000000005  0.4455993941455624  1.0000
  Ni  Ni25      1.0  0.6728054850000001  0.70994117  0.5272157252960751  1.0000
