data_image0
_chemical_formula_structural       COV5Ir5V5Ir5
_chemical_formula_sum              "C1 O1 V10 Ir10"
_cell_length_a       6.159288399771591
_cell_length_b       4.606850685632538
_cell_length_c       102.20521443
_cell_angle_alpha    75.841782209748
_cell_angle_beta     76.73227330271054
_cell_angle_gamma    74.49057311499459

_space_group_name_H-M_alt    "P 1"
_space_group_IT_number       1

loop_
  _space_group_symop_operation_xyz
  'x, y, z'

loop_
  _atom_site_type_symbol
  _atom_site_label
  _atom_site_symmetry_multiplicity
  _atom_site_fract_x
  _atom_site_fract_y
  _atom_site_fract_z
  _atom_site_occupancy
  C   C1        1.0  0.90782374  0.88066193  0.552896620499557  1.0000
  O   O1        1.0  0.85330737  0.7522624299999999  0.5641381373099774  1.0000
  V   V1        1.0  0.40222554000000005  0.90089231  0.46737220647199956  1.0000
  V   V2        1.0  0.80222554  0.7008923099999999  0.4778756533489806  1.0000
  V   V3        1.0  0.002225539999999982  0.10089230999999997  0.4568687564439843  1.0000
  V   V4        1.0  0.20222554000000004  0.50089231  0.4358618626900224  1.0000
  V   V5        1.0  0.60222554  0.30089231  0.4463653095670033  1.0000
  Ir  Ir1       1.0  0.40222554000000005  0.90089231  0.4411135845529956  1.0000
  Ir  Ir2       1.0  0.80222554  0.7008923099999999  0.45161703458101093  1.0000
  Ir  Ir3       1.0  0.002225539999999982  0.10089230999999997  0.4831273783629882  1.0000
  Ir  Ir4       1.0  0.20222554000000004  0.50089231  0.462120481457992  1.0000
  Ir  Ir5       1.0  0.60222554  0.30089231  0.47262392833497285  1.0000
  V   V6        1.0  0.39212994999999995  0.88392282  0.5201178057713955  1.0000
  V   V7        1.0  0.8244948599999999  0.6906924999999998  0.5289166659401122  1.0000
  V   V8        1.0  0.9978773599999999  0.10907308999999997  0.5085797419646083  1.0000
  V   V9        1.0  0.20222554000000004  0.50089231  0.48837910022596154  1.0000
  V   V10       1.0  0.60222554  0.30089231  0.4988825502539768  1.0000
  Ir  Ir6       1.0  0.40222554000000005  0.90089231  0.49363082523996915  1.0000
  Ir  Ir7       1.0  0.80222554  0.7008923099999999  0.5041342721169502  1.0000
  Ir  Ir8       1.0  0.002122639999999983  0.09910768999999997  0.5351356104096108  1.0000
  Ir  Ir9       1.0  0.20158807000000004  0.49291234999999994  0.5147632877139022  1.0000
  Ir  Ir10      1.0  0.6062327399999999  0.27595651  0.5240527135187543  1.0000
