data_image0
_chemical_formula_structural       COIn5Pd15In5Pd15
_chemical_formula_sum              "C1 O1 In10 Pd30"
_cell_length_a       8.983110255806935
_cell_length_b       5.81753587
_cell_length_c       105.28006717
_cell_angle_alpha    90.0
_cell_angle_beta     103.65661831559508
_cell_angle_gamma    71.1068625218872

_space_group_name_H-M_alt    "P 1"
_space_group_IT_number       1

loop_
  _space_group_symop_operation_xyz
  'x, y, z'

loop_
  _atom_site_type_symbol
  _atom_site_label
  _atom_site_symmetry_multiplicity
  _atom_site_fract_x
  _atom_site_fract_y
  _atom_site_fract_z
  _atom_site_occupancy
  C   C1        1.0  0.9743938850000001  0.52609832  0.5605974862580022  1.0000
  O   O1        1.0  0.09363010499999998  0.46667504  0.5696448037216058  1.0000
  In  In1       1.0  0.5080507449999999  0.25924625000000007  0.5508669396316292  1.0000
  In  In2       1.0  0.926917215  0.04966996999999995  0.5372225096996223  1.0000
  In  In3       1.0  0.125606115  0.45033003  0.4973765577162284  1.0000
  In  In4       1.0  0.325606115  0.8503300300000001  0.524185102291362  1.0000
  In  In5       1.0  0.725606115  0.65033003  0.5107808300037951  1.0000
  Pd  Pd1       1.0  0.325606115  0.35033002999999996  0.524185102291362  1.0000
  Pd  Pd2       1.0  0.725606115  0.15033003  0.5107808300037951  1.0000
  Pd  Pd3       1.0  0.9443595149999999  0.5410615999999999  0.5398564156934484  1.0000
  Pd  Pd4       1.0  0.125606115  0.9503300299999999  0.4973765577162284  1.0000
  Pd  Pd5       1.0  0.519277555  0.7531805600000001  0.5503512002021609  1.0000
  Pd  Pd6       1.0  0.6261430849999999  0.9502015000000001  0.5306343065192151  1.0000
  Pd  Pd7       1.0  0.02560611499999998  0.75033003  0.5174829661475786  1.0000
  Pd  Pd8       1.0  0.227239525  0.14501750999999996  0.5436961264583792  1.0000
  Pd  Pd9       1.0  0.42560611499999995  0.5503300299999999  0.5040786938600118  1.0000
  Pd  Pd10      1.0  0.807689465  0.34827097999999995  0.5568282015396704  1.0000
  Pd  Pd11      1.0  0.6262154449999999  0.44972533  0.5306333146030658  1.0000
  Pd  Pd12      1.0  0.02560611499999998  0.25033003  0.5174829661475786  1.0000
  Pd  Pd13      1.0  0.22728727499999996  0.65399953  0.543709031421524  1.0000
  Pd  Pd14      1.0  0.42560611499999995  0.050330029999999984  0.5040786938600118  1.0000
  Pd  Pd15      1.0  0.807398345  0.87064445  0.5568348198991123  1.0000
  In  In6       1.0  0.525606115  0.25033003  0.4839722854286616  1.0000
  In  In7       1.0  0.9256061149999999  0.050330029999999984  0.4705680131410948  1.0000
  In  In8       1.0  0.125606115  0.45033003  0.4303551962783945  1.0000
  In  In9       1.0  0.325606115  0.8503300300000001  0.45716374085352807  1.0000
  In  In10      1.0  0.725606115  0.65033003  0.4437594685659613  1.0000
  Pd  Pd16      1.0  0.325606115  0.35033002999999996  0.45716374085352807  1.0000
  Pd  Pd17      1.0  0.725606115  0.15033003  0.4437594685659613  1.0000
  Pd  Pd18      1.0  0.9256061149999999  0.5503300299999999  0.4705680131410948  1.0000
  Pd  Pd19      1.0  0.125606115  0.9503300299999999  0.4303551962783945  1.0000
  Pd  Pd20      1.0  0.525606115  0.75033003  0.4839722854286616  1.0000
  Pd  Pd21      1.0  0.625606115  0.9503300299999999  0.46386587699731147  1.0000
  Pd  Pd22      1.0  0.02560611499999998  0.75033003  0.4504616047097447  1.0000
  Pd  Pd23      1.0  0.225606115  0.15033002999999995  0.4772701492848782  1.0000
  Pd  Pd24      1.0  0.42560611499999995  0.5503300299999999  0.43705733242217787  1.0000
  Pd  Pd25      1.0  0.825606115  0.3503300299999999  0.490674421572445  1.0000
  Pd  Pd26      1.0  0.625606115  0.45033003000000005  0.46386587699731147  1.0000
  Pd  Pd27      1.0  0.02560611499999998  0.25033003  0.4504616047097447  1.0000
  Pd  Pd28      1.0  0.225606115  0.65033003  0.4772701492848782  1.0000
  Pd  Pd29      1.0  0.42560611499999995  0.050330029999999984  0.43705733242217787  1.0000
  Pd  Pd30      1.0  0.825606115  0.8503300300000001  0.490674421572445  1.0000
