data_image0
_chemical_formula_structural       COV12Co4V12Co4
_chemical_formula_sum              "C1 O1 V24 Co8"
_cell_length_a       4.65566661
_cell_length_b       6.58410686
_cell_length_c       109.50464117
_cell_angle_alpha    90.0
_cell_angle_beta     90.0
_cell_angle_gamma    90.0

_space_group_name_H-M_alt    "P 1"
_space_group_IT_number       1

loop_
  _space_group_symop_operation_xyz
  'x, y, z'

loop_
  _atom_site_type_symbol
  _atom_site_label
  _atom_site_symmetry_multiplicity
  _atom_site_fract_x
  _atom_site_fract_y
  _atom_site_fract_z
  _atom_site_occupancy
  C   C1        1.0  0.32652926500000007  0.7457704549999998  0.5607337678122687  1.0000
  O   O1        1.0  0.523909775  0.836957745  0.5661574818674129  1.0000
  V   V1        1.0  0.13323739500000004  0.6293533450000001  0.48645301309172223  1.0000
  V   V2        1.0  0.13323739500000004  0.12935334499999998  0.4563898736304417  1.0000
  V   V3        1.0  0.13323739500000004  0.379353345  0.47142144516487045  1.0000
  V   V4        1.0  0.13323739500000004  0.879353345  0.44135830209601296  1.0000
  V   V5        1.0  0.6332373950000001  0.6293533450000001  0.44135830209601296  1.0000
  V   V6        1.0  0.6332373950000001  0.12935334499999998  0.47142144516487045  1.0000
  V   V7        1.0  0.6332373950000001  0.879353345  0.48645301309172223  1.0000
  V   V8        1.0  0.6332373950000001  0.379353345  0.4563898736304417  1.0000
  V   V9        1.0  0.883237395  0.254353345  0.433842518132587  1.0000
  V   V10       1.0  0.883237395  0.7543533450000002  0.46390565759386765  1.0000
  V   V11       1.0  0.38323739500000004  0.254353345  0.433842518132587  1.0000
  V   V12       1.0  0.38323739500000004  0.7543533450000002  0.46390565759386765  1.0000
  Co  Co1       1.0  0.6332373950000001  0.504353345  0.47893722912829634  1.0000
  Co  Co2       1.0  0.6332373950000001  0.004353344999999981  0.4488740896670158  1.0000
  Co  Co3       1.0  0.13323739500000004  0.504353345  0.4488740896670158  1.0000
  Co  Co4       1.0  0.13323739500000004  0.004353344999999981  0.47893722912829634  1.0000
  V   V13       1.0  0.11676260500000002  0.654661895  0.5465684007396837  1.0000
  V   V14       1.0  0.13323739500000004  0.12935334499999998  0.5165161561605797  1.0000
  V   V15       1.0  0.12852071500000004  0.377670055  0.531643191394398  1.0000
  V   V16       1.0  0.13323739500000004  0.879353345  0.501484584626151  1.0000
  V   V17       1.0  0.6332373950000001  0.6293533450000001  0.501484584626151  1.0000
  V   V18       1.0  0.632041925  0.129174415  0.5318478095474352  1.0000
  V   V19       1.0  0.617806845  0.850799655  0.547768598276623  1.0000
  V   V20       1.0  0.6332373950000001  0.379353345  0.5165161561605797  1.0000
  V   V21       1.0  0.883237395  0.254353345  0.49396880066272514  1.0000
  V   V22       1.0  0.8779421550000001  0.755834175  0.5238314346086113  1.0000
  V   V23       1.0  0.38323739500000004  0.254353345  0.49396880066272514  1.0000
  V   V24       1.0  0.379738175  0.753693775  0.5240243209216358  1.0000
  Co  Co5       1.0  0.623695235  0.5129229249999999  0.5377900081593004  1.0000
  Co  Co6       1.0  0.6332373950000001  0.004353344999999981  0.5090003685895769  1.0000
  Co  Co7       1.0  0.13323739500000004  0.504353345  0.5090003685895769  1.0000
  Co  Co8       1.0  0.13285450500000004  0.9956466549999999  0.5377606208380389  1.0000
