data_image0
_chemical_formula_structural       COCu3Ni3Sb6Cu3Ni3Sb6
_chemical_formula_sum              "C1 O1 Cu6 Ni6 Sb12"
_cell_length_a       5.19469948
_cell_length_b       10.961460032171459
_cell_length_c       99.00129726
_cell_angle_alpha    79.10660536276957
_cell_angle_beta     90.0
_cell_angle_gamma    90.0

_space_group_name_H-M_alt    "P 1"
_space_group_IT_number       1

loop_
  _space_group_symop_operation_xyz
  'x, y, z'

loop_
  _atom_site_type_symbol
  _atom_site_label
  _atom_site_symmetry_multiplicity
  _atom_site_fract_x
  _atom_site_fract_y
  _atom_site_fract_z
  _atom_site_occupancy
  C   C1        1.0  0.574738835  0.6904060949999999  0.535992238667436  1.0000
  O   O1        1.0  0.623479325  0.6733165749999999  0.54773466025938  1.0000
  Cu  Cu1       1.0  0.004760525000000055  0.722222225  0.4755144318317965  1.0000
  Cu  Cu2       1.0  0.004760525000000055  0.3888888849999999  0.46156497599121354  1.0000
  Cu  Cu3       1.0  0.004760525000000055  0.055555554999999965  0.4894638876723795  1.0000
  Ni  Ni1       1.0  0.504760525  0.722222225  0.4755144318317965  1.0000
  Ni  Ni2       1.0  0.504760525  0.3888888849999999  0.46156497599121354  1.0000
  Ni  Ni3       1.0  0.504760525  0.055555554999999965  0.4894638876723795  1.0000
  Sb  Sb1       1.0  0.730557365  0.6111111149999998  0.4569151593306096  1.0000
  Sb  Sb2       1.0  0.730557365  0.27777777499999995  0.4848140680823901  1.0000
  Sb  Sb3       1.0  0.730557365  0.9444444449999999  0.470864612241807  1.0000
  Sb  Sb4       1.0  0.2789636850000001  0.8333333349999998  0.45226533974062  1.0000
  Sb  Sb5       1.0  0.2789636850000001  0.4999999949999999  0.4801642514217861  1.0000
  Sb  Sb6       1.0  0.2789636850000001  0.16666666499999996  0.46621479558120305  1.0000
  Cu  Cu4       1.0  0.010027975000000055  0.718203635  0.5154099625386157  1.0000
  Cu  Cu5       1.0  0.9943298749999999  0.38999544499999994  0.5040722062707002  1.0000
  Cu  Cu6       1.0  0.9952394749999999  0.07922920499999997  0.5277151747588139  1.0000
  Ni  Ni4       1.0  0.510415235  0.715727605  0.5179957634133701  1.0000
  Ni  Ni5       1.0  0.49815595500000004  0.3892959349999999  0.5027713335104669  1.0000
  Ni  Ni6       1.0  0.5077840650000002  0.07723628499999996  0.5276934826585937  1.0000
  Sb  Sb7       1.0  0.719715125  0.6083255849999999  0.4988501605015031  1.0000
  Sb  Sb8       1.0  0.709761795  0.28916663499999995  0.5270808016645255  1.0000
  Sb  Sb9       1.0  0.724762735  0.938345955  0.5128715181111486  1.0000
  Sb  Sb10      1.0  0.2789636850000001  0.8333333349999998  0.4941137043329834  1.0000
  Sb  Sb11      1.0  0.26925261500000003  0.493518625  0.521896014750521  1.0000
  Sb  Sb12      1.0  0.2731167750000001  0.17388051499999999  0.5068511327485907  1.0000
