data_image0
_chemical_formula_structural       CONi24Sb8
_chemical_formula_sum              "C1 O1 Ni24 Sb8"
_cell_length_a       9.774419417441768
_cell_length_b       6.870729689007293
_cell_length_c       36.86421404
_cell_angle_alpha    100.26814919388171
_cell_angle_beta     78.85981631830404
_cell_angle_gamma    56.50555880821667

_space_group_name_H-M_alt    "P 1"
_space_group_IT_number       1

loop_
  _space_group_symop_operation_xyz
  'x, y, z'

loop_
  _atom_site_type_symbol
  _atom_site_label
  _atom_site_symmetry_multiplicity
  _atom_site_fract_x
  _atom_site_fract_y
  _atom_site_fract_z
  _atom_site_occupancy
  C   C1        1.0  0.5055699450000001  0.46845966000000006  0.597180465033641  1.0000
  O   O1        1.0  0.4056396950000001  0.59387283  0.6306825330170546  1.0000
  Ni  Ni1       1.0  0.9602706550000001  0.7846546399999998  0.4410710919594683  1.0000
  Ni  Ni2       1.0  0.710270655  0.5346546399999998  0.3848923105468808  1.0000
  Ni  Ni3       1.0  0.210270665  0.03465464000000004  0.49724987337205595  1.0000
  Ni  Ni4       1.0  0.466558165  0.28292816000000004  0.5539213921349595  1.0000
  Ni  Ni5       1.0  0.779579955  0.46534534999999994  0.4816750298081206  1.0000
  Ni  Ni6       1.0  0.529579945  0.21534535000000002  0.42549624839553307  1.0000
  Ni  Ni7       1.0  0.029439874999999983  0.71033463  0.5390548596356791  1.0000
  Ni  Ni8       1.0  0.2795799550000001  0.96534535  0.36931746698294554  1.0000
  Ni  Ni9       1.0  0.641654395  0.22820520000000002  0.48459436692567953  1.0000
  Ni  Ni10      1.0  0.39165439500000004  0.9782051999999999  0.42841558551309195  1.0000
  Ni  Ni11      1.0  0.898567455  0.47129843000000005  0.5392612829501016  1.0000
  Ni  Ni12      1.0  0.14165439500000004  0.7282051999999999  0.3722368041005044  1.0000
  Ni  Ni13      1.0  0.848196215  0.7717947999999999  0.38197297342932185  1.0000
  Ni  Ni14      1.0  0.594825495  0.52586821  0.552172865765064  1.0000
  Ni  Ni15      1.0  0.09819621499999996  0.021794800000000038  0.4381517548419094  1.0000
  Ni  Ni16      1.0  0.348196215  0.2717948  0.494330536254497  1.0000
  Ni  Ni17      1.0  0.774502595  0.842664  0.5106963680721166  1.0000
  Ni  Ni18      1.0  0.5165886749999999  0.6034023400000001  0.45649020794132794  1.0000
  Ni  Ni19      1.0  0.026738064999999974  0.08940568000000003  0.5626050407582558  1.0000
  Ni  Ni20      1.0  0.26658867500000005  0.35340234  0.40031142652874036  1.0000
  Ni  Ni21      1.0  0.973261935  0.39659765999999996  0.41007713241367344  1.0000
  Ni  Ni22      1.0  0.729634035  0.14643843000000004  0.5735580335038649  1.0000
  Ni  Ni23      1.0  0.22326193500000002  0.64659766  0.466255913826261  1.0000
  Ni  Ni24      1.0  0.47147072499999987  0.9003659499999999  0.5244900026982818  1.0000
  Sb  Sb1       1.0  0.6572184950000001  0.8377068099999999  0.4529927147598907  1.0000
  Sb  Sb2       1.0  0.407218495  0.58770681  0.3968139333473033  1.0000
  Sb  Sb3       1.0  0.9114033449999999  0.08393283000000003  0.5067996010554239  1.0000
  Sb  Sb4       1.0  0.15926137499999993  0.33710058000000004  0.5658715537563396  1.0000
  Sb  Sb5       1.0  0.08263211499999998  0.41229319  0.46975340700769813  1.0000
  Sb  Sb6       1.0  0.8326321149999998  0.16229319000000003  0.4135746255951106  1.0000
  Sb  Sb7       1.0  0.32961680500000007  0.66540685  0.5276391964235658  1.0000
  Sb  Sb8       1.0  0.608215975  0.8908015699999999  0.5802036507665882  1.0000
