data_image0
_chemical_formula_structural       COAl12W6Al12W6
_chemical_formula_sum              "C1 O1 Al24 W12"
_cell_length_a       8.46581466
_cell_length_b       8.380460694091184
_cell_length_c       104.21418262
_cell_angle_alpha    106.95468380889527
_cell_angle_beta     90.0
_cell_angle_gamma    59.66251115348878

_space_group_name_H-M_alt    "P 1"
_space_group_IT_number       1

loop_
  _space_group_symop_operation_xyz
  'x, y, z'

loop_
  _atom_site_type_symbol
  _atom_site_label
  _atom_site_symmetry_multiplicity
  _atom_site_fract_x
  _atom_site_fract_y
  _atom_site_fract_z
  _atom_site_occupancy
  C   C1        1.0  0.417638345  0.6133110450000001  0.5467035939459411  1.0000
  O   O1        1.0  0.37976481500000014  0.6740161849999999  0.5587543362590948  1.0000
  Al  Al1       1.0  0.2485914650000001  0.16650498500000002  0.46469612006868405  1.0000
  Al  Al2       1.0  0.7485914650000001  0.16650498500000002  0.44124566374090546  1.0000
  Al  Al3       1.0  0.49953048499999997  0.8331716450000001  0.46873665253513597  1.0000
  Al  Al4       1.0  0.999530485  0.8331716450000001  0.4452861962073574  1.0000
  Al  Al5       1.0  0.666197155  0.49983831500000003  0.48410604393001067  1.0000
  Al  Al6       1.0  0.16619715500000004  0.49983831500000003  0.4606555876022321  1.0000
  Al  Al7       1.0  0.585680905  0.16650498500000002  0.46469612006868405  1.0000
  Al  Al8       1.0  0.08568090500000004  0.16650498500000002  0.44124566374090546  1.0000
  Al  Al9       1.0  0.6680752050000001  0.8331716450000001  0.4450219489560249  1.0000
  Al  Al10      1.0  0.16807520500000003  0.8331716450000001  0.4684724052838036  1.0000
  Al  Al11      1.0  0.8347418750000001  0.49983831500000003  0.4609198348535644  1.0000
  Al  Al12      1.0  0.3347418750000001  0.49983831500000003  0.484370291181343  1.0000
  W   W1        1.0  0.500469515  0.49983831500000003  0.46078771122789824  1.0000
  W   W2        1.0  0.00046951500000007686  0.49983831500000003  0.48423816755567684  1.0000
  W   W3        1.0  0.833802845  0.8331716450000001  0.4686045289094698  1.0000
  W   W4        1.0  0.333802845  0.8331716450000001  0.44515407258169115  1.0000
  W   W5        1.0  0.917136185  0.16650498500000002  0.46469612006868405  1.0000
  W   W6        1.0  0.41713618500000005  0.16650498500000002  0.44124566374090546  1.0000
  Al  Al13      1.0  0.2555494350000001  0.16985022500000002  0.5115082980717587  1.0000
  Al  Al14      1.0  0.7485914650000001  0.16650498500000002  0.48814657639646264  1.0000
  Al  Al15      1.0  0.5126494150000002  0.824563105  0.5150473228212277  1.0000
  Al  Al16      1.0  0.999530485  0.8331716450000001  0.49218710886291456  1.0000
  Al  Al17      1.0  0.6170313550000001  0.5382894149999999  0.529526202817628  1.0000
  Al  Al18      1.0  0.16452461500000015  0.490215635  0.5056456454138126  1.0000
  Al  Al19      1.0  0.6156151450000001  0.16061043500000002  0.5127381469602653  1.0000
  Al  Al20      1.0  0.08568090500000004  0.16650498500000002  0.48814657639646264  1.0000
  Al  Al21      1.0  0.6680752050000001  0.8331716450000001  0.4919228616115822  1.0000
  Al  Al22      1.0  0.15664958500000004  0.839389565  0.5152705646038052  1.0000
  Al  Al23      1.0  0.8182832250000001  0.4891166349999999  0.5049797415525196  1.0000
  Al  Al24      1.0  0.26338303499999993  0.5573756350000001  0.5293024685754578  1.0000
  W   W7        1.0  0.48671277500000004  0.498886485  0.5068641053534713  1.0000
  W   W8        1.0  0.9508637250000002  0.517262835  0.5271399045013798  1.0000
  W   W9        1.0  0.8475055150000002  0.793022265  0.5162803726970869  1.0000
  W   W10       1.0  0.333802845  0.8331716450000001  0.4920549852372484  1.0000
  W   W11       1.0  0.9278686150000002  0.18929619500000003  0.5127489876374333  1.0000
  W   W12       1.0  0.41713618500000005  0.16650498500000002  0.48814657639646264  1.0000
