data_image0
_chemical_formula_structural       CONi12V6Ni12V6
_chemical_formula_sum              "C1 O1 Ni24 V12"
_cell_length_a       8.830714765250503
_cell_length_b       6.742222167064192
_cell_length_c       98.41707225
_cell_angle_alpha    89.95528671057437
_cell_angle_beta     88.61580869258657
_cell_angle_gamma    83.66198859136513

_space_group_name_H-M_alt    "P 1"
_space_group_IT_number       1

loop_
  _space_group_symop_operation_xyz
  'x, y, z'

loop_
  _atom_site_type_symbol
  _atom_site_label
  _atom_site_symmetry_multiplicity
  _atom_site_fract_x
  _atom_site_fract_y
  _atom_site_fract_z
  _atom_site_occupancy
  C   C1        1.0  0.47887345  0.72587342  0.532259496296794  1.0000
  O   O1        1.0  0.48039596  0.77056067  0.5440784164120229  1.0000
  Ni  Ni1       1.0  0.19343273999999996  0.7634008600000001  0.47199219318937385  1.0000
  Ni  Ni2       1.0  0.40176607  0.3050675300000001  0.45996130520685813  1.0000
  Ni  Ni3       1.0  0.13960967  0.48694793000000003  0.4559215835879771  1.0000
  Ni  Ni4       1.0  0.43127634000000004  0.9452812599999999  0.4679524715704928  1.0000
  Ni  Ni5       1.0  0.28152344999999995  0.6782161  0.49601521429866535  1.0000
  Ni  Ni6       1.0  0.48509939999999996  0.22173420000000005  0.4840230782844767  1.0000
  Ni  Ni7       1.0  0.22294299999999997  0.4036146000000001  0.47998335666559566  1.0000
  Ni  Ni8       1.0  0.014900599999999991  0.85994669  0.49189636312967616  1.0000
  Ni  Ni9       1.0  0.3584175899999999  0.6000662600000002  0.5200543413970284  1.0000
  Ni  Ni10      1.0  0.07399869999999999  0.13604928000000005  0.5083676532422723  1.0000
  Ni  Ni11      1.0  0.31430867999999995  0.31538136000000005  0.5050587185000595  1.0000
  Ni  Ni12      1.0  0.09931055999999999  0.7786692599999999  0.5156278970208331  1.0000
  V   V1        1.0  0.45818787  0.58350773  0.4759877749274848  1.0000
  V   V2        1.0  0.16652119999999998  0.12517440000000005  0.46395688694496906  1.0000
  V   V3        1.0  0.04706813999999999  0.4975881800000001  0.5005714016854268  1.0000
  V   V4        1.0  0.24985453  0.041841060000000034  0.48801866291000046  1.0000
  V   V5        1.0  0.12335835999999997  0.4262082100000001  0.5220547872422313  1.0000
  V   V6        1.0  0.33371031  0.9581589399999999  0.5113617849073055  1.0000
  Ni  Ni13      1.0  0.69343274  0.7634008600000001  0.47199219318937385  1.0000
  Ni  Ni14      1.0  0.9017660699999998  0.3050675300000001  0.45996130520685813  1.0000
  Ni  Ni15      1.0  0.63960967  0.48694793000000003  0.4559215835879771  1.0000
  Ni  Ni16      1.0  0.9312763399999997  0.9452812599999999  0.4679524715704928  1.0000
  Ni  Ni17      1.0  0.77937737  0.6785311500000001  0.49591505283310416  1.0000
  Ni  Ni18      1.0  0.9850993999999998  0.22173420000000005  0.4840230782844767  1.0000
  Ni  Ni19      1.0  0.7229429999999999  0.4036146000000001  0.47998335666559566  1.0000
  Ni  Ni20      1.0  0.5157024599999999  0.85748475  0.49201247755142585  1.0000
  Ni  Ni21      1.0  0.8605483799999999  0.5930923400000001  0.5194206091296572  1.0000
  Ni  Ni22      1.0  0.5749343300000002  0.13041159000000005  0.5082891993467791  1.0000
  Ni  Ni23      1.0  0.81286491  0.3110351000000001  0.5046923202420415  1.0000
  Ni  Ni24      1.0  0.59861004  0.77838916  0.5163395865486813  1.0000
  V   V7        1.0  0.9581878699999999  0.58350773  0.4759877749274848  1.0000
  V   V8        1.0  0.6665211999999999  0.12517440000000005  0.46395688694496906  1.0000
  V   V9        1.0  0.54788817  0.4943227200000001  0.5002144625920192  1.0000
  V   V10       1.0  0.7498545299999999  0.041841060000000034  0.48801866291000046  1.0000
  V   V11       1.0  0.62322906  0.41378218000000005  0.5216337591324328  1.0000
  V   V12       1.0  0.8393223699999999  0.94645427  0.511453318783167  1.0000
