data_image0
_chemical_formula_structural       COCu8Fe8Pt16
_chemical_formula_sum              "C1 O1 Cu8 Fe8 Pt16"
_cell_length_a       5.304789062605001
_cell_length_b       6.603796650542508
_cell_length_c       107.95116008
_cell_angle_alpha    92.559413054576
_cell_angle_beta     93.18673129561215
_cell_angle_gamma    94.58095129849457

_space_group_name_H-M_alt    "P 1"
_space_group_IT_number       1

loop_
  _space_group_symop_operation_xyz
  'x, y, z'

loop_
  _atom_site_type_symbol
  _atom_site_label
  _atom_site_symmetry_multiplicity
  _atom_site_fract_x
  _atom_site_fract_y
  _atom_site_fract_z
  _atom_site_occupancy
  C   C1        1.0  0.00906195000000006  0.240800605  0.5551795394751792  1.0000
  O   O1        1.0  0.9922677799999999  0.286633365  0.565641146845402  1.0000
  Cu  Cu1       1.0  0.007732220000000057  0.163956415  0.49295195644763434  1.0000
  Cu  Cu2       1.0  0.51805271  0.168884815  0.5368023860354116  1.0000
  Cu  Cu3       1.0  0.01154129000000004  0.836043585  0.5219207166014388  1.0000
  Cu  Cu4       1.0  0.50773222  0.497289755  0.5076002296342037  1.0000
  Cu  Cu5       1.0  0.007732220000000041  0.8306230849999999  0.4343588531545981  1.0000
  Cu  Cu6       1.0  0.50773222  0.8306230849999999  0.47830367974547877  1.0000
  Cu  Cu7       1.0  0.007732220000000057  0.497289755  0.4636554030433231  1.0000
  Cu  Cu8       1.0  0.50773222  0.163956415  0.4490071298567537  1.0000
  Fe  Fe1       1.0  0.26790382000000007  0.5037441749999999  0.5296349918496112  1.0000
  Fe  Fe2       1.0  0.75773222  0.163956415  0.5149243697430747  1.0000
  Fe  Fe3       1.0  0.25773222  0.8306230849999999  0.500276093040919  1.0000
  Fe  Fe4       1.0  0.7615709299999999  0.824933285  0.5423166707656886  1.0000
  Fe  Fe5       1.0  0.25773222000000007  0.163956415  0.4709795431521939  1.0000
  Fe  Fe6       1.0  0.75773222  0.8306230849999999  0.4563312664500384  1.0000
  Fe  Fe7       1.0  0.25773222000000007  0.497289755  0.4416829897478827  1.0000
  Fe  Fe8       1.0  0.75773222  0.497289755  0.48562781633876345  1.0000
  Pt  Pt1       1.0  0.75716894  0.5032540150000001  0.5298543679395391  1.0000
  Pt  Pt2       1.0  0.25773222000000007  0.163956415  0.5149243697430747  1.0000
  Pt  Pt3       1.0  0.75773222  0.8306230849999999  0.500276093040919  1.0000
  Pt  Pt4       1.0  0.27134798  0.8168143349999999  0.5429840450269867  1.0000
  Pt  Pt5       1.0  0.019936640000000058  0.175751105  0.538208430644669  1.0000
  Pt  Pt6       1.0  0.51660326  0.8349868450000001  0.5215793918599283  1.0000
  Pt  Pt7       1.0  0.007732220000000057  0.497289755  0.5076002296342037  1.0000
  Pt  Pt8       1.0  0.50773222  0.163956415  0.49295195644763434  1.0000
  Pt  Pt9       1.0  0.75773222  0.163956415  0.47097954315219404  1.0000
  Pt  Pt10      1.0  0.25773222  0.8306230849999999  0.45633126645003835  1.0000
  Pt  Pt11      1.0  0.75773222  0.497289755  0.4416829897478827  1.0000
  Pt  Pt12      1.0  0.25773222000000007  0.497289755  0.48562781633876345  1.0000
  Pt  Pt13      1.0  0.007732220000000041  0.8306230849999999  0.4783036797454788  1.0000
  Pt  Pt14      1.0  0.50773222  0.497289755  0.4636554030433231  1.0000
  Pt  Pt15      1.0  0.007732220000000057  0.163956415  0.4490071298567537  1.0000
  Pt  Pt16      1.0  0.50773222  0.8306230849999999  0.43435885315459805  1.0000
