data_image0
_chemical_formula_structural       COCo5Pt5Co5Pt5
_chemical_formula_sum              "C1 O1 Co10 Pt10"
_cell_length_a       4.573071166660851
_cell_length_b       5.99717857796004
_cell_length_c       101.8091742
_cell_angle_alpha    103.07600265864713
_cell_angle_beta     105.6165748849519
_cell_angle_gamma    74.79446979462715

_space_group_name_H-M_alt    "P 1"
_space_group_IT_number       1

loop_
  _space_group_symop_operation_xyz
  'x, y, z'

loop_
  _atom_site_type_symbol
  _atom_site_label
  _atom_site_symmetry_multiplicity
  _atom_site_fract_x
  _atom_site_fract_y
  _atom_site_fract_z
  _atom_site_occupancy
  C   C1        1.0  0.56690434  0.566110585  0.5431910132754592  1.0000
  O   O1        1.0  0.6169259699999998  0.6477598750000001  0.5554091783441225  1.0000
  Co  Co1       1.0  0.52386942  0.6758142550000003  0.5257560419605407  1.0000
  Co  Co2       1.0  0.2991461999999999  0.08593163500000005  0.512285973742399  1.0000
  Co  Co3       1.0  0.69442363  0.27805913500000007  0.5324447116585208  1.0000
  Co  Co4       1.0  0.09914619999999998  0.4859316350000001  0.5018713356808708  1.0000
  Co  Co5       1.0  0.86312585  0.9190063550000002  0.5412629355163635  1.0000
  Pt  Pt1       1.0  0.11010799999999998  0.4976881250000001  0.5295037998320201  1.0000
  Pt  Pt2       1.0  0.9008538  0.8768477750000001  0.5168801168362118  1.0000
  Pt  Pt3       1.0  0.29259751999999994  0.08099364500000004  0.5378678652322514  1.0000
  Pt  Pt4       1.0  0.6991461999999999  0.28593163500000013  0.5070786562738309  1.0000
  Pt  Pt5       1.0  0.4991462  0.6859316350000002  0.49666401508791086  1.0000
  Co  Co6       1.0  0.4991462  0.6859316350000002  0.4706274183718942  1.0000
  Co  Co7       1.0  0.2991461999999999  0.08593163500000005  0.4602127803103658  1.0000
  Co  Co8       1.0  0.6991461999999999  0.28593163500000013  0.48104205643342246  1.0000
  Co  Co9       1.0  0.09914619999999998  0.4859316350000001  0.44979813912444583  1.0000
  Co  Co10      1.0  0.8991462  0.8859316350000003  0.4914566976193425  1.0000
  Pt  Pt6       1.0  0.09914619999999998  0.4859316350000001  0.4758347389648542  1.0000
  Pt  Pt7       1.0  0.8991462  0.8859316350000003  0.4654200977789342  1.0000
  Pt  Pt8       1.0  0.2991461999999999  0.08593163500000005  0.48624937702638243  1.0000
  Pt  Pt9       1.0  0.6991461999999999  0.28593163500000013  0.4550054597174058  1.0000
  Pt  Pt10      1.0  0.4991462  0.6859316350000002  0.44459082165587754  1.0000
