data_image0
_chemical_formula_structural       COCu6Ga6Pt12
_chemical_formula_sum              "C1 O1 Cu6 Ga6 Pt12"
_cell_length_a       7.55099668867582
_cell_length_b       6.16536298
_cell_length_c       103.20149574
_cell_angle_alpha    90.0
_cell_angle_beta     85.65224686141543
_cell_angle_gamma    114.09484255668073

_space_group_name_H-M_alt    "P 1"
_space_group_IT_number       1

loop_
  _space_group_symop_operation_xyz
  'x, y, z'

loop_
  _atom_site_type_symbol
  _atom_site_label
  _atom_site_symmetry_multiplicity
  _atom_site_fract_x
  _atom_site_fract_y
  _atom_site_fract_z
  _atom_site_occupancy
  C   C1        1.0  0.7281282400000001  0.6554851500000001  0.5353416708614261  1.0000
  O   O1        1.0  0.76242908  0.69054347  0.5463693910572496  1.0000
  Cu  Cu1       1.0  0.3541666600000001  0.20139531000000002  0.48044021263265735  1.0000
  Cu  Cu2       1.0  0.57563664  0.8110902099999999  0.5074144251510363  1.0000
  Cu  Cu3       1.0  0.18750000000000006  0.61806198  0.4536306089427504  1.0000
  Cu  Cu4       1.0  0.9375000000000001  0.49306197999999996  0.493845016086187  1.0000
  Cu  Cu5       1.0  0.16360697000000005  0.11818162  0.5224716611141579  1.0000
  Cu  Cu6       1.0  0.7708333300000001  0.90972865  0.4670354123962801  1.0000
  Ga  Ga1       1.0  0.3541666600000001  0.7013953100000001  0.48044021263265735  1.0000
  Ga  Ga2       1.0  0.5666620800000001  0.30034922  0.5070308440499394  1.0000
  Ga  Ga3       1.0  0.18750000000000006  0.11806198000000001  0.4536306089427504  1.0000
  Ga  Ga4       1.0  0.9375000000000001  0.99306198  0.493845016086187  1.0000
  Ga  Ga5       1.0  0.17681984000000003  0.60479187  0.5217178822666613  1.0000
  Ga  Ga6       1.0  0.7708333300000001  0.40972865  0.4670354123962801  1.0000
  Pt  Pt1       1.0  0.47916666  0.013895310000000034  0.460333009060939  1.0000
  Pt  Pt2       1.0  0.6458333300000001  0.59722865  0.48714261596799846  1.0000
  Pt  Pt3       1.0  0.8723053000000002  0.20634605  0.5143654403856434  1.0000
  Pt  Pt4       1.0  0.88442857  0.70692976  0.517787001180052  1.0000
  Pt  Pt5       1.0  0.47916666  0.5138953100000001  0.460333009060939  1.0000
  Pt  Pt6       1.0  0.6458333300000001  0.09722865000000004  0.48714261596799846  1.0000
  Pt  Pt7       1.0  0.4771418200000001  0.50424783  0.526276867352715  1.0000
  Pt  Pt8       1.0  0.06250000000000001  0.30556197999999996  0.47373781251446867  1.0000
  Pt  Pt9       1.0  0.2321969100000001  0.8931488599999999  0.5004033392436146  1.0000
  Pt  Pt10      1.0  0.25606315  0.40326828000000003  0.5007256528911405  1.0000
  Pt  Pt11      1.0  0.45799229  0.006938020000000008  0.5258095888103185  1.0000
  Pt  Pt12      1.0  0.06250000000000001  0.8055619800000001  0.47373781251446867  1.0000
