data_image0
_chemical_formula_structural       COV8Rh8V8Rh8V8Rh8
_chemical_formula_sum              "C1 O1 V24 Rh24"
_cell_length_a       5.84687616
_cell_length_b       13.726384680310591
_cell_length_c       100.85199084
_cell_angle_alpha    78.20965849658795
_cell_angle_beta     90.0
_cell_angle_gamma    90.0

_space_group_name_H-M_alt    "P 1"
_space_group_IT_number       1

loop_
  _space_group_symop_operation_xyz
  'x, y, z'

loop_
  _atom_site_type_symbol
  _atom_site_label
  _atom_site_symmetry_multiplicity
  _atom_site_fract_x
  _atom_site_fract_y
  _atom_site_fract_z
  _atom_site_occupancy
  C   C1        1.0  0.453801685  0.8007413700000001  0.5386747446581022  1.0000
  O   O1        1.0  0.411951915  0.78242628  0.5504893891587077  1.0000
  V   V1        1.0  0.7181201150000001  0.05494607  0.4743427978197377  1.0000
  V   V2        1.0  0.7181201150000001  0.55494607  0.4604376349314696  1.0000
  V   V3        1.0  0.310828115  0.05494607  0.4743427978197377  1.0000
  V   V4        1.0  0.310828115  0.55494607  0.4604376349314696  1.0000
  V   V5        1.0  0.218120115  0.30494606999999996  0.4673902148460359  1.0000
  V   V6        1.0  0.218120115  0.80494607  0.45348505501690334  1.0000
  V   V7        1.0  0.8108281150000001  0.30494606999999996  0.4673902148460359  1.0000
  V   V8        1.0  0.8108281150000001  0.80494607  0.45348505501690334  1.0000
  Rh  Rh1       1.0  0.514474115  0.4120335  0.45050691927794817  1.0000
  Rh  Rh2       1.0  0.514474115  0.9120334999999999  0.4644120791070807  1.0000
  Rh  Rh3       1.0  0.514474115  0.19785863999999997  0.45646319075585856  1.0000
  Rh  Rh4       1.0  0.514474115  0.6978586400000001  0.4703683536441266  1.0000
  Rh  Rh5       1.0  0.014474114999999996  0.16203350000000002  0.4574594991925144  1.0000
  Rh  Rh6       1.0  0.014474114999999996  0.6620335  0.47136465902164704  1.0000
  Rh  Rh7       1.0  0.014474114999999996  0.44785864  0.4495106108412922  1.0000
  Rh  Rh8       1.0  0.014474114999999996  0.9478586400000001  0.46341577067042483  1.0000
  V   V9        1.0  0.718180555  0.052222160000000004  0.5020377146492878  1.0000
  V   V10       1.0  0.7181201150000001  0.55494607  0.48824795764887025  1.0000
  V   V11       1.0  0.306957315  0.05214136  0.5036167669903657  1.0000
  V   V12       1.0  0.310828115  0.55494607  0.48824795764887025  1.0000
  V   V13       1.0  0.218120115  0.30494606999999996  0.49520053756343657  1.0000
  V   V14       1.0  0.218120115  0.80494607  0.481295377734304  1.0000
  V   V15       1.0  0.8108281150000001  0.30494606999999996  0.49520053756343657  1.0000
  V   V16       1.0  0.8108281150000001  0.80494607  0.481295377734304  1.0000
  Rh  Rh9       1.0  0.514474115  0.4120335  0.4783172419953488  1.0000
  Rh  Rh10      1.0  0.514474115  0.9120334999999999  0.4922224018244814  1.0000
  Rh  Rh11      1.0  0.514474115  0.19785863999999997  0.48427351347325925  1.0000
  Rh  Rh12      1.0  0.513386035  0.69796005  0.4981320092490247  1.0000
  Rh  Rh13      1.0  0.014474114999999996  0.16203350000000002  0.4852698219099151  1.0000
  Rh  Rh14      1.0  0.013517444999999998  0.6609177  0.4990979924751765  1.0000
  Rh  Rh15      1.0  0.014474114999999996  0.44785864  0.4773209335586928  1.0000
  Rh  Rh16      1.0  0.014474114999999996  0.9478586400000001  0.4912260933878254  1.0000
  V   V17       1.0  0.6920359450000001  0.05283981  0.5263442197783431  1.0000
  V   V18       1.0  0.7196352450000001  0.5603349099999999  0.5151389856665703  1.0000
  V   V19       1.0  0.27645479500000003  0.05691897  0.5279975112204511  1.0000
  V   V20       1.0  0.302411475  0.56057609  0.5153009301832313  1.0000
  V   V21       1.0  0.218575175  0.30554065  0.5207158080916718  1.0000
  V   V22       1.0  0.210277275  0.8058424000000001  0.5088720803895873  1.0000
  V   V23       1.0  0.807649285  0.30661573  0.5207003319250282  1.0000
  V   V24       1.0  0.8019060950000001  0.8054018900000001  0.5097391831780191  1.0000
  Rh  Rh17      1.0  0.5115109250000001  0.41691871999999996  0.5064362161919989  1.0000
  Rh  Rh18      1.0  0.498823815  0.90281566  0.5216141171216402  1.0000
  Rh  Rh19      1.0  0.510155335  0.19980846000000002  0.5122045680334673  1.0000
  Rh  Rh20      1.0  0.49967421500000003  0.6997163500000001  0.5254342370871943  1.0000
  Rh  Rh21      1.0  0.002731294999999996  0.16319884  0.5134100968672572  1.0000
  Rh  Rh22      1.0  0.0005417050000000589  0.67028511  0.5254729076194228  1.0000
  Rh  Rh23      1.0  0.012016494999999995  0.44679708  0.5054059054639325  1.0000
  Rh  Rh24      1.0  0.999458295  0.94762829  0.5189802473177688  1.0000
