data_image0
_chemical_formula_structural       COCo12Pt4Co12Pt4
_chemical_formula_sum              "C1 O1 Co24 Pt8"
_cell_length_a       5.18168181
_cell_length_b       11.150794925268325
_cell_length_c       102.92748087999999
_cell_angle_alpha    68.33890040607533
_cell_angle_beta     90.0
_cell_angle_gamma    62.30972900384941

_space_group_name_H-M_alt    "P 1"
_space_group_IT_number       1

loop_
  _space_group_symop_operation_xyz
  'x, y, z'

loop_
  _atom_site_type_symbol
  _atom_site_label
  _atom_site_symmetry_multiplicity
  _atom_site_fract_x
  _atom_site_fract_y
  _atom_site_fract_z
  _atom_site_occupancy
  C   C1        1.0  0.42521454499999983  0.7606681800000001  0.5380668366153469  1.0000
  O   O1        1.0  0.5054586049999998  0.69183372  0.5506755072582424  1.0000
  Co  Co1       1.0  0.3205871149999999  0.42085457  0.47914854069560775  1.0000
  Co  Co2       1.0  0.32058711499999987  0.9208545700000001  0.45915419577037514  1.0000
  Co  Co3       1.0  0.845714555  0.15829084999999996  0.44965942841065937  1.0000
  Co  Co4       1.0  0.845714555  0.65829085  0.46965377333589187  1.0000
  Co  Co5       1.0  0.845714555  0.42085457  0.47914854069560775  1.0000
  Co  Co6       1.0  0.845714555  0.9208545700000001  0.45915419577037514  1.0000
  Co  Co7       1.0  0.6874236949999999  0.07914542999999997  0.4728186957891305  1.0000
  Co  Co8       1.0  0.687423695  0.57914543  0.45282435086389794  1.0000
  Co  Co9       1.0  0.16229625499999994  0.34170914999999996  0.4623191182236137  1.0000
  Co  Co10      1.0  0.16229625499999986  0.8417091500000001  0.48231346314884627  1.0000
  Co  Co11      1.0  0.16229625499999992  0.07914542999999997  0.4728186957891305  1.0000
  Co  Co12      1.0  0.16229625499999994  0.57914543  0.45282435086389794  1.0000
  Pt  Pt1       1.0  0.670672075  0.3333333299999999  0.4626540538925157  1.0000
  Pt  Pt2       1.0  0.6706720749999998  0.8333333300000001  0.48264839881774824  1.0000
  Pt  Pt3       1.0  0.33733873499999983  0.16666666999999996  0.44932449274175745  1.0000
  Pt  Pt4       1.0  0.33733873499999995  0.66666667  0.46931883766699  1.0000
  Co  Co13      1.0  0.29898525499999995  0.4323337199999999  0.517507208371293  1.0000
  Co  Co14      1.0  0.328937245  0.91833067  0.49900795098490397  1.0000
  Co  Co15      1.0  0.845714555  0.15829084999999996  0.4896481182611245  1.0000
  Co  Co16      1.0  0.8401849849999997  0.6633190400000001  0.5096165825062857  1.0000
  Co  Co17      1.0  0.8410347649999999  0.43210903  0.5175311727933466  1.0000
  Co  Co18      1.0  0.842313485  0.91869972  0.4991847681750421  1.0000
  Co  Co19      1.0  0.6806834249999999  0.08106013999999996  0.5123385742352647  1.0000
  Co  Co20      1.0  0.687423695  0.57914543  0.4928130407143631  1.0000
  Co  Co21      1.0  0.1726541549999999  0.33005497  0.5032146555870318  1.0000
  Co  Co22      1.0  0.1542854449999997  0.8521500300000001  0.5213543186788093  1.0000
  Co  Co23      1.0  0.1632038249999999  0.08347004999999996  0.5122436954701779  1.0000
  Co  Co24      1.0  0.16229625499999994  0.57914543  0.4928130407143631  1.0000
  Pt  Pt5       1.0  0.6785767350000002  0.32448426999999996  0.5038037785631944  1.0000
  Pt  Pt6       1.0  0.6642818349999998  0.8383005400000001  0.5229901951977833  1.0000
  Pt  Pt7       1.0  0.33733873499999983  0.16666666999999996  0.4893131825922226  1.0000
  Pt  Pt8       1.0  0.3372035449999999  0.66456999  0.5101605374574886  1.0000
