data_image0
_chemical_formula_structural       COV4Pt4V4Pt4
_chemical_formula_sum              "C1 O1 V8 Pt8"
_cell_length_a       4.81926357
_cell_length_b       5.18255508653441
_cell_length_c       106.27788559
_cell_angle_alpha    63.16207910272014
_cell_angle_beta     90.0
_cell_angle_gamma    90.0

_space_group_name_H-M_alt    "P 1"
_space_group_IT_number       1

loop_
  _space_group_symop_operation_xyz
  'x, y, z'

loop_
  _atom_site_type_symbol
  _atom_site_label
  _atom_site_symmetry_multiplicity
  _atom_site_fract_x
  _atom_site_fract_y
  _atom_site_fract_z
  _atom_site_occupancy
  C   C1        1.0  0.22580695499999998  0.05464756999999995  0.5448637667059252  1.0000
  O   O1        1.0  0.23095244499999995  0.003186289999999959  0.55693832015258  1.0000
  V   V1        1.0  0.834070125  0.21664386999999996  0.44306167984742006  1.0000
  V   V2        1.0  0.834070125  0.71664387  0.46744377472945375  1.0000
  V   V3        1.0  0.17533688499999997  0.46664387  0.4552527289951836  1.0000
  V   V4        1.0  0.17533688499999997  0.9666438700000001  0.4796348238772174  1.0000
  Pt  Pt1       1.0  0.3231778249999999  0.46664387  0.4796348238772174  1.0000
  Pt  Pt2       1.0  0.3231778249999999  0.9666438700000001  0.4552527289951836  1.0000
  Pt  Pt3       1.0  0.686229185  0.71664387  0.44306167984742006  1.0000
  Pt  Pt4       1.0  0.686229185  0.21664386999999996  0.46744377472945386  1.0000
  V   V5        1.0  0.834070125  0.21664386999999996  0.4918258696114876  1.0000
  V   V6        1.0  0.829376715  0.69432127  0.5152230146408459  1.0000
  V   V7        1.0  0.17706709499999998  0.46309615  0.5048584711697126  1.0000
  V   V8        1.0  0.16592987499999998  0.99681371  0.52708681559447  1.0000
  Pt  Pt5       1.0  0.324239905  0.4707753  0.5281501426679951  1.0000
  Pt  Pt6       1.0  0.32625182499999994  0.97119756  0.5039081341396241  1.0000
  Pt  Pt7       1.0  0.686229185  0.71664387  0.49182586961148755  1.0000
  Pt  Pt8       1.0  0.6952301849999999  0.17869676999999998  0.5170139585437376  1.0000
