data_image0
_chemical_formula_structural       CONi6Sn8Ni6Sn8
_chemical_formula_sum              "C1 O1 Ni12 Sn16"
_cell_length_a       5.321216142049912
_cell_length_b       8.2667035
_cell_length_c       106.43090016
_cell_angle_alpha    90.0
_cell_angle_beta     99.82430405383668
_cell_angle_gamma    90.0

_space_group_name_H-M_alt    "P 1"
_space_group_IT_number       1

loop_
  _space_group_symop_operation_xyz
  'x, y, z'

loop_
  _atom_site_type_symbol
  _atom_site_label
  _atom_site_symmetry_multiplicity
  _atom_site_fract_x
  _atom_site_fract_y
  _atom_site_fract_z
  _atom_site_occupancy
  C   C1        1.0  0.46303331  0.37751689999999993  0.5529680356038945  1.0000
  O   O1        1.0  0.49599160999999997  0.37800744999999997  0.5641625167856239  1.0000
  Ni  Ni1       1.0  0.06031780999999998  0.12499999999999997  0.45544286834773773  1.0000
  Ni  Ni2       1.0  0.4188328699999999  0.37491394999999994  0.5361735155592913  1.0000
  Ni  Ni3       1.0  0.17678715999999997  0.12507397999999995  0.5409227907344056  1.0000
  Ni  Ni4       1.0  0.5603178099999999  0.37499999999999994  0.5124922478572765  1.0000
  Ni  Ni5       1.0  0.93968219  0.12499999999999997  0.48007271431968745  1.0000
  Ni  Ni6       1.0  0.68095343  0.37499999999999994  0.48786240188532676  1.0000
  Sn  Sn1       1.0  0.30114655  0.37499999999999994  0.4472587151373443  1.0000
  Sn  Sn2       1.0  0.32410683  0.12537164999999997  0.5195978665957866  1.0000
  Sn  Sn3       1.0  0.89006146  0.37467477999999993  0.5336076832555635  1.0000
  Sn  Sn4       1.0  0.70070605  0.12499999999999997  0.435837483214376  1.0000
  Sn  Sn5       1.0  0.8011465499999999  0.12499999999999997  0.5043080912239203  1.0000
  Sn  Sn6       1.0  0.8194890799999999  0.37499999999999994  0.4636270249810939  1.0000
  Sn  Sn7       1.0  0.41992957  0.12499999999999997  0.47504825348109947  1.0000
  Sn  Sn8       1.0  0.20070604999999994  0.37499999999999994  0.4928868627239148  1.0000
  Ni  Ni7       1.0  0.06031780999999998  0.625  0.45544286834773773  1.0000
  Ni  Ni8       1.0  0.39663830999999994  0.8748187299999999  0.5343452221830624  1.0000
  Ni  Ni9       1.0  0.17773671  0.6242938  0.5409420072470152  1.0000
  Ni  Ni10      1.0  0.5603178099999999  0.875  0.5124922478572765  1.0000
  Ni  Ni11      1.0  0.93968219  0.625  0.48007271431968745  1.0000
  Ni  Ni12      1.0  0.68095343  0.875  0.48786240188532676  1.0000
  Sn  Sn9       1.0  0.30114655  0.875  0.4472587151373443  1.0000
  Sn  Sn10      1.0  0.32415505  0.6246237099999999  0.5195705410845355  1.0000
  Sn  Sn11      1.0  0.8889833499999998  0.8745621799999999  0.5353409688790325  1.0000
  Sn  Sn12      1.0  0.70070605  0.625  0.435837483214376  1.0000
  Sn  Sn13      1.0  0.8011465499999999  0.625  0.5043080912239203  1.0000
  Sn  Sn14      1.0  0.8194890799999999  0.875  0.4636270249810939  1.0000
  Sn  Sn15      1.0  0.41992957  0.625  0.47504825348109947  1.0000
  Sn  Sn16      1.0  0.20070604999999994  0.875  0.4928868627239148  1.0000
