data_image0
_chemical_formula_structural       COV18Co6V18Co6
_chemical_formula_sum              "C1 O1 V36 Co12"
_cell_length_a       4.65566661
_cell_length_b       10.410387017769686
_cell_length_c       30.49535883
_cell_angle_alpha    108.43494882292202
_cell_angle_beta     90.0
_cell_angle_gamma    90.0

_space_group_name_H-M_alt    "P 1"
_space_group_IT_number       1

loop_
  _space_group_symop_operation_xyz
  'x, y, z'

loop_
  _atom_site_type_symbol
  _atom_site_label
  _atom_site_symmetry_multiplicity
  _atom_site_fract_x
  _atom_site_fract_y
  _atom_site_fract_z
  _atom_site_occupancy
  C   C1        1.0  0.62499959  0.4606808850000001  0.7112351072031142  1.0000
  O   O1        1.0  0.62499903  0.486178515  0.7518185979979579  1.0000
  V   V1        1.0  0.12500017000000002  0.741808075  0.6260454488246006  1.0000
  V   V2        1.0  0.12500005000000003  0.4173866550000001  0.482078705974248  1.0000
  V   V3        1.0  0.12500005000000003  0.08405331500000002  0.5540471151683498  1.0000
  V   V4        1.0  0.12499995000000003  0.5761005450000001  0.6575324731159184  1.0000
  V   V5        1.0  0.12500005000000003  0.25071998500000003  0.5180629105712989  1.0000
  V   V6        1.0  0.12500027000000002  0.918005725  0.5932160468424935  1.0000
  V   V7        1.0  0.62500023  0.756941815  0.5729340884282551  1.0000
  V   V8        1.0  0.6249999599999999  0.424425845  0.643194212417343  1.0000
  V   V9        1.0  0.62500005  0.08405331500000002  0.5000708082727734  1.0000
  V   V10       1.0  0.6250004  0.9190870350000001  0.6425470797304811  1.0000
  V   V11       1.0  0.62500005  0.584053315  0.5000708082727735  1.0000
  V   V12       1.0  0.6250002100000001  0.250001175  0.5692178329501087  1.0000
  V   V13       1.0  0.87444299  0.49944741500000006  0.5709611854793811  1.0000
  V   V14       1.0  0.85763691  0.16803985500000004  0.6391290325288148  1.0000
  V   V15       1.0  0.87500005  0.8340533149999999  0.5000708082727734  1.0000
  V   V16       1.0  0.3755571900000001  0.49944741500000006  0.5709611725250684  1.0000
  V   V17       1.0  0.39236351  0.16803986500000004  0.6391291102546905  1.0000
  V   V18       1.0  0.37500005000000003  0.8340533149999999  0.5000708082727734  1.0000
  Co  Co1       1.0  0.62500003  0.665749735  0.6401323699497501  1.0000
  Co  Co2       1.0  0.62500005  0.334053315  0.5000708082727735  1.0000
  Co  Co3       1.0  0.62500009  0.9992800150000001  0.570860180703894  1.0000
  Co  Co4       1.0  0.12500005000000003  0.667386655  0.5360550128698243  1.0000
  Co  Co5       1.0  0.12500035000000004  0.33883214500000003  0.6102322100912719  1.0000
  Co  Co6       1.0  0.12500005000000003  0.0007199850000000095  0.4640866036757226  1.0000
  V   V19       1.0  0.12500005000000003  0.750719985  0.4101103097344587  1.0000
  V   V20       1.0  0.12500005000000003  0.4173866550000001  0.26617349134625523  1.0000
  V   V21       1.0  0.12500005000000003  0.08405331500000002  0.33814190054035703  1.0000
  V   V22       1.0  0.12500005000000003  0.584053315  0.44609450137719703  1.0000
  V   V23       1.0  0.12500005000000003  0.25071998500000003  0.30215769594330616  1.0000
  V   V24       1.0  0.12500005000000003  0.9173866550000002  0.3741261051374079  1.0000
  V   V25       1.0  0.62500005  0.750719985  0.3561340028388825  1.0000
  V   V26       1.0  0.62500005  0.4173866550000001  0.4281023990786717  1.0000
  V   V27       1.0  0.62500005  0.08405331500000002  0.2841655936447806  1.0000
  V   V28       1.0  0.62500005  0.9173866550000002  0.42810239907867165  1.0000
  V   V29       1.0  0.62500005  0.584053315  0.28416559364478067  1.0000
  V   V30       1.0  0.62500005  0.25071998500000003  0.3561340028388826  1.0000
  V   V31       1.0  0.87500005  0.500719985  0.35613400283888247  1.0000
  V   V32       1.0  0.87500005  0.16738665500000002  0.42810239907867165  1.0000
  V   V33       1.0  0.87500005  0.8340533149999999  0.2841655936447806  1.0000
  V   V34       1.0  0.37500005000000003  0.500719985  0.35613400283888247  1.0000
  V   V35       1.0  0.37500005000000003  0.16738665500000002  0.42810239907867165  1.0000
  V   V36       1.0  0.37500005000000003  0.8340533149999999  0.2841655936447806  1.0000
  Co  Co7       1.0  0.62500005  0.667386655  0.42810239907867176  1.0000
  Co  Co8       1.0  0.62500005  0.334053315  0.28416559364478067  1.0000
  Co  Co9       1.0  0.62500005  0.0007199850000000095  0.3561340028388825  1.0000
  Co  Co10      1.0  0.12500005000000003  0.667386655  0.3201497982418315  1.0000
  Co  Co11      1.0  0.12500005000000003  0.334053315  0.3921182074359334  1.0000
  Co  Co12      1.0  0.12500005000000003  0.0007199850000000095  0.24818140200204236  1.0000
