data_image0
_chemical_formula_structural       COAl6V18Al6V18
_chemical_formula_sum              "C1 O1 Al12 V36"
_cell_length_a       10.779092898561293
_cell_length_b       4.82055689
_cell_length_c       110.90378159
_cell_angle_alpha    90.0
_cell_angle_beta     108.43494883973096
_cell_angle_gamma    90.0

_space_group_name_H-M_alt    "P 1"
_space_group_IT_number       1

loop_
  _space_group_symop_operation_xyz
  'x, y, z'

loop_
  _atom_site_type_symbol
  _atom_site_label
  _atom_site_symmetry_multiplicity
  _atom_site_fract_x
  _atom_site_fract_y
  _atom_site_fract_z
  _atom_site_occupancy
  C   C1        1.0  0.560476965  0.7499660749999999  0.5602353057072064  1.0000
  O   O1        1.0  0.6246276549999998  0.9301407750000001  0.5678452298197836  1.0000
  Al  Al1       1.0  0.7061954349999999  0.07405880499999998  0.5141152680190434  1.0000
  Al  Al2       1.0  0.36976755499999997  0.06985922499999997  0.5346510987753332  1.0000
  Al  Al3       1.0  0.03952876499999999  0.07405880499999998  0.49362514540344793  1.0000
  Al  Al4       1.0  0.7172233149999999  0.579322405  0.546197093875483  1.0000
  Al  Al5       1.0  0.37286209499999995  0.574058805  0.5038702048671344  1.0000
  Al  Al6       1.0  0.033046594999999984  0.574049745  0.5235156913500528  1.0000
  V   V1        1.0  0.796002755  0.5726663550000001  0.5257499206101969  1.0000
  V   V2        1.0  0.4715319549999999  0.570601055  0.5445262700987717  1.0000
  V   V3        1.0  0.12286209499999998  0.574058805  0.5038702048671344  1.0000
  V   V4        1.0  0.9669534049999999  0.569582335  0.5437877478139054  1.0000
  V   V5        1.0  0.622862095  0.574058805  0.5038702048671344  1.0000
  V   V6        1.0  0.28248109499999996  0.571551135  0.524515597959216  1.0000
  V   V7        1.0  0.5428671549999999  0.823940625  0.5255095112069146  1.0000
  V   V8        1.0  0.20394947499999996  0.775254195  0.544120963958436  1.0000
  V   V9        1.0  0.8728620949999999  0.8240588050000001  0.5038702048671344  1.0000
  V   V10       1.0  0.544771295  0.330389465  0.5254420499302713  1.0000
  V   V11       1.0  0.202984015  0.36531856499999993  0.5438013721075973  1.0000
  V   V12       1.0  0.8728620949999999  0.32405880499999995  0.5038702048671344  1.0000
  V   V13       1.0  0.6110449649999998  0.07570721499999997  0.5498854343382304  1.0000
  V   V14       1.0  0.28952876499999997  0.07405880499999998  0.508992736443089  1.0000
  V   V15       1.0  0.958838325  0.07281749499999998  0.5309561010710823  1.0000
  V   V16       1.0  0.7887624249999999  0.08408101499999997  0.5392233033046258  1.0000
  V   V17       1.0  0.4561954349999999  0.07405880499999998  0.4987476769794024  1.0000
  V   V18       1.0  0.12286209499999998  0.07405880499999998  0.5192377995949978  1.0000
  Al  Al7       1.0  0.7061954349999999  0.07405880499999998  0.45264489648403444  1.0000
  Al  Al8       1.0  0.37286209499999995  0.07405880499999998  0.4731350190996299  1.0000
  Al  Al9       1.0  0.03952876499999999  0.07405880499999998  0.4321547701802165  1.0000
  Al  Al10      1.0  0.7061954349999999  0.574058805  0.4833800822515389  1.0000
  Al  Al11      1.0  0.37286209499999995  0.574058805  0.44239983333212546  1.0000
  Al  Al12      1.0  0.03952876499999999  0.574058805  0.462889955947721  1.0000
  V   V19       1.0  0.789528765  0.574058805  0.46288995594772103  1.0000
  V   V20       1.0  0.4561954349999999  0.574058805  0.4833800822515389  1.0000
  V   V21       1.0  0.12286209499999998  0.574058805  0.44239983333212546  1.0000
  V   V22       1.0  0.9561954349999998  0.574058805  0.4833800822515389  1.0000
  V   V23       1.0  0.622862095  0.574058805  0.44239983333212546  1.0000
  V   V24       1.0  0.28952876499999997  0.574058805  0.462889955947721  1.0000
  V   V25       1.0  0.539528765  0.8240588050000001  0.462889955947721  1.0000
  V   V26       1.0  0.20619543499999995  0.8240588050000001  0.4833800822515389  1.0000
  V   V27       1.0  0.8728620949999999  0.8240588050000001  0.44239983333212546  1.0000
  V   V28       1.0  0.539528765  0.32405880499999995  0.462889955947721  1.0000
  V   V29       1.0  0.20619543499999995  0.32405880499999995  0.4833800822515389  1.0000
  V   V30       1.0  0.8728620949999999  0.32405880499999995  0.44239983333212546  1.0000
  V   V31       1.0  0.622862095  0.07405880499999998  0.4885026138274934  1.0000
  V   V32       1.0  0.28952876499999997  0.07405880499999998  0.44752236490807995  1.0000
  V   V33       1.0  0.9561954349999998  0.07405880499999998  0.4680124875236754  1.0000
  V   V34       1.0  0.789528765  0.07405880499999998  0.47825755067558445  1.0000
  V   V35       1.0  0.4561954349999999  0.07405880499999998  0.43727730175617097  1.0000
  V   V36       1.0  0.12286209499999998  0.07405880499999998  0.4577674243717665  1.0000
