data_image0
_chemical_formula_structural       COGa20Rh12
_chemical_formula_sum              "C1 O1 Ga20 Rh12"
_cell_length_a       11.426947581614035
_cell_length_b       5.048200481816885
_cell_length_c       105.96395196
_cell_angle_alpha    100.71933169153151
_cell_angle_beta     98.45596457239805
_cell_angle_gamma    93.5323833722263

_space_group_name_H-M_alt    "P 1"
_space_group_IT_number       1

loop_
  _space_group_symop_operation_xyz
  'x, y, z'

loop_
  _atom_site_type_symbol
  _atom_site_label
  _atom_site_symmetry_multiplicity
  _atom_site_fract_x
  _atom_site_fract_y
  _atom_site_fract_z
  _atom_site_occupancy
  C   C1        1.0  0.15050302500000004  0.5089896350000002  0.5416113556098391  1.0000
  O   O1        1.0  0.182669495  0.6183019650000001  0.552315085676187  1.0000
  Ga  Ga1       1.0  0.501820605  0.050393225000000125  0.46602578128128913  1.0000
  Ga  Ga2       1.0  0.00557519500000002  0.5603352250000001  0.5096927669802984  1.0000
  Ga  Ga3       1.0  0.494424805  0.5177244150000002  0.4586782391163088  1.0000
  Ga  Ga4       1.0  0.9944248049999999  0.01772441500000006  0.5011029874561685  1.0000
  Ga  Ga5       1.0  0.587670155  0.4723894250000002  0.5145226107580599  1.0000
  Ga  Ga6       1.0  0.06434098500000002  0.9822755849999998  0.4718371199149032  1.0000
  Ga  Ga7       1.0  0.431904425  0.08584205500000011  0.4952916488225545  1.0000
  Ga  Ga8       1.0  0.9319044249999998  0.5858420550000002  0.4528669004826946  1.0000
  Ga  Ga9       1.0  0.422319665  0.9767628949999999  0.5206999731504509  1.0000
  Ga  Ga10      1.0  0.932482735  0.4412084050000001  0.4800428197073626  1.0000
  Ga  Ga11      1.0  0.563762675  0.6269092450000001  0.4870859490300951  1.0000
  Ga  Ga12      1.0  0.04051254500000002  0.12264182500000013  0.5275361036410835  1.0000
  Ga  Ga13      1.0  0.298861195  0.2763008650000001  0.4770191060737848  1.0000
  Ga  Ga14      1.0  0.8012852849999998  0.7877767250000001  0.520263928193034  1.0000
  Ga  Ga15      1.0  0.697384215  0.2918167750000002  0.44768491432381297  1.0000
  Ga  Ga16      1.0  0.197384215  0.791816775  0.4901096626636729  1.0000
  Ga  Ga17      1.0  0.7780166849999999  0.869252465  0.473071914276204  1.0000
  Ga  Ga18      1.0  0.270127775  0.4014594750000002  0.5160489106561736  1.0000
  Ga  Ga19      1.0  0.218228725  0.6988651850000002  0.4516321061213938  1.0000
  Ga  Ga20      1.0  0.7182287249999999  0.19886518500000008  0.49405685446125375  1.0000
  Rh  Rh1       1.0  0.642818665  0.8052730650000001  0.4512434716687416  1.0000
  Rh  Rh2       1.0  0.142818665  0.3052730650000001  0.49366822000860155  1.0000
  Rh  Rh3       1.0  0.353426745  0.7628445750000001  0.4734605487288562  1.0000
  Rh  Rh4       1.0  0.8485063549999999  0.27307127500000006  0.5158520428539773  1.0000
  Rh  Rh5       1.0  0.8867230349999999  0.08724725500000007  0.45712389136857257  1.0000
  Rh  Rh6       1.0  0.386723035  0.5872472550000002  0.4995486397084324  1.0000
  Rh  Rh7       1.0  0.10952237500000002  0.4808703950000001  0.4675801290290252  1.0000
  Rh  Rh8       1.0  0.606219775  0.9654148150000001  0.5102012835898195  1.0000
  Rh  Rh9       1.0  0.689631545  0.35300976500000014  0.47196524944284934  1.0000
  Rh  Rh10      1.0  0.195874965  0.886298275  0.5142396953842907  1.0000
  Rh  Rh11      1.0  0.306613865  0.21510787500000011  0.45273877095474846  1.0000
  Rh  Rh12      1.0  0.8066138649999999  0.7151078750000001  0.4951635192946084  1.0000
