data_image0
_chemical_formula_structural       CONi12V4Ni12V4
_chemical_formula_sum              "C1 O1 Ni24 V8"
_cell_length_a       8.828814362990038
_cell_length_b       5.02822273
_cell_length_c       103.07517709999999
_cell_angle_alpha    90.0
_cell_angle_beta     91.45097702667265
_cell_angle_gamma    90.0

_space_group_name_H-M_alt    "P 1"
_space_group_IT_number       1

loop_
  _space_group_symop_operation_xyz
  'x, y, z'

loop_
  _atom_site_type_symbol
  _atom_site_label
  _atom_site_symmetry_multiplicity
  _atom_site_fract_x
  _atom_site_fract_y
  _atom_site_fract_z
  _atom_site_occupancy
  C   C1        1.0  0.39341929000000003  0.6248232349999999  0.5337065606575373  1.0000
  O   O1        1.0  0.4032563900000001  0.624823485  0.5450445771152989  1.0000
  Ni  Ni1       1.0  0.45551523000000005  0.374823155  0.47501067408009295  1.0000
  Ni  Ni2       1.0  0.3014947800000001  0.874208225  0.49534939421798097  1.0000
  Ni  Ni3       1.0  0.11176523000000003  0.874823155  0.45495542288470114  1.0000
  Ni  Ni4       1.0  0.13456616000000005  0.37978575499999995  0.5150268911195367  1.0000
  Ni  Ni5       1.0  0.45551523000000005  0.874823155  0.47501067408009295  1.0000
  Ni  Ni6       1.0  0.30149459000000006  0.375438375  0.49534947443898575  1.0000
  Ni  Ni7       1.0  0.11176523000000003  0.374823155  0.45495542288470114  1.0000
  Ni  Ni8       1.0  0.13456663000000002  0.8698596749999999  0.5150266408300018  1.0000
  Ni  Ni9       1.0  0.20551523000000005  0.624823155  0.47501067408009295  1.0000
  Ni  Ni10      1.0  0.051274000000000035  0.12482381499999998  0.4953724112286728  1.0000
  Ni  Ni11      1.0  0.36176523000000005  0.12482315499999999  0.45495542288470114  1.0000
  Ni  Ni12      1.0  0.38608129  0.624823285  0.5166989439398794  1.0000
  V   V1        1.0  0.36176523000000005  0.624823155  0.45495542288470114  1.0000
  V   V2        1.0  0.20551523000000005  0.12482315499999999  0.47501067408009295  1.0000
  V   V3        1.0  0.39290675  0.12482305499999999  0.513962720985027  1.0000
  V   V4        1.0  0.044484770000000035  0.6248228349999999  0.49584541994358655  1.0000
  Ni  Ni13      1.0  0.9555152299999999  0.374823155  0.47501067408009295  1.0000
  Ni  Ni14      1.0  0.7991716000000001  0.8751769449999999  0.4948982441224502  1.0000
  Ni  Ni15      1.0  0.6117652300000002  0.874823155  0.45495542288470114  1.0000
  Ni  Ni16      1.0  0.6382470200000001  0.38004557499999997  0.514523395213966  1.0000
  Ni  Ni17      1.0  0.9555152299999999  0.874823155  0.47501067408009295  1.0000
  Ni  Ni18      1.0  0.7991713400000001  0.374469475  0.494898256957811  1.0000
  Ni  Ni19      1.0  0.6117652300000002  0.374823155  0.45495542288470114  1.0000
  Ni  Ni20      1.0  0.6382469400000002  0.8696000349999999  0.5145231834305133  1.0000
  Ni  Ni21      1.0  0.70551523  0.624823155  0.47501067408009295  1.0000
  Ni  Ni22      1.0  0.5481585600000001  0.12482370499999998  0.4951358459032524  1.0000
  Ni  Ni23      1.0  0.86176523  0.12482315499999999  0.45495542288470114  1.0000
  Ni  Ni24      1.0  0.8909982000000001  0.624823385  0.5154045042244043  1.0000
  V   V5        1.0  0.86176523  0.624823155  0.45495542288470114  1.0000
  V   V6        1.0  0.70551523  0.12482315499999999  0.47501067408009295  1.0000
  V   V7        1.0  0.89162903  0.12482315499999999  0.5138134938719324  1.0000
  V   V8        1.0  0.5481882  0.6248228349999999  0.49524985920408815  1.0000
