data_image0
_chemical_formula_structural       COSn4Au12
_chemical_formula_sum              "C1 O1 Sn4 Au12"
_cell_length_a       6.085491388831082
_cell_length_b       7.900453534019695
_cell_length_c       101.60181412
_cell_angle_alpha    100.75648738666142
_cell_angle_beta     112.65215702612727
_cell_angle_gamma    67.34784296688717

_space_group_name_H-M_alt    "P 1"
_space_group_IT_number       1

loop_
  _space_group_symop_operation_xyz
  'x, y, z'

loop_
  _atom_site_type_symbol
  _atom_site_label
  _atom_site_symmetry_multiplicity
  _atom_site_fract_x
  _atom_site_fract_y
  _atom_site_fract_z
  _atom_site_occupancy
  C   C1        1.0  0.08312760499999991  0.23672913  0.5427222382342143  1.0000
  O   O1        1.0  0.21919298499999995  0.12573769999999998  0.5510127514872843  1.0000
  Sn  Sn1       1.0  0.7205310349999999  0.21260832000000002  0.4880649839611823  1.0000
  Sn  Sn2       1.0  0.7205310349999999  0.7126083200000001  0.4491854934795019  1.0000
  Sn  Sn3       1.0  0.3871976949999998  0.7959416600000001  0.4815850668073294  1.0000
  Sn  Sn4       1.0  0.39088870499999984  0.27607497000000003  0.5180032895888873  1.0000
  Au  Au1       1.0  0.3820987749999999  0.047216389999999976  0.46204620063827556  1.0000
  Au  Au2       1.0  0.40897400499999986  0.55611597  0.5037368897862096  1.0000
  Au  Au3       1.0  0.8897471649999998  0.79339219  0.4817833117741158  1.0000
  Au  Au4       1.0  0.9071354349999998  0.28078925  0.5202551492429162  1.0000
  Au  Au5       1.0  0.8897471649999998  0.047216389999999976  0.46204620063827556  1.0000
  Au  Au6       1.0  0.916872395  0.55241953  0.5036435821194127  1.0000
  Au  Au7       1.0  0.729266635  0.94905831  0.5070638606628342  1.0000
  Au  Au8       1.0  0.7256299549999997  0.46133358999999996  0.46872435964855563  1.0000
  Au  Au9       1.0  0.21798156499999988  0.21515779000000002  0.48786673899439587  1.0000
  Au  Au10      1.0  0.2179815649999998  0.7151577900000001  0.44898724851271543  1.0000
  Au  Au11      1.0  0.22422783499999976  0.9527836100000001  0.5068638147980485  1.0000
  Au  Au12      1.0  0.21798156499999982  0.46133358999999996  0.46872435964855563  1.0000
