data_image0
_chemical_formula_structural       COGa12Pd24
_chemical_formula_sum              "C1 O1 Ga12 Pd24"
_cell_length_a       5.62050595
_cell_length_b       11.4573596386223
_cell_length_c       105.82912906
_cell_angle_alpha    73.47255333171461
_cell_angle_beta     90.0
_cell_angle_gamma    90.0

_space_group_name_H-M_alt    "P 1"
_space_group_IT_number       1

loop_
  _space_group_symop_operation_xyz
  'x, y, z'

loop_
  _atom_site_type_symbol
  _atom_site_label
  _atom_site_symmetry_multiplicity
  _atom_site_fract_x
  _atom_site_fract_y
  _atom_site_fract_z
  _atom_site_occupancy
  C   C1        1.0  0.22514245000000002  0.23627378499999996  0.5360329301749784  1.0000
  O   O1        1.0  0.25191372  0.22414701499999995  0.5475089121753949  1.0000
  Ga  Ga1       1.0  0.70095679  0.4523567449999999  0.4985381811715794  1.0000
  Ga  Ga2       1.0  0.70095679  0.785690075  0.4703251488799048  1.0000
  Ga  Ga3       1.0  0.71081239  0.11747875499999998  0.5259314770061021  1.0000
  Ga  Ga4       1.0  0.27192948  0.8723089049999999  0.5279048647131898  1.0000
  Ga  Ga5       1.0  0.29093495  0.21369277499999997  0.5004571256238154  1.0000
  Ga  Ga6       1.0  0.29093495  0.5470261049999998  0.47224409333214096  1.0000
  Ga  Ga7       1.0  0.21097073000000002  0.541260985  0.5153095407685192  1.0000
  Ga  Ga8       1.0  0.20095679000000002  0.880359445  0.48635061117076017  1.0000
  Ga  Ga9       1.0  0.20095679000000002  0.21369277499999997  0.4581375754935216  1.0000
  Ga  Ga10      1.0  0.7932587299999999  0.7819253749999999  0.5123728416057256  1.0000
  Ga  Ga11      1.0  0.79093495  0.11902340499999998  0.48443166671852406  1.0000
  Ga  Ga12      1.0  0.79093495  0.4523567449999999  0.45621863104128557  1.0000
  Pd  Pd1       1.0  0.67241529  0.5523450649999999  0.5169717443595888  1.0000
  Pd  Pd2       1.0  0.66018063  0.8942210950000001  0.4886970846462325  1.0000
  Pd  Pd3       1.0  0.66018063  0.22755443499999997  0.460484052354558  1.0000
  Pd  Pd4       1.0  0.34781965000000004  0.768685965  0.5100052625242123  1.0000
  Pd  Pd5       1.0  0.33171111000000003  0.10516175499999998  0.4820851898574878  1.0000
  Pd  Pd6       1.0  0.33171111000000003  0.4384950849999999  0.4538721575658132  1.0000
  Pd  Pd7       1.0  0.16018063000000005  0.4384950849999999  0.496191707696107  1.0000
  Pd  Pd8       1.0  0.16018063000000005  0.7718284150000001  0.4679786720188685  1.0000
  Pd  Pd9       1.0  0.18199029000000003  0.10122606499999999  0.5255257036171967  1.0000
  Pd  Pd10      1.0  0.8208246499999999  0.895772895  0.530378300224617  1.0000
  Pd  Pd11      1.0  0.83257531  0.23068978499999995  0.5023139483620241  1.0000
  Pd  Pd12      1.0  0.8317111099999999  0.5608877649999998  0.4745905701931772  1.0000
  Pd  Pd13      1.0  0.53725203  0.6803365149999998  0.45249108782460523  1.0000
  Pd  Pd14      1.0  0.53113496  0.015342274999999987  0.5088961923811656  1.0000
  Pd  Pd15      1.0  0.53725203  0.34700317499999994  0.48070412011627967  1.0000
  Pd  Pd16      1.0  0.45463971000000003  0.6523796749999999  0.4900781543874405  1.0000
  Pd  Pd17      1.0  0.45463971000000003  0.9857130049999999  0.46186512209576597  1.0000
  Pd  Pd18      1.0  0.45904297  0.3136696049999999  0.5191225186930025  1.0000
  Pd  Pd19      1.0  0.04789737000000002  0.663958045  0.530626810779674  1.0000
  Pd  Pd20      1.0  0.03540845000000002  0.986330155  0.5041872113990675  1.0000
  Pd  Pd21      1.0  0.03725203000000002  0.31904633499999996  0.4759716365488213  1.0000
  Pd  Pd22      1.0  0.9546397099999999  0.6803365149999998  0.49481063795489894  1.0000
  Pd  Pd23      1.0  0.9546397099999999  0.013669844999999984  0.4665976056632244  1.0000
  Pd  Pd24      1.0  0.9645915499999999  0.3348278649999999  0.5235104398688641  1.0000
