data_image0
_chemical_formula_structural       CONi8Sb8Ni8Sb8
_chemical_formula_sum              "C1 O1 Ni16 Sb16"
_cell_length_a       11.143181275597355
_cell_length_b       6.93858536
_cell_length_c       102.04795302
_cell_angle_alpha    90.0
_cell_angle_beta     79.64474819541104
_cell_angle_gamma    71.86013363856895

_space_group_name_H-M_alt    "P 1"
_space_group_IT_number       1

loop_
  _space_group_symop_operation_xyz
  'x, y, z'

loop_
  _atom_site_type_symbol
  _atom_site_label
  _atom_site_symmetry_multiplicity
  _atom_site_fract_x
  _atom_site_fract_y
  _atom_site_fract_z
  _atom_site_occupancy
  C   C1        1.0  0.54018791  0.19646447  0.5352515491857073  1.0000
  O   O1        1.0  0.52594778  0.2039834600000001  0.5468871617077741  1.0000
  Ni  Ni1       1.0  0.55996918  0.19308959000000003  0.5174942968377931  1.0000
  Ni  Ni2       1.0  0.06394804000000003  0.4525873499999999  0.5236639263347318  1.0000
  Ni  Ni3       1.0  0.06234884  0.9511284099999999  0.5066785034145257  1.0000
  Ni  Ni4       1.0  0.56252106  0.69470492  0.4972758348057792  1.0000
  Ni  Ni5       1.0  0.81329886  0.06240871000000009  0.5111171884055538  1.0000
  Ni  Ni6       1.0  0.31161678000000004  0.32401654  0.519726967529375  1.0000
  Ni  Ni7       1.0  0.31198876999999997  0.8305060299999999  0.5023058156054875  1.0000
  Ni  Ni8       1.0  0.81252106  0.56970492  0.4923688351931621  1.0000
  Sb  Sb1       1.0  0.68752106  0.2988715900000001  0.4948223349994706  1.0000
  Sb  Sb2       1.0  0.19032000000000002  0.5595993899999999  0.5041826448173211  1.0000
  Sb  Sb3       1.0  0.17865443000000003  0.06615435000000001  0.5243832752053029  1.0000
  Sb  Sb4       1.0  0.6873848899999999  0.7968985400000002  0.5148968625634874  1.0000
  Sb  Sb5       1.0  0.9376511599999999  0.8281553300000001  0.5277122936592935  1.0000
  Sb  Sb6       1.0  0.43752105999999996  0.09053826000000006  0.49972933461208763  1.0000
  Sb  Sb7       1.0  0.43102952999999994  0.5948882900000002  0.5192515177377893  1.0000
  Sb  Sb8       1.0  0.9267132  0.34646830000000006  0.5103034492755545  1.0000
  Ni  Ni9       1.0  0.56252106  0.19470492  0.4776478363553111  1.0000
  Ni  Ni10      1.0  0.06252106000000002  0.44470491999999995  0.48746183558054507  1.0000
  Ni  Ni11      1.0  0.06252106000000002  0.94470492  0.46783383713007703  1.0000
  Ni  Ni12      1.0  0.56252106  0.69470492  0.458019837904843  1.0000
  Ni  Ni13      1.0  0.81252106  0.06970492000000006  0.472740836742694  1.0000
  Ni  Ni14      1.0  0.31252106  0.31970492  0.48255483596792803  1.0000
  Ni  Ni15      1.0  0.31252106  0.81970492  0.46292683751745994  1.0000
  Ni  Ni16      1.0  0.81252106  0.56970492  0.4531128382922259  1.0000
  Sb  Sb9       1.0  0.68752106  0.2988715900000001  0.4555663380985344  1.0000
  Sb  Sb10      1.0  0.18752106000000002  0.54887159  0.4653803373237685  1.0000
  Sb  Sb11      1.0  0.18752106000000002  0.04887159  0.4850083357742366  1.0000
  Sb  Sb12      1.0  0.68752106  0.7988715900000001  0.4751943365490025  1.0000
  Sb  Sb13      1.0  0.9375210599999999  0.8405382600000003  0.48991533538685367  1.0000
  Sb  Sb14      1.0  0.43752105999999996  0.09053826000000006  0.4604733377111515  1.0000
  Sb  Sb15      1.0  0.43752105999999996  0.59053826  0.48010133616161954  1.0000
  Sb  Sb16      1.0  0.9375210599999999  0.3405382600000001  0.4702873369363856  1.0000
