data_image0
_chemical_formula_structural       COGa8Au16Ga8Au16
_chemical_formula_sum              "C1 O1 Ga16 Au32"
_cell_length_a       7.03444815
_cell_length_b       6.81841254
_cell_length_c       124.63470276999999
_cell_angle_alpha    90.0
_cell_angle_beta     90.0
_cell_angle_gamma    90.0

_space_group_name_H-M_alt    "P 1"
_space_group_IT_number       1

loop_
  _space_group_symop_operation_xyz
  'x, y, z'

loop_
  _atom_site_type_symbol
  _atom_site_label
  _atom_site_symmetry_multiplicity
  _atom_site_fract_x
  _atom_site_fract_y
  _atom_site_fract_z
  _atom_site_occupancy
  C   C1        1.0  0.11400932500000004  0.38664134  0.5696373824407159  1.0000
  O   O1        1.0  0.13965975500000002  0.38656678  0.5788233856702849  1.0000
  Ga  Ga1       1.0  0.4321577450000001  0.13666416  0.47628042980170543  1.0000
  Ga  Ga2       1.0  0.9321577449999999  0.38666416000000003  0.46435930517360924  1.0000
  Ga  Ga3       1.0  0.466219545  0.13666416  0.44246199197410585  1.0000
  Ga  Ga4       1.0  0.966219545  0.38666416000000003  0.4981777430012088  1.0000
  Ga  Ga5       1.0  0.4498665050000001  0.38667988000000003  0.5500774239809226  1.0000
  Ga  Ga6       1.0  0.9343049350000001  0.14394790000000002  0.537486618809874  1.0000
  Ga  Ga7       1.0  0.466219545  0.38666416000000003  0.515521767689802  1.0000
  Ga  Ga8       1.0  0.966219545  0.13666416  0.425117962901926  1.0000
  Au  Au1       1.0  0.33877565500000006  0.38666416000000003  0.4942363944289978  1.0000
  Au  Au2       1.0  0.838775655  0.13666416  0.44640334054631686  1.0000
  Au  Au3       1.0  0.708988105  0.38666416000000003  0.48207081032038296  1.0000
  Au  Au4       1.0  0.20898810500000004  0.13666416  0.45856892027134505  1.0000
  Au  Au5       1.0  0.06297785500000003  0.13666416  0.48094002029053406  1.0000
  Au  Au6       1.0  0.5629778550000001  0.38666416000000003  0.45969971468478066  1.0000
  Au  Au7       1.0  0.6611721450000001  0.13666416  0.5016940195529345  1.0000
  Au  Au8       1.0  0.16117214500000002  0.38666416000000003  0.4389457154223802  1.0000
  Au  Au9       1.0  0.33877565500000006  0.13666416  0.421176614329715  1.0000
  Au  Au10      1.0  0.838775655  0.38666416000000003  0.519463116262013  1.0000
  Au  Au11      1.0  0.691423755  0.11333584000000002  0.5543971111556153  1.0000
  Au  Au12      1.0  0.22436507500000002  0.3867113  0.5329014397055882  1.0000
  Au  Au13      1.0  0.04088264500000003  0.38672254000000006  0.5540681536575152  1.0000
  Au  Au14      1.0  0.565402535  0.13184115000000002  0.5317842475617394  1.0000
  Au  Au15      1.0  0.6611721450000001  0.38666416000000003  0.4286342394536516  1.0000
  Au  Au16      1.0  0.16117214500000002  0.13666416  0.5120054911380764  1.0000
  Ga  Ga9       1.0  0.4321577450000001  0.63666416  0.47628042980170543  1.0000
  Ga  Ga10      1.0  0.9321577449999999  0.88666416  0.46435930517360924  1.0000
  Ga  Ga11      1.0  0.466219545  0.63666416  0.44246199197410585  1.0000
  Ga  Ga12      1.0  0.966219545  0.88666416  0.4981777430012088  1.0000
  Ga  Ga13      1.0  0.3973789850000001  0.8866626800000001  0.5521834042464681  1.0000
  Ga  Ga14      1.0  0.934337235  0.62910657  0.5374771677969093  1.0000
  Ga  Ga15      1.0  0.466219545  0.88666416  0.515521767689802  1.0000
  Ga  Ga16      1.0  0.966219545  0.63666416  0.425117962901926  1.0000
  Au  Au17      1.0  0.33877565500000006  0.88666416  0.4942363944289978  1.0000
  Au  Au18      1.0  0.838775655  0.63666416  0.44640334054631686  1.0000
  Au  Au19      1.0  0.708988105  0.88666416  0.48207081032038296  1.0000
  Au  Au20      1.0  0.20898810500000004  0.63666416  0.45856892027134505  1.0000
  Au  Au21      1.0  0.06297785500000003  0.63666416  0.48094002029053406  1.0000
  Au  Au22      1.0  0.5629778550000001  0.88666416  0.45969971468478066  1.0000
  Au  Au23      1.0  0.6611721450000001  0.63666416  0.5016940195529345  1.0000
  Au  Au24      1.0  0.16117214500000002  0.88666416  0.4389457154223802  1.0000
  Au  Au25      1.0  0.33877565500000006  0.63666416  0.421176614329715  1.0000
  Au  Au26      1.0  0.838775655  0.88666416  0.519463116262013  1.0000
  Au  Au27      1.0  0.6914697750000001  0.6599511800000001  0.5543956075853711  1.0000
  Au  Au28      1.0  0.21725832500000003  0.88662227  0.5318653395324411  1.0000
  Au  Au29      1.0  0.033780455000000036  0.88663941  0.5533380190701308  1.0000
  Au  Au30      1.0  0.5653998350000001  0.64145701  0.5317869127824641  1.0000
  Au  Au31      1.0  0.6611721450000001  0.88666416  0.4286342394536516  1.0000
  Au  Au32      1.0  0.16117214500000002  0.63666416  0.5120054911380764  1.0000
