data_image0
_chemical_formula_structural       COSn5Pt15Sn5Pt15
_chemical_formula_sum              "C1 O1 Sn10 Pt30"
_cell_length_a       9.12593315824201
_cell_length_b       5.77174691
_cell_length_c       105.34458714
_cell_angle_alpha    90.0
_cell_angle_beta     104.96321743743452
_cell_angle_gamma    71.56505114696533

_space_group_name_H-M_alt    "P 1"
_space_group_IT_number       1

loop_
  _space_group_symop_operation_xyz
  'x, y, z'

loop_
  _atom_site_type_symbol
  _atom_site_label
  _atom_site_symmetry_multiplicity
  _atom_site_fract_x
  _atom_site_fract_y
  _atom_site_fract_z
  _atom_site_occupancy
  C   C1        1.0  0.8388872  0.3127322149999999  0.5672644150438755  1.0000
  O   O1        1.0  0.9044634500000001  0.27518993499999983  0.5785191761969646  1.0000
  Sn  Sn1       1.0  0.43076267  0.2655410649999998  0.5435219793257271  1.0000
  Sn  Sn2       1.0  0.8718697400000001  0.04946391499999985  0.5328726498875441  1.0000
  Sn  Sn3       1.0  0.049999999999999975  0.4505360849999998  0.48858363012573336  1.0000
  Sn  Sn4       1.0  0.25  0.850536085  0.5154247526548127  1.0000
  Sn  Sn5       1.0  0.6499999999999999  0.6505360849999999  0.5020041913902731  1.0000
  Pt  Pt1       1.0  0.25  0.3505360849999999  0.5154247526548127  1.0000
  Pt  Pt2       1.0  0.6499999999999999  0.15053608499999982  0.5020041913902731  1.0000
  Pt  Pt3       1.0  0.8506120599999999  0.554902795  0.5292743961041021  1.0000
  Pt  Pt4       1.0  0.049999999999999975  0.9505360849999999  0.48858363012573336  1.0000
  Pt  Pt5       1.0  0.42781897999999996  0.7552355649999998  0.5405562567255247  1.0000
  Pt  Pt6       1.0  0.54692782  0.9383704450000001  0.5208678437616426  1.0000
  Pt  Pt7       1.0  0.9500000000000001  0.7505360849999998  0.5087144720225428  1.0000
  Pt  Pt8       1.0  0.14807976999999997  0.1588670849999999  0.5353317328794489  1.0000
  Pt  Pt9       1.0  0.35  0.550536085  0.4952939107580033  1.0000
  Pt  Pt10      1.0  0.7265775499999999  0.38055255499999985  0.549427553039154  1.0000
  Pt  Pt11      1.0  0.5637104099999999  0.41922518499999983  0.523038099499433  1.0000
  Pt  Pt12      1.0  0.9500000000000001  0.2505360849999999  0.5087144720225428  1.0000
  Pt  Pt13      1.0  0.14269537999999996  0.6585518749999999  0.5351424996104786  1.0000
  Pt  Pt14      1.0  0.35  0.05053608499999991  0.4952939107580033  1.0000
  Pt  Pt15      1.0  0.7069655799999999  0.881532835  0.5467617330112498  1.0000
  Sn  Sn6       1.0  0.44999999999999996  0.2505360849999998  0.47516306886119386  1.0000
  Sn  Sn7       1.0  0.8499999999999999  0.05053608499999987  0.4617425075966543  1.0000
  Sn  Sn8       1.0  0.049999999999999975  0.4505360849999998  0.4214808238030355  1.0000
  Sn  Sn9       1.0  0.25  0.850536085  0.44832194633211464  1.0000
  Sn  Sn10      1.0  0.6499999999999999  0.6505360849999999  0.4349013850675751  1.0000
  Pt  Pt16      1.0  0.25  0.3505360849999999  0.44832194633211464  1.0000
  Pt  Pt17      1.0  0.6499999999999999  0.15053608499999982  0.4349013850675751  1.0000
  Pt  Pt18      1.0  0.8499999999999999  0.5505360849999998  0.4617425075966543  1.0000
  Pt  Pt19      1.0  0.049999999999999975  0.9505360849999999  0.4214808238030355  1.0000
  Pt  Pt20      1.0  0.44999999999999996  0.7505360849999998  0.47516306886119386  1.0000
  Pt  Pt21      1.0  0.5499999999999999  0.9505360850000001  0.4550322269643845  1.0000
  Pt  Pt22      1.0  0.9500000000000001  0.7505360849999998  0.44161166569984484  1.0000
  Pt  Pt23      1.0  0.15  0.15053608499999988  0.46845278822892406  1.0000
  Pt  Pt24      1.0  0.35  0.550536085  0.4281911044353052  1.0000
  Pt  Pt25      1.0  0.75  0.35053608499999994  0.48187334949346367  1.0000
  Pt  Pt26      1.0  0.5499999999999999  0.450536085  0.4550322269643845  1.0000
  Pt  Pt27      1.0  0.9500000000000001  0.2505360849999999  0.44161166569984484  1.0000
  Pt  Pt28      1.0  0.15  0.6505360849999999  0.46845278822892406  1.0000
  Pt  Pt29      1.0  0.35  0.05053608499999991  0.4281911044353052  1.0000
  Pt  Pt30      1.0  0.75  0.850536085  0.48187334949346367  1.0000
