data_image0
_chemical_formula_structural       CORh12Sn4
_chemical_formula_sum              "C1 O1 Rh12 Sn4"
_cell_length_a       4.79039985
_cell_length_b       4.790399853769026
_cell_length_c       104.35880974
_cell_angle_alpha    90.0
_cell_angle_beta     90.0
_cell_angle_gamma    106.58893887528814

_space_group_name_H-M_alt    "P 1"
_space_group_IT_number       1

loop_
  _space_group_symop_operation_xyz
  'x, y, z'

loop_
  _atom_site_type_symbol
  _atom_site_label
  _atom_site_symmetry_multiplicity
  _atom_site_fract_x
  _atom_site_fract_y
  _atom_site_fract_z
  _atom_site_occupancy
  C   C1        1.0  0.5000007000000001  0.5000011350000001  0.5519372996966356  1.0000
  O   O1        1.0  0.5000015  0.5000017449999999  0.5631764362060255  1.0000
  Rh  Rh1       1.0  0.50000027  9.049999999753663e-07  0.4368235637939745  1.0000
  Rh  Rh2       1.0  2.699999999795016e-07  0.5000009049999999  0.4642600019596082  1.0000
  Rh  Rh3       1.0  2.699999999795016e-07  0.5000009049999999  0.4368235637939745  1.0000
  Rh  Rh4       1.0  0.50000027  9.049999999753663e-07  0.4642600019596082  1.0000
  Rh  Rh5       1.0  2.6999999998076034e-07  9.049999999753663e-07  0.450541781230605  1.0000
  Rh  Rh6       1.0  0.50000027  0.5000009049999999  0.4779782226886114  1.0000
  Rh  Rh7       1.0  0.50000027  9.049999999753663e-07  0.4916964401252418  1.0000
  Rh  Rh8       1.0  0.99999967  0.5000002450000001  0.5186043273605052  1.0000
  Rh  Rh9       1.0  2.699999999795016e-07  0.5000009049999999  0.4916964401252418  1.0000
  Rh  Rh10      1.0  0.49999948  3.4499999990167396e-07  0.518604340529996  1.0000
  Rh  Rh11      1.0  0.9999997300000002  4.049999999811149e-07  0.5053259742105133  1.0000
  Rh  Rh12      1.0  0.49999953  0.5000001949999999  0.5342569783838192  1.0000
  Sn  Sn1       1.0  0.50000027  0.5000009049999999  0.450541781230605  1.0000
  Sn  Sn2       1.0  2.6999999998076034e-07  9.049999999753663e-07  0.4779782226886114  1.0000
  Sn  Sn3       1.0  0.49999961  0.500000275  0.5054765047832591  1.0000
  Sn  Sn4       1.0  0.9999987499999998  0.999999595  0.5320660953018861  1.0000
