data_image0
_chemical_formula_structural       COGa6Cu3Ga6Cu3
_chemical_formula_sum              "C1 O1 Ga12 Cu6"
_cell_length_a       5.97079968
_cell_length_b       6.428869490517006
_cell_length_c       102.52779258999999
_cell_angle_alpha    71.56505114889494
_cell_angle_beta     90.0
_cell_angle_gamma    90.0

_space_group_name_H-M_alt    "P 1"
_space_group_IT_number       1

loop_
  _space_group_symop_operation_xyz
  'x, y, z'

loop_
  _atom_site_type_symbol
  _atom_site_label
  _atom_site_symmetry_multiplicity
  _atom_site_fract_x
  _atom_site_fract_y
  _atom_site_fract_z
  _atom_site_occupancy
  C   C1        1.0  0.13537916  0.8555559349999999  0.5345065888560117  1.0000
  O   O1        1.0  0.13535339  0.741379265  0.5461110945960777  1.0000
  Ga  Ga1       1.0  0.8509306799999998  0.811110735  0.45388890540392235  1.0000
  Ga  Ga2       1.0  0.8509306799999998  0.47777739499999994  0.48032709553363373  1.0000
  Ga  Ga3       1.0  0.8509306799999998  0.144444065  0.4671080020550695  1.0000
  Ga  Ga4       1.0  0.41977538  0.811110735  0.45388890540392235  1.0000
  Ga  Ga5       1.0  0.41977538  0.47777739499999994  0.48032709553363373  1.0000
  Ga  Ga6       1.0  0.41977538  0.144444065  0.4671080020550695  1.0000
  Cu  Cu1       1.0  0.13535303  0.811110735  0.4737175487943515  1.0000
  Cu  Cu2       1.0  0.13535303  0.47777739499999994  0.4604984521432045  1.0000
  Cu  Cu3       1.0  0.13535303  0.144444065  0.48693664544549875  1.0000
  Ga  Ga7       1.0  0.8509306799999998  0.811110735  0.49354619218478074  1.0000
  Ga  Ga8       1.0  0.8646827099999999  0.47415114499999994  0.5213002904044545  1.0000
  Ga  Ga9       1.0  0.84304909  0.15388174500000001  0.5054305705016995  1.0000
  Ga  Ga10      1.0  0.41977538  0.811110735  0.49354619218478074  1.0000
  Ga  Ga11      1.0  0.4058780999999999  0.474141655  0.521296784700303  1.0000
  Ga  Ga12      1.0  0.42765921999999995  0.153914705  0.5054266936053439  1.0000
  Cu  Cu4       1.0  0.1354628  0.807121935  0.5152232680572316  1.0000
  Cu  Cu5       1.0  0.1353765  0.484693745  0.49943716792309134  1.0000
  Cu  Cu6       1.0  0.13531729  0.15930711500000003  0.522936914904071  1.0000
