data_image0
_chemical_formula_structural       COAl2Os2Al2Os2Al2Os2Al2Os2Al2Os2Al2Os2Al2Os2Al2Os2
_chemical_formula_sum              "C1 O1 Al16 Os16"
_cell_length_a       6.06478792
_cell_length_b       8.57690532
_cell_length_c       100.01916865
_cell_angle_alpha    90.0
_cell_angle_beta     90.0
_cell_angle_gamma    90.0

_space_group_name_H-M_alt    "P 1"
_space_group_IT_number       1

loop_
  _space_group_symop_operation_xyz
  'x, y, z'

loop_
  _atom_site_type_symbol
  _atom_site_label
  _atom_site_symmetry_multiplicity
  _atom_site_fract_x
  _atom_site_fract_y
  _atom_site_fract_z
  _atom_site_occupancy
  C   C1        1.0  0.623930715  0.624395085  0.537272839821962  1.0000
  O   O1        1.0  0.623930635  0.624400285  0.5488878035120928  1.0000
  Al  Al1       1.0  0.12393111500000001  0.374401005  0.4511121964879073  1.0000
  Al  Al2       1.0  0.12393111500000001  0.12440100500000002  0.47255034997588197  1.0000
  Os  Os1       1.0  0.37393111500000004  0.374401005  0.47255034997588197  1.0000
  Os  Os2       1.0  0.37393111500000004  0.12440100500000002  0.4511121964879073  1.0000
  Al  Al3       1.0  0.12392357500000001  0.37495283500000004  0.4935744263784811  1.0000
  Al  Al4       1.0  0.123930935  0.12443091500000003  0.5155685033547477  1.0000
  Os  Os3       1.0  0.371807415  0.373200955  0.5145278031795674  1.0000
  Os  Os4       1.0  0.373942295  0.12439645500000003  0.4934859108135373  1.0000
  Al  Al5       1.0  0.12393111500000001  0.874401005  0.4511121964879073  1.0000
  Al  Al6       1.0  0.12393111500000001  0.6244010050000001  0.47255034997588197  1.0000
  Os  Os5       1.0  0.37393111500000004  0.874401005  0.47255034997588197  1.0000
  Os  Os6       1.0  0.37393111500000004  0.6244010050000001  0.4511121964879073  1.0000
  Al  Al7       1.0  0.12393830500000001  0.873848445  0.49357444738787193  1.0000
  Al  Al8       1.0  0.123930965  0.6243669350000001  0.515905232867081  1.0000
  Os  Os7       1.0  0.371785495  0.8756035449999999  0.5145246637763079  1.0000
  Os  Os8       1.0  0.37482146499999996  0.6244031050000001  0.493809254342565  1.0000
  Al  Al9       1.0  0.623931115  0.374401005  0.4511121964879073  1.0000
  Al  Al10      1.0  0.623931115  0.12440100500000002  0.47255034997588197  1.0000
  Os  Os9       1.0  0.873931115  0.374401005  0.47255034997588197  1.0000
  Os  Os10      1.0  0.873931115  0.12440100500000002  0.4511121964879073  1.0000
  Al  Al11      1.0  0.6239380449999999  0.373939905  0.49367045430132034  1.0000
  Al  Al12      1.0  0.623930725  0.12442909500000002  0.5152916055861806  1.0000
  Os  Os11      1.0  0.8760545049999999  0.3732004750000001  0.5145279262345709  1.0000
  Os  Os12      1.0  0.873919215  0.12440859500000004  0.49348587179609715  1.0000
  Al  Al13      1.0  0.623931115  0.874401005  0.4511121964879073  1.0000
  Al  Al14      1.0  0.623931115  0.6244010050000001  0.47255034997588197  1.0000
  Os  Os13      1.0  0.873931115  0.874401005  0.47255034997588197  1.0000
  Os  Os14      1.0  0.873931115  0.6244010050000001  0.4511121964879073  1.0000
  Al  Al15      1.0  0.623923735  0.8748618650000001  0.4936697009645917  1.0000
  Al  Al16      1.0  0.623930965  0.624364615  0.5166951199330909  1.0000
  Os  Os15      1.0  0.8760764249999999  0.875602935  0.5145246067508185  1.0000
  Os  Os16      1.0  0.873048755  0.624410615  0.49380938940293473  1.0000
