data_image0
_chemical_formula_structural       CONi12V6Ni12V6
_chemical_formula_sum              "C1 O1 Ni24 V12"
_cell_length_a       8.830714767011239
_cell_length_b       5.69272904873641
_cell_length_c       100.43404457
_cell_angle_alpha    84.76620771015864
_cell_angle_beta     88.57454407154857
_cell_angle_gamma    74.8975190306833

_space_group_name_H-M_alt    "P 1"
_space_group_IT_number       1

loop_
  _space_group_symop_operation_xyz
  'x, y, z'

loop_
  _atom_site_type_symbol
  _atom_site_label
  _atom_site_symmetry_multiplicity
  _atom_site_fract_x
  _atom_site_fract_y
  _atom_site_fract_z
  _atom_site_occupancy
  C   C1        1.0  0.3918874100000001  0.50271252  0.5398569278607106  1.0000
  O   O1        1.0  0.3882954700000001  0.53820917  0.5514505622102722  1.0000
  Ni  Ni1       1.0  0.036107370000000076  0.8345562700000001  0.49663102512360996  1.0000
  Ni  Ni2       1.0  0.3915321700000001  0.16378303  0.5111061441041833  1.0000
  Ni  Ni3       1.0  0.25826457000000014  0.50818982  0.5252384234248239  1.0000
  Ni  Ni4       1.0  0.17732708000000008  0.9415726100000001  0.5157089572173762  1.0000
  Ni  Ni5       1.0  0.037795480000000096  0.30270343  0.5284249756269125  1.0000
  Ni  Ni6       1.0  0.3228345200000001  0.61231882  0.5014648313022977  1.0000
  Ni  Ni7       1.0  0.46467880000000017  0.8345562700000001  0.45334171436731074  1.0000
  Ni  Ni8       1.0  0.3218216600000001  0.1678896  0.4677714825992425  1.0000
  Ni  Ni9       1.0  0.17896451000000016  0.5012229300000001  0.48220125386142626  1.0000
  Ni  Ni10      1.0  0.10596360000000013  0.9440368  0.4726167007062601  1.0000
  Ni  Ni11      1.0  0.4631064500000001  0.27737013  0.48704647196844375  1.0000
  Ni  Ni12      1.0  0.2488207400000001  0.61070347  0.45818692944407646  1.0000
  V   V1        1.0  0.4605172100000003  0.7378840399999999  0.5198516902279702  1.0000
  V   V2        1.0  0.24960691000000015  0.0559632  0.4918387485460268  1.0000
  V   V3        1.0  0.10945112000000011  0.38716476  0.505958018995632  1.0000
  V   V4        1.0  0.39246406000000006  0.72262987  0.47740897728384324  1.0000
  V   V5        1.0  0.1781783500000001  0.0559632  0.4485494377897277  1.0000
  V   V6        1.0  0.035321200000000094  0.38929653  0.46297920602165954  1.0000
  Ni  Ni13      1.0  0.5361073700000001  0.8345562700000001  0.4966310251236099  1.0000
  Ni  Ni14      1.0  0.8929916200000001  0.16374734999999999  0.5114688167622357  1.0000
  Ni  Ni15      1.0  0.7538081800000002  0.49898660000000006  0.5244419338566406  1.0000
  Ni  Ni16      1.0  0.6771064700000001  0.94228257  0.5160160277849019  1.0000
  Ni  Ni17      1.0  0.5361809900000001  0.28160204  0.5293544568866887  1.0000
  Ni  Ni18      1.0  0.82240241  0.61231489  0.5013280214934196  1.0000
  Ni  Ni19      1.0  0.9646788000000003  0.8345562700000001  0.4533417143673107  1.0000
  Ni  Ni20      1.0  0.8218216600000002  0.1678896  0.4677714825992426  1.0000
  Ni  Ni21      1.0  0.6789645100000002  0.5012229300000001  0.48220125386142626  1.0000
  Ni  Ni22      1.0  0.6059636000000002  0.9440368  0.4726167007062601  1.0000
  Ni  Ni23      1.0  0.9631064500000002  0.27737013  0.48704647196844375  1.0000
  Ni  Ni24      1.0  0.7488207400000001  0.61070347  0.4581869294440765  1.0000
  V   V7        1.0  0.9579340800000001  0.7347070500000001  0.5195742009786484  1.0000
  V   V8        1.0  0.7496069100000001  0.0559632  0.4918387485460268  1.0000
  V   V9        1.0  0.6078529400000001  0.38816403000000005  0.5060610717993069  1.0000
  V   V10       1.0  0.8924640600000001  0.72262987  0.4774089772838432  1.0000
  V   V11       1.0  0.6781783500000002  0.0559632  0.4485494377897277  1.0000
  V   V12       1.0  0.5353212000000002  0.38929653  0.46297920602165954  1.0000
