data_image0
_chemical_formula_structural       COGa36Rh8
_chemical_formula_sum              "C1 O1 Ga36 Rh8"
_cell_length_a       6.49738749
_cell_length_b       11.376414308477637
_cell_length_c       102.43092724
_cell_angle_alpha    72.16830731273697
_cell_angle_beta     90.0
_cell_angle_gamma    90.0

_space_group_name_H-M_alt    "P 1"
_space_group_IT_number       1

loop_
  _space_group_symop_operation_xyz
  'x, y, z'

loop_
  _atom_site_type_symbol
  _atom_site_label
  _atom_site_symmetry_multiplicity
  _atom_site_fract_x
  _atom_site_fract_y
  _atom_site_fract_z
  _atom_site_occupancy
  C   C1        1.0  0.47383115  0.92750259  0.553316036147732  1.0000
  O   O1        1.0  0.4428343  0.87245336  0.5646048569911047  1.0000
  Ga  Ga1       1.0  0.76361213  0.77177227  0.5084048801235814  1.0000
  Ga  Ga2       1.0  0.7613042099999999  0.2729477699999999  0.45355131437768476  1.0000
  Ga  Ga3       1.0  0.19747627999999998  0.013883129999999954  0.5328328536245222  1.0000
  Ga  Ga4       1.0  0.23869578999999996  0.5229477699999999  0.4799357039270825  1.0000
  Ga  Ga5       1.0  0.6345228899999998  0.9443536400000001  0.4433177983216994  1.0000
  Ga  Ga6       1.0  0.6345228899999998  0.4443536399999999  0.4960865742543685  1.0000
  Ga  Ga7       1.0  0.36547711  0.19435363999999994  0.4697021847049706  1.0000
  Ga  Ga8       1.0  0.36282921999999995  0.6951130699999999  0.5204129942480578  1.0000
  Ga  Ga9       1.0  0.7607308099999999  0.83760869  0.4745038149970246  1.0000
  Ga  Ga10      1.0  0.8077768799999999  0.3621524199999999  0.5268915444401783  1.0000
  Ga  Ga11      1.0  0.23926918999999996  0.08760868999999995  0.500888201380296  1.0000
  Ga  Ga12      1.0  0.23926918999999996  0.5876086899999999  0.4481194286137533  1.0000
  Ga  Ga13      1.0  0.7400731499999998  0.20878949999999996  0.49249299219008635  1.0000
  Ga  Ga14      1.0  0.7400731499999998  0.7087894999999999  0.4397242162574172  1.0000
  Ga  Ga15      1.0  0.25992684999999993  0.9587895  0.466108605806815  1.0000
  Ga  Ga16      1.0  0.28643317  0.44499493999999995  0.5230315644928056  1.0000
  Ga  Ga17      1.0  0.5526521799999999  0.97691657  0.4889139648092909  1.0000
  Ga  Ga18      1.0  0.5526521799999999  0.4769165699999999  0.4361451888766217  1.0000
  Ga  Ga19      1.0  0.44734781999999995  0.7269165699999999  0.46252957842601955  1.0000
  Ga  Ga20      1.0  0.4559733999999999  0.22849114999999995  0.5166239007067288  1.0000
  Ga  Ga21      1.0  0.9455242999999999  0.07757192999999994  0.4772185658323659  1.0000
  Ga  Ga22      1.0  0.96266767  0.5840628799999998  0.5289742319454148  1.0000
  Ga  Ga23      1.0  0.06245825000000001  0.3341071399999999  0.5026040171443245  1.0000
  Ga  Ga24      1.0  0.0544757  0.82757193  0.45083417944909454  1.0000
  Ga  Ga25      1.0  0.45227835999999993  0.7008331999999998  0.49261774390614926  1.0000
  Ga  Ga26      1.0  0.45227835999999993  0.20083319999999993  0.43984897113960664  1.0000
  Ga  Ga27      1.0  0.52498008  0.94463978  0.517584278689614  1.0000
  Ga  Ga28      1.0  0.54772164  0.45083319999999993  0.4662333575228779  1.0000
  Ga  Ga29      1.0  0.027850610000000005  0.32703178999999993  0.4739498093494694  1.0000
  Ga  Ga30      1.0  0.05770908  0.8252871599999999  0.5266590051138  1.0000
  Ga  Ga31      1.0  0.9721493899999999  0.07703178999999996  0.4475654198000716  1.0000
  Ga  Ga32      1.0  0.9721493899999999  0.5770317899999999  0.5003341957327407  1.0000
  Ga  Ga33      1.0  0.15672392  0.8613284  0.49611512638307903  1.0000
  Ga  Ga34      1.0  0.15672392  0.36132839999999994  0.44334635361653646  1.0000
  Ga  Ga35      1.0  0.82894975  0.12339208999999997  0.5208867354228981  1.0000
  Ga  Ga36      1.0  0.8432760799999999  0.6113283999999999  0.4697307399998078  1.0000
  Rh  Rh1       1.0  0.6232614999999999  0.05712259999999995  0.46177952939216665  1.0000
  Rh  Rh2       1.0  0.6261440499999998  0.5600133499999999  0.5140675796749526  1.0000
  Rh  Rh3       1.0  0.3767385  0.3071225999999999  0.488163915775438  1.0000
  Rh  Rh4       1.0  0.3767385  0.8071226  0.43539514300889537  1.0000
  Rh  Rh5       1.0  0.8804821499999999  0.98611687  0.5045682218639536  1.0000
  Rh  Rh6       1.0  0.8791954599999999  0.4858763599999999  0.45210809893854575  1.0000
  Rh  Rh7       1.0  0.12080454000000002  0.7358763599999999  0.4784924884879436  1.0000
  Rh  Rh8       1.0  0.11870912  0.23512006999999996  0.5278697952071145  1.0000
