data_image0
_chemical_formula_structural       COAl24W6
_chemical_formula_sum              "C1 O1 Al24 W6"
_cell_length_a       9.30210009534477
_cell_length_b       6.764653022765428
_cell_length_c       101.55589036
_cell_angle_alpha    92.69770691224703
_cell_angle_beta     94.13353092780902
_cell_angle_gamma    79.43910829679434

_space_group_name_H-M_alt    "P 1"
_space_group_IT_number       1

loop_
  _space_group_symop_operation_xyz
  'x, y, z'

loop_
  _atom_site_type_symbol
  _atom_site_label
  _atom_site_symmetry_multiplicity
  _atom_site_fract_x
  _atom_site_fract_y
  _atom_site_fract_z
  _atom_site_occupancy
  C   C1        1.0  0.22846282500000004  0.2686569850000001  0.5334083761370233  1.0000
  O   O1        1.0  0.22522760500000003  0.285185005  0.5452465801296571  1.0000
  Al  Al1       1.0  0.42107543500000005  0.928075485  0.4650033500157269  1.0000
  Al  Al2       1.0  0.5524938750000001  0.42886100499999996  0.5040148603022385  1.0000
  Al  Al3       1.0  0.45612304500000006  0.430046125  0.47589349665930997  1.0000
  Al  Al4       1.0  0.571914915  0.9260478950000001  0.5134258594983812  1.0000
  Al  Al5       1.0  0.23432385500000005  0.6227662450000002  0.45475341987034273  1.0000
  Al  Al6       1.0  0.359323855  0.12276624500000004  0.4935939664995674  1.0000
  Al  Al7       1.0  0.6476320450000002  0.04588405500000005  0.4876216731514526  1.0000
  Al  Al8       1.0  0.7690161650000001  0.5552683150000001  0.5280233238887487  1.0000
  Al  Al9       1.0  0.31064107500000004  0.8047729350000001  0.5092754084014819  1.0000
  Al  Al10      1.0  0.20349663500000004  0.302432135  0.47089373952635366  1.0000
  Al  Al11      1.0  0.6470011750000001  0.18416426500000008  0.46170656131059457  1.0000
  Al  Al12      1.0  0.775117205  0.6737514150000001  0.5007462760484465  1.0000
  Al  Al13      1.0  0.22189279500000003  0.8236075850000001  0.479861257361084  1.0000
  Al  Al14      1.0  0.36762184500000006  0.314267285  0.5187576598036051  1.0000
  Al  Al15      1.0  0.6850171150000002  0.700107765  0.4702676578798841  1.0000
  Al  Al16      1.0  0.8207576850000001  0.22624660500000005  0.5085253788026093  1.0000
  Al  Al17      1.0  0.921784005  0.7397004050000002  0.4559199537405612  1.0000
  Al  Al18      1.0  0.046784005000000024  0.23970040500000006  0.49476050036978575  1.0000
  Al  Al19      1.0  0.9281436049999999  0.004671185000000098  0.47650317205888326  1.0000
  Al  Al20      1.0  0.057697905000000035  0.5390226350000001  0.5164427041868724  1.0000
  Al  Al21      1.0  0.9130295549999999  0.3334361450000001  0.4624313849483268  1.0000
  Al  Al22      1.0  0.024904395000000027  0.8497135150000003  0.5007050025299763  1.0000
  Al  Al23      1.0  0.08985026500000001  0.06333562500000006  0.5227035765819549  1.0000
  Al  Al24      1.0  0.975095605  0.5835518650000002  0.48186064751905094  1.0000
  W   W1        1.0  0.5005129450000001  0.765714815  0.48968652050584294  1.0000
  W   W2        1.0  0.658442135  0.21358472500000003  0.5273440089426911  1.0000
  W   W3        1.0  0.11856513500000004  0.9953288150000001  0.4561493087220285  1.0000
  W   W4        1.0  0.24356513500000002  0.495328815  0.49498985535125317  1.0000
  W   W5        1.0  0.850964975  0.8947787250000001  0.5216851929855553  1.0000
  W   W6        1.0  0.7573441150000001  0.358321085  0.4843469427695619  1.0000
