data_image0
_chemical_formula_structural       COIn10Pt10
_chemical_formula_sum              "C1 O1 In10 Pt10"
_cell_length_a       7.1072746447300625
_cell_length_b       7.3255810285792675
_cell_length_c       38.77597461
_cell_angle_alpha    90.70783811427019
_cell_angle_beta     90.89744450654443
_cell_angle_gamma    77.15519257950663

_space_group_name_H-M_alt    "P 1"
_space_group_IT_number       1

loop_
  _space_group_symop_operation_xyz
  'x, y, z'

loop_
  _atom_site_type_symbol
  _atom_site_label
  _atom_site_symmetry_multiplicity
  _atom_site_fract_x
  _atom_site_fract_y
  _atom_site_fract_z
  _atom_site_occupancy
  C   C1        1.0  0.18199871999999997  0.06975072  0.5928022954660435  1.0000
  O   O1        1.0  0.17780782  0.06308733  0.6228758846649325  1.0000
  In  In1       1.0  0.05355406000000001  0.93691267  0.47927400484158916  1.0000
  In  In2       1.0  0.30408698  0.6951794099999999  0.37757815077565277  1.0000
  In  In3       1.0  0.18057608999999997  0.11650404  0.40812126020988115  1.0000
  In  In4       1.0  0.91895442  0.35795757000000006  0.5111125143886545  1.0000
  In  In5       1.0  0.9301658600000001  0.7988129600000001  0.5542147828160432  1.0000
  In  In6       1.0  0.17759787  0.5238547800000001  0.4476902334547245  1.0000
  In  In7       1.0  0.6379417000000001  0.10550707  0.4395500145484762  1.0000
  In  In8       1.0  0.39402263  0.38416328000000005  0.5394224233113344  1.0000
  In  In9       1.0  0.47868307  0.7978295300000001  0.5182470993491217  1.0000
  In  In10      1.0  0.72023226  0.53485175  0.41626147911612954  1.0000
  Pt  Pt1       1.0  0.5548165700000001  0.44527818  0.47662451056029076  1.0000
  Pt  Pt2       1.0  0.8040869800000001  0.19517941  0.3775781507756527  1.0000
  Pt  Pt3       1.0  0.059617819999999995  0.45747646999999997  0.377124115335068  1.0000
  Pt  Pt4       1.0  0.8168416999999999  0.69418786  0.47932806070596173  1.0000
  Pt  Pt5       1.0  0.28970204  0.18096787  0.47783111668885286  1.0000
  Pt  Pt6       1.0  0.5485561400000001  0.9328823500000001  0.37803218621623746  1.0000
  Pt  Pt7       1.0  0.41172802  0.8052872100000001  0.4445160840500545  1.0000
  Pt  Pt8       1.0  0.20116742999999998  0.0933957  0.5448094811408226  1.0000
  Pt  Pt9       1.0  0.69252596  0.08337402000000001  0.5102878262686318  1.0000
  Pt  Pt10      1.0  0.94644594  0.8350716100000001  0.411295409614551  1.0000
