data_image0
_chemical_formula_structural       COPt4Rh12
_chemical_formula_sum              "C1 O1 Pt4 Rh12"
_cell_length_a       4.75041325
_cell_length_b       4.750413245441407
_cell_length_c       102.97695044
_cell_angle_alpha    90.0
_cell_angle_beta     90.0
_cell_angle_gamma    109.3108116243827

_space_group_name_H-M_alt    "P 1"
_space_group_IT_number       1

loop_
  _space_group_symop_operation_xyz
  'x, y, z'

loop_
  _atom_site_type_symbol
  _atom_site_label
  _atom_site_symmetry_multiplicity
  _atom_site_fract_x
  _atom_site_fract_y
  _atom_site_fract_z
  _atom_site_occupancy
  C   C1        1.0  2.6999999998819507e-07  2.600000000457723e-07  0.5501960348015029  1.0000
  O   O1        1.0  3.5999999998819505e-07  3.500000000457723e-07  0.561553449691929  1.0000
  Pt  Pt1       1.0  0.50000006  0.5000000600000001  0.4517897244450922  1.0000
  Pt  Pt2       1.0  5.999999998819511e-08  6.000000004577233e-08  0.47847607912385937  1.0000
  Pt  Pt3       1.0  0.4999999699999999  0.49999999000000006  0.504867864505977  1.0000
  Pt  Pt4       1.0  0.9999999299999999  0.99999993  0.53212861410199  1.0000
  Rh  Rh1       1.0  0.5000000600000001  6.000000004577233e-08  0.4384465503080709  1.0000
  Rh  Rh2       1.0  5.999999999750621e-08  0.5000000600000001  0.4651329017844758  1.0000
  Rh  Rh3       1.0  5.999999999750621e-08  0.5000000600000001  0.4384465503080709  1.0000
  Rh  Rh4       1.0  0.5000000600000001  6.000000004577233e-08  0.4651329017844758  1.0000
  Rh  Rh5       1.0  5.999999998819511e-08  6.000000004577233e-08  0.4517897244450922  1.0000
  Rh  Rh6       1.0  0.50000006  0.5000000600000001  0.47847607912385937  1.0000
  Rh  Rh7       1.0  0.5000000600000001  6.000000004577233e-08  0.49181925326088066  1.0000
  Rh  Rh8       1.0  0.99999989  0.4999999  0.518633824121626  1.0000
  Rh  Rh9       1.0  5.999999999750621e-08  0.5000000600000001  0.49181925326088066  1.0000
  Rh  Rh10      1.0  0.4999999  0.9999998800000002  0.5186334814688592  1.0000
  Rh  Rh11      1.0  0.9999999399999998  0.9999999399999999  0.5056386506963176  1.0000
  Rh  Rh12      1.0  0.49999988999999995  0.4999999  0.5301733861776131  1.0000
