data_image0
_chemical_formula_structural       COSb8Pd16Sb8Pd16
_chemical_formula_sum              "C1 O1 Sb16 Pd32"
_cell_length_a       6.97567394
_cell_length_b       7.08458233
_cell_length_c       123.65356947000001
_cell_angle_alpha    90.0
_cell_angle_beta     90.0
_cell_angle_gamma    90.0

_space_group_name_H-M_alt    "P 1"
_space_group_IT_number       1

loop_
  _space_group_symop_operation_xyz
  'x, y, z'

loop_
  _atom_site_type_symbol
  _atom_site_label
  _atom_site_symmetry_multiplicity
  _atom_site_fract_x
  _atom_site_fract_y
  _atom_site_fract_z
  _atom_site_occupancy
  C   C1        1.0  0.37649039500000003  0.638120305  0.5720084097718134  1.0000
  O   O1        1.0  0.37649078500000005  0.7357588549999999  0.5795969272766679  1.0000
  Sb  Sb1       1.0  0.37649051499999997  0.21769146499999997  0.543648676263186  1.0000
  Sb  Sb2       1.0  0.12649066500000003  0.718850635  0.4547329505608301  1.0000
  Sb  Sb3       1.0  0.12649066500000003  0.749952515  0.42040307272333205  1.0000
  Sb  Sb4       1.0  0.376490665  0.249952515  0.43321363056679785  1.0000
  Sb  Sb5       1.0  0.12649066500000003  0.218850635  0.4712008102314997  1.0000
  Sb  Sb6       1.0  0.376490665  0.718850635  0.5270499993849839  1.0000
  Sb  Sb7       1.0  0.376490665  0.749952515  0.4927201258865089  1.0000
  Sb  Sb8       1.0  0.12649066500000003  0.249952515  0.5055306837299746  1.0000
  Pd  Pd1       1.0  0.376490665  0.02472219499999999  0.4574107786688528  1.0000
  Pd  Pd2       1.0  0.12920713500000003  0.5296574449999999  0.5404196967625728  1.0000
  Pd  Pd3       1.0  0.12350909500000003  0.12247591499999999  0.5584486067750124  1.0000
  Pd  Pd4       1.0  0.376490665  0.6279064549999999  0.43766098172059775  1.0000
  Pd  Pd5       1.0  0.12649066500000003  0.9752778049999999  0.4384093156790815  1.0000
  Pd  Pd6       1.0  0.37648932500000004  0.477391945  0.559569463222982  1.0000
  Pd  Pd7       1.0  0.376493575  0.844395905  0.5474395375605237  1.0000
  Pd  Pd8       1.0  0.12649066500000003  0.34791000499999997  0.4503900570492121  1.0000
  Pd  Pd9       1.0  0.12649066500000003  0.02472219499999999  0.5297278318320296  1.0000
  Pd  Pd10      1.0  0.376490665  0.524722195  0.46852297778445384  1.0000
  Pd  Pd11      1.0  0.376490665  0.127906455  0.48827277473270897  1.0000
  Pd  Pd12      1.0  0.12649066500000003  0.6279064549999999  0.5099780348837745  1.0000
  Pd  Pd13      1.0  0.376490665  0.9752778049999999  0.5107263688422583  1.0000
  Pd  Pd14      1.0  0.12649066500000003  0.47527780499999994  0.48752444077422524  1.0000
  Pd  Pd15      1.0  0.12649066500000003  0.8479100049999999  0.47554369940409463  1.0000
  Pd  Pd16      1.0  0.376490665  0.34791000499999997  0.5227071102123888  1.0000
  Sb  Sb9       1.0  0.8764909049999999  0.216455725  0.5434726204007815  1.0000
  Sb  Sb10      1.0  0.626490665  0.718850635  0.4547329505608301  1.0000
  Sb  Sb11      1.0  0.626490665  0.749952515  0.42040307272333205  1.0000
  Sb  Sb12      1.0  0.876490665  0.249952515  0.43321363056679785  1.0000
  Sb  Sb13      1.0  0.626490665  0.218850635  0.4712008102314997  1.0000
  Sb  Sb14      1.0  0.876490665  0.718850635  0.5270499993849839  1.0000
  Sb  Sb15      1.0  0.876490665  0.749952515  0.4927201258865089  1.0000
  Sb  Sb16      1.0  0.626490665  0.249952515  0.5055306837299746  1.0000
  Pd  Pd17      1.0  0.876490665  0.02472219499999999  0.4574107786688528  1.0000
  Pd  Pd18      1.0  0.6237744749999999  0.5296550250000001  0.5404197271357345  1.0000
  Pd  Pd19      1.0  0.6294724250000001  0.12247839499999999  0.5584486284701279  1.0000
  Pd  Pd20      1.0  0.876490665  0.6279064549999999  0.43766098172059775  1.0000
  Pd  Pd21      1.0  0.626490665  0.9752778049999999  0.4384093156790815  1.0000
  Pd  Pd22      1.0  0.8764901549999999  0.47255291499999996  0.55818478115328  1.0000
  Pd  Pd23      1.0  0.8764878450000001  0.841023575  0.5473497631725224  1.0000
  Pd  Pd24      1.0  0.626490665  0.34791000499999997  0.4503900570492121  1.0000
  Pd  Pd25      1.0  0.626490665  0.02472219499999999  0.5297278318320296  1.0000
  Pd  Pd26      1.0  0.876490665  0.524722195  0.46852297778445384  1.0000
  Pd  Pd27      1.0  0.876490665  0.127906455  0.48827277473270897  1.0000
  Pd  Pd28      1.0  0.626490665  0.6279064549999999  0.5099780348837745  1.0000
  Pd  Pd29      1.0  0.876490665  0.9752778049999999  0.5107263688422583  1.0000
  Pd  Pd30      1.0  0.626490665  0.47527780499999994  0.48752444077422524  1.0000
  Pd  Pd31      1.0  0.626490665  0.8479100049999999  0.47554369940409463  1.0000
  Pd  Pd32      1.0  0.876490665  0.34791000499999997  0.5227071102123888  1.0000
