data_image0
_chemical_formula_structural       COPt30Si6Sn6
_chemical_formula_sum              "C1 O1 Pt30 Si6 Sn6"
_cell_length_a       8.195989137438355
_cell_length_b       9.012828208933215
_cell_length_c       101.51521002
_cell_angle_alpha    86.72108166241918
_cell_angle_beta     89.5143455376739
_cell_angle_gamma    63.9047124389145

_space_group_name_H-M_alt    "P 1"
_space_group_IT_number       1

loop_
  _space_group_symop_operation_xyz
  'x, y, z'

loop_
  _atom_site_type_symbol
  _atom_site_label
  _atom_site_symmetry_multiplicity
  _atom_site_fract_x
  _atom_site_fract_y
  _atom_site_fract_z
  _atom_site_occupancy
  C   C1        1.0  0.8343584249999999  0.13641494499999998  0.546019869536213  1.0000
  O   O1        1.0  0.8610070649999999  0.12597897500000002  0.5578320711642982  1.0000
  Pt  Pt1       1.0  0.9184538649999999  0.35494436499999993  0.4523785687718611  1.0000
  Pt  Pt2       1.0  0.8628983149999999  0.9660554849999999  0.4696256869690423  1.0000
  Pt  Pt3       1.0  0.807342755  0.5771665949999999  0.48687280827070506  1.0000
  Pt  Pt4       1.0  0.3037683549999999  0.196285465  0.45941504703288305  1.0000
  Pt  Pt5       1.0  0.2482127949999999  0.807396575  0.4766621683345458  1.0000
  Pt  Pt6       1.0  0.35932390499999983  0.5851743549999999  0.44216792883570183  1.0000
  Pt  Pt7       1.0  0.890676095  0.6604999249999999  0.46100212631821086  1.0000
  Pt  Pt8       1.0  0.8351205349999998  0.27161103499999995  0.47824924761987364  1.0000
  Pt  Pt9       1.0  0.9462316449999998  0.04938881499999999  0.4437550081210297  1.0000
  Pt  Pt10      1.0  0.2759905749999998  0.5018410249999999  0.46803860768371447  1.0000
  Pt  Pt11      1.0  0.2204350149999998  0.11295213499999998  0.4852857289853773  1.0000
  Pt  Pt12      1.0  0.3315461249999998  0.8907299049999999  0.4507914894865333  1.0000
  Pt  Pt13      1.0  0.49999999499999986  0.497837135  0.4903910489534568  1.0000
  Pt  Pt14      1.0  0.6111111149999998  0.27561491499999996  0.45589680635013125  1.0000
  Pt  Pt15      1.0  0.5555555550000001  0.886726025  0.4731439276517941  1.0000
  Pt  Pt16      1.0  0.751787205  0.188277705  0.5041199264678862  1.0000
  Pt  Pt17      1.0  0.6888615049999998  0.802557365  0.5221743651014913  1.0000
  Pt  Pt18      1.0  0.6779089849999999  0.390345935  0.5372453969310073  1.0000
  Pt  Pt19      1.0  0.14095214499999986  0.029940634999999983  0.5107108433227308  1.0000
  Pt  Pt20      1.0  0.07624575499999986  0.6395614749999999  0.5289580826807492  1.0000
  Pt  Pt21      1.0  0.1926572449999999  0.41850768499999996  0.493909286531727  1.0000
  Pt  Pt22      1.0  0.7218754649999998  0.49768848499999996  0.5122732171435977  1.0000
  Pt  Pt23      1.0  0.688279275  0.08522371499999998  0.5321019228842364  1.0000
  Pt  Pt24      1.0  0.7795649850000002  0.8827221449999999  0.4954963658170548  1.0000
  Pt  Pt25      1.0  0.10696566499999982  0.33428948499999994  0.5198901775805221  1.0000
  Pt  Pt26      1.0  0.06353374499999984  0.949546025  0.5355078899904328  1.0000
  Pt  Pt27      1.0  0.16487946499999984  0.724063245  0.5025328471825584  1.0000
  Pt  Pt28      1.0  0.35557012499999985  0.3293829449999999  0.5390739210627185  1.0000
  Pt  Pt29      1.0  0.4444444449999998  0.10894825499999998  0.507638167150638  1.0000
  Pt  Pt30      1.0  0.39496823499999983  0.7113049749999999  0.5262501675725965  1.0000
  Si  Si1       1.0  0.13888888499999982  0.470059365  0.4472732488037815  1.0000
  Si  Si2       1.0  0.08333333499999984  0.08117047499999998  0.46452036700096266  1.0000
  Si  Si3       1.0  0.027777774999999824  0.6922815849999999  0.4817674883026254  1.0000
  Si  Si4       1.0  0.9722222250000001  0.303392695  0.4990146064998066  1.0000
  Si  Si5       1.0  0.9151060950000001  0.9113106349999999  0.5161097448009481  1.0000
  Si  Si6       1.0  0.861265755  0.5300653049999999  0.5322068885111386  1.0000
  Sn  Sn1       1.0  0.583333335  0.581170475  0.46452036700096266  1.0000
  Sn  Sn2       1.0  0.5277777749999999  0.192281585  0.48176748830262545  1.0000
  Sn  Sn3       1.0  0.6388888849999999  0.970059365  0.44727324880378144  1.0000
  Sn  Sn4       1.0  0.4145613349999998  0.423487185  0.515628394931048  1.0000
  Sn  Sn5       1.0  0.36264303499999984  0.03093475499999999  0.5339300837916021  1.0000
  Sn  Sn6       1.0  0.4722222249999999  0.803392695  0.4990146064998066  1.0000
