data_image0
_chemical_formula_structural       COGa6Pt3Ga6Pt3Ga6Pt3Ga6Pt3
_chemical_formula_sum              "C1 O1 Ga24 Pt12"
_cell_length_a       8.54401798
_cell_length_b       8.544017984072482
_cell_length_c       38.607273379999995
_cell_angle_alpha    90.0
_cell_angle_beta     90.0
_cell_angle_gamma    120.00000006166631

_space_group_name_H-M_alt    "P 1"
_space_group_IT_number       1

loop_
  _space_group_symop_operation_xyz
  'x, y, z'

loop_
  _atom_site_type_symbol
  _atom_site_label
  _atom_site_symmetry_multiplicity
  _atom_site_fract_x
  _atom_site_fract_y
  _atom_site_fract_z
  _atom_site_occupancy
  C   C1        1.0  0.33543557999999996  0.22751502500000004  0.625049760562173  1.0000
  O   O1        1.0  0.33548964  0.22746965500000005  0.6559578996964819  1.0000
  Ga  Ga1       1.0  0.002621019999999972  0.060337095000000035  0.41180292700584453  1.0000
  Ga  Ga2       1.0  0.3359543499999999  0.227003765  0.5021506878109809  1.0000
  Ga  Ga3       1.0  0.19368924999999995  0.369280815  0.593347201690459  1.0000
  Ga  Ga4       1.0  0.16928768999999994  0.393670425  0.4569768033427635  1.0000
  Ga  Ga5       1.0  0.9973789800000001  0.05761116500000004  0.5493302139865769  1.0000
  Ga  Ga6       1.0  0.3359543499999999  0.227003765  0.3666290425376271  1.0000
  Pt  Pt1       1.0  0.16826139  0.39469824500000006  0.5244102477027175  1.0000
  Pt  Pt2       1.0  0.002621019999999972  0.060337095000000035  0.34404210030351834  1.0000
  Pt  Pt3       1.0  0.3359543499999999  0.227003765  0.4343898611086548  1.0000
  Ga  Ga7       1.0  0.0026210199999999787  0.5603370950000001  0.41180292700584453  1.0000
  Ga  Ga8       1.0  0.33595435  0.7270037650000001  0.5021506878109809  1.0000
  Ga  Ga9       1.0  0.19385950999999998  0.942388835  0.5934671058189328  1.0000
  Ga  Ga10      1.0  0.16928769000000002  0.893670425  0.4569768033427635  1.0000
  Ga  Ga11      1.0  0.002645469999999996  0.560313415  0.5458057514162344  1.0000
  Ga  Ga12      1.0  0.33595435  0.7270037650000001  0.3666290425376271  1.0000
  Pt  Pt4       1.0  0.16810882000000002  0.8914942050000001  0.5244376176536496  1.0000
  Pt  Pt5       1.0  0.0026210199999999787  0.5603370950000001  0.34404210030351834  1.0000
  Pt  Pt6       1.0  0.33595435  0.7270037650000001  0.4343898611086548  1.0000
  Ga  Ga13      1.0  0.50262102  0.060337095000000035  0.41180292700584453  1.0000
  Ga  Ga14      1.0  0.83595435  0.227003765  0.5021506878109809  1.0000
  Ga  Ga15      1.0  0.62054458  0.36906225500000006  0.593473919847121  1.0000
  Ga  Ga16      1.0  0.6692876900000001  0.393670425  0.4569768033427635  1.0000
  Ga  Ga17      1.0  0.50507119  0.05789146500000004  0.5492665703127965  1.0000
  Ga  Ga18      1.0  0.83595435  0.227003765  0.3666290425376271  1.0000
  Pt  Pt7       1.0  0.6714665799999999  0.394851985  0.5244369264932726  1.0000
  Pt  Pt8       1.0  0.50262102  0.060337095000000035  0.34404210030351834  1.0000
  Pt  Pt9       1.0  0.83595435  0.227003765  0.4343898611086548  1.0000
  Ga  Ga19      1.0  0.50262102  0.5603370950000001  0.41180292700584453  1.0000
  Ga  Ga20      1.0  0.8359543500000001  0.7270037650000001  0.5021506878109809  1.0000
  Ga  Ga21      1.0  0.66881298  0.8941311350000001  0.5945441776253659  1.0000
  Ga  Ga22      1.0  0.66928769  0.893670425  0.4569768033427635  1.0000
  Ga  Ga23      1.0  0.50535053  0.5655790450000001  0.5493299131285304  1.0000
  Ga  Ga24      1.0  0.8359543500000001  0.7270037650000001  0.3666290425376271  1.0000
  Pt  Pt10      1.0  0.66939414  0.893566995  0.523671210239762  1.0000
  Pt  Pt11      1.0  0.50262102  0.5603370950000001  0.34404210030351834  1.0000
  Pt  Pt12      1.0  0.8359543500000001  0.7270037650000001  0.4343898611086548  1.0000
