data_image0
_chemical_formula_structural       COV30Rh10
_chemical_formula_sum              "C1 O1 V30 Rh10"
_cell_length_a       6.76240032
_cell_length_b       10.692293727951022
_cell_length_c       103.12886042
_cell_angle_alpha    75.0367825634064
_cell_angle_beta     90.0
_cell_angle_gamma    71.565051172479

_space_group_name_H-M_alt    "P 1"
_space_group_IT_number       1

loop_
  _space_group_symop_operation_xyz
  'x, y, z'

loop_
  _atom_site_type_symbol
  _atom_site_label
  _atom_site_symmetry_multiplicity
  _atom_site_fract_x
  _atom_site_fract_y
  _atom_site_fract_z
  _atom_site_occupancy
  C   C1        1.0  0.83348316  0.15925904999999999  0.5391108877508538  1.0000
  O   O1        1.0  0.75649738  0.10548068999999997  0.548621915078569  1.0000
  V   V1        1.0  0.75539675  0.27499999999999997  0.48751730707584584  1.0000
  V   V2        1.0  0.56121992  0.6729007199999999  0.503468645754756  1.0000
  V   V3        1.0  0.95539675  0.875  0.4714554305627727  1.0000
  V   V4        1.0  0.35383994  0.07731783999999998  0.5187144311717012  1.0000
  V   V5        1.0  0.15539675  0.475  0.45539355404969944  1.0000
  V   V6        1.0  0.061122409999999995  0.17399383999999998  0.5039096149372966  1.0000
  V   V7        1.0  0.8600900300000001  0.5688436499999999  0.518989622514375  1.0000
  V   V8        1.0  0.25539675000000006  0.7749999999999999  0.48751730707584584  1.0000
  V   V9        1.0  0.65539675  0.975  0.45539355404969944  1.0000
  V   V10       1.0  0.45539675  0.375  0.4714554305627727  1.0000
  V   V11       1.0  0.60539675  0.575  0.4794863688193092  1.0000
  V   V12       1.0  0.4053967499999999  0.975  0.49554824533238245  1.0000
  V   V13       1.0  0.8053967500000001  0.175  0.4634244923062361  1.0000
  V   V14       1.0  0.20430907  0.37577144999999995  0.5114937760367456  1.0000
  V   V15       1.0  0.9991758500000001  0.7925478399999999  0.5255012550220387  1.0000
  V   V16       1.0  0.40539675000000003  0.475  0.49554824533238245  1.0000
  V   V17       1.0  0.19892275000000006  0.8740563599999999  0.5114048799749963  1.0000
  V   V18       1.0  0.6053967499999998  0.075  0.4794863688193092  1.0000
  V   V19       1.0  0.9532915700000001  0.28888158999999997  0.52662920672492  1.0000
  V   V20       1.0  0.8053967500000001  0.6749999999999999  0.46342449230623606  1.0000
  V   V21       1.0  0.055396750000000015  0.425  0.4835018379475776  1.0000
  V   V22       1.0  0.8541818300000001  0.8279257299999999  0.49940989308166034  1.0000
  V   V23       1.0  0.25539675  0.024999999999999994  0.46743996143450434  1.0000
  V   V24       1.0  0.6450859699999999  0.23553427  0.5153347650004523  1.0000
  V   V25       1.0  0.45539674999999996  0.625  0.45137808492143117  1.0000
  V   V26       1.0  0.95539675  0.625  0.4915327762041141  1.0000
  V   V27       1.0  0.75143809  0.029447809999999994  0.507320527883114  1.0000
  V   V28       1.0  0.15539675  0.22499999999999998  0.47547089969104095  1.0000
  V   V29       1.0  0.5483736400000001  0.44891178  0.5217246099356433  1.0000
  V   V30       1.0  0.35539675  0.825  0.45940902317796783  1.0000
  Rh  Rh1       1.0  0.8055610599999999  0.42489572  0.5028409958062547  1.0000
  Rh  Rh2       1.0  0.61855203  0.820502  0.5190586821586305  1.0000
  Rh  Rh3       1.0  0.005396750000000002  0.024999999999999994  0.48751730707584584  1.0000
  Rh  Rh4       1.0  0.40539675000000003  0.22499999999999998  0.45539355404969944  1.0000
  Rh  Rh5       1.0  0.20539674999999993  0.625  0.47145543056277267  1.0000
  Rh  Rh6       1.0  0.80539675  0.425  0.4634244923062361  1.0000
  Rh  Rh7       1.0  0.6053967499999998  0.825  0.47948636881930934  1.0000
  Rh  Rh8       1.0  0.0008241500000000029  0.02993171999999999  0.5264609360818183  1.0000
  Rh  Rh9       1.0  0.40539675000000003  0.22499999999999998  0.49554824533238245  1.0000
  Rh  Rh10      1.0  0.20093466000000004  0.62516511  0.5123044767671158  1.0000
