data_image0
_chemical_formula_structural       COAl6Pd4Al6Pd4
_chemical_formula_sum              "C1 O1 Al12 Pd8"
_cell_length_a       7.39118009
_cell_length_b       6.767815778226534
_cell_length_c       104.13839852000001
_cell_angle_alpha    108.37676299436193
_cell_angle_beta     90.0
_cell_angle_gamma    56.90330880082422

_space_group_name_H-M_alt    "P 1"
_space_group_IT_number       1

loop_
  _space_group_symop_operation_xyz
  'x, y, z'

loop_
  _atom_site_type_symbol
  _atom_site_label
  _atom_site_symmetry_multiplicity
  _atom_site_fract_x
  _atom_site_fract_y
  _atom_site_fract_z
  _atom_site_occupancy
  C   C1        1.0  0.83330118  0.25734271500000006  0.5406136749001468  1.0000
  O   O1        1.0  0.77532653  0.338307795  0.5528017131481406  1.0000
  Al  Al1       1.0  0.042348249999999914  0.07900636500000005  0.4809026783190327  1.0000
  Al  Al2       1.0  0.54234825  0.07900636500000005  0.46041407912965465  1.0000
  Al  Al3       1.0  0.8864991699999999  0.724037865  0.47362987140744994  1.0000
  Al  Al4       1.0  0.38649916999999995  0.724037865  0.4531412722180719  1.0000
  Al  Al5       1.0  0.69819733  0.43397486500000004  0.4676868860412374  1.0000
  Al  Al6       1.0  0.1981973299999999  0.43397486500000004  0.44719828685185936  1.0000
  Pd  Pd1       1.0  0.13000854999999992  0.237019095  0.463651540055646  1.0000
  Pd  Pd2       1.0  0.63000855  0.237019095  0.484140139245024  1.0000
  Pd  Pd3       1.0  0.45468795  0.920993635  0.4776652173930413  1.0000
  Pd  Pd4       1.0  0.9546879499999997  0.920993635  0.45717661820366334  1.0000
  Al  Al7       1.0  0.053033769999999904  0.08912413500000005  0.5219380118686727  1.0000
  Al  Al8       1.0  0.5275722399999999  0.09770506500000005  0.5019273772775362  1.0000
  Al  Al9       1.0  0.8696182799999999  0.7161999450000001  0.5122334180365665  1.0000
  Al  Al10      1.0  0.38649916999999995  0.724037865  0.494118470596828  1.0000
  Al  Al11      1.0  0.6919598499999999  0.43263524500000006  0.509315969360858  1.0000
  Al  Al12      1.0  0.1981973299999999  0.43397486500000004  0.48817548523061544  1.0000
  Pd  Pd5       1.0  0.12233476999999993  0.24428518500000002  0.5044620300786938  1.0000
  Pd  Pd6       1.0  0.6637013199999999  0.20092078500000002  0.5248391844011852  1.0000
  Pd  Pd7       1.0  0.4563597199999999  0.910242285  0.517366815255322  1.0000
  Pd  Pd8       1.0  0.9576517499999999  0.918957005  0.497917882986858  1.0000
