data_image0
_chemical_formula_structural       COIr18Rh6
_chemical_formula_sum              "C1 O1 Ir18 Rh6"
_cell_length_a       7.249235096004817
_cell_length_b       4.7450008179292205
_cell_length_c       100.51358187
_cell_angle_alpha    90.00969499971777
_cell_angle_beta     93.8866808328692
_cell_angle_gamma    89.97959576183014

_space_group_name_H-M_alt    "P 1"
_space_group_IT_number       1

loop_
  _space_group_symop_operation_xyz
  'x, y, z'

loop_
  _atom_site_type_symbol
  _atom_site_label
  _atom_site_symmetry_multiplicity
  _atom_site_fract_x
  _atom_site_fract_y
  _atom_site_fract_z
  _atom_site_occupancy
  C   C1        1.0  0.6766690949999998  0.932832805  0.5514992271281042  1.0000
  O   O1        1.0  0.6828382849999998  0.941596745  0.5632014320830746  1.0000
  Ir  Ir1       1.0  0.4305555549999999  0.23084357499999997  0.44944759825333963  1.0000
  Ir  Ir2       1.0  0.875000005  0.5641769050000001  0.466312968999458  1.0000
  Ir  Ir3       1.0  0.31944444499999997  0.897510245  0.48317834278134353  1.0000
  Ir  Ir4       1.0  0.708333335  0.5641769050000001  0.4410149113623969  1.0000
  Ir  Ir5       1.0  0.15277777499999995  0.897510245  0.45788028210851534  1.0000
  Ir  Ir6       1.0  0.5972222249999999  0.23084357499999997  0.47474565589040074  1.0000
  Ir  Ir7       1.0  0.7916666649999998  0.06417690499999998  0.453663938663044  1.0000
  Ir  Ir8       1.0  0.23611111499999993  0.397510245  0.4705293124449294  1.0000
  Ir  Ir9       1.0  0.34722222499999994  0.730843575  0.43679856791692545  1.0000
  Ir  Ir10      1.0  0.7638888949999999  0.230843575  0.5000437135274619  1.0000
  Ir  Ir11      1.0  0.20504016499999994  0.561203985  0.517134344259325  1.0000
  Ir  Ir12      1.0  0.6544787249999999  0.9175109350000001  0.532958908348041  1.0000
  Ir  Ir13      1.0  0.04166666499999997  0.5641769050000001  0.49161102663651923  1.0000
  Ir  Ir14      1.0  0.4855627249999999  0.8955892549999999  0.5084666981069517  1.0000
  Ir  Ir15      1.0  0.9322586549999999  0.231316915  0.5243143340251556  1.0000
  Ir  Ir16      1.0  0.12531892499999994  0.05840325499999998  0.5042711830591271  1.0000
  Ir  Ir17      1.0  0.5681052149999999  0.40960479499999997  0.5211247021707297  1.0000
  Ir  Ir18      1.0  0.6805555549999999  0.730843575  0.48739468622681487  1.0000
  Rh  Rh1       1.0  0.958333335  0.06417690499999998  0.47896199933587214  1.0000
  Rh  Rh2       1.0  0.06944444499999997  0.397510245  0.4452312548078683  1.0000
  Rh  Rh3       1.0  0.5138888949999999  0.730843575  0.4620966255539867  1.0000
  Rh  Rh4       1.0  0.2941703949999999  0.07283294499999998  0.5284005644953834  1.0000
  Rh  Rh5       1.0  0.40277777499999995  0.397510245  0.49582737008199057  1.0000
  Rh  Rh6       1.0  0.8503316949999998  0.729090065  0.513184598839353  1.0000
