data_image0
_chemical_formula_structural       COSn6Rh18Sn6Rh18
_chemical_formula_sum              "C1 O1 Sn12 Rh36"
_cell_length_a       7.68109914
_cell_length_b       9.054341366240257
_cell_length_c       104.35880974
_cell_angle_alpha    71.56505119708886
_cell_angle_beta     90.0
_cell_angle_gamma    90.0

_space_group_name_H-M_alt    "P 1"
_space_group_IT_number       1

loop_
  _space_group_symop_operation_xyz
  'x, y, z'

loop_
  _atom_site_type_symbol
  _atom_site_label
  _atom_site_symmetry_multiplicity
  _atom_site_fract_x
  _atom_site_fract_y
  _atom_site_fract_z
  _atom_site_occupancy
  C   C1        1.0  0.1232553  0.29495013999999997  0.5506179093176417  1.0000
  O   O1        1.0  0.12323033  0.26829746  0.5624516450463686  1.0000
  Sn  Sn1       1.0  0.12299791  0.67497173  0.4649847964116379  1.0000
  Sn  Sn2       1.0  0.12299791  0.34163838999999996  0.4466938354396336  1.0000
  Sn  Sn3       1.0  0.12299791  0.00830505999999997  0.4832757540912694  1.0000
  Sn  Sn4       1.0  0.62299791  0.67497173  0.43754835495363154  1.0000
  Sn  Sn5       1.0  0.62299791  0.34163838999999996  0.4741302736052672  1.0000
  Sn  Sn6       1.0  0.62299791  0.00830505999999997  0.4558393159256357  1.0000
  Rh  Rh1       1.0  0.8729979099999999  0.84163839  0.44669383543963365  1.0000
  Rh  Rh2       1.0  0.8729979099999999  0.50830506  0.4832757540912694  1.0000
  Rh  Rh3       1.0  0.8729979099999999  0.17497172999999996  0.4649847964116378  1.0000
  Rh  Rh4       1.0  0.8729979099999999  0.50830506  0.4558393159256357  1.0000
  Rh  Rh5       1.0  0.8729979099999999  0.17497172999999996  0.43754835495363154  1.0000
  Rh  Rh6       1.0  0.8729979099999999  0.84163839  0.4741302736052673  1.0000
  Rh  Rh7       1.0  0.62299791  0.67497173  0.4649847964116379  1.0000
  Rh  Rh8       1.0  0.62299791  0.34163838999999996  0.4466938354396336  1.0000
  Rh  Rh9       1.0  0.62299791  0.00830505999999997  0.4832757540912694  1.0000
  Rh  Rh10      1.0  0.37299791  0.50830506  0.4558393159256357  1.0000
  Rh  Rh11      1.0  0.37299791  0.17497172999999996  0.43754835495363154  1.0000
  Rh  Rh12      1.0  0.37299791  0.84163839  0.4741302736052673  1.0000
  Rh  Rh13      1.0  0.37299791  0.84163839  0.44669383543963365  1.0000
  Rh  Rh14      1.0  0.37299791  0.50830506  0.4832757540912694  1.0000
  Rh  Rh15      1.0  0.37299791  0.17497172999999996  0.4649847964116378  1.0000
  Rh  Rh16      1.0  0.12299791  0.67497173  0.43754835495363154  1.0000
  Rh  Rh17      1.0  0.12299791  0.34163838999999996  0.4741302736052672  1.0000
  Rh  Rh18      1.0  0.12299791  0.00830505999999997  0.4558393159256357  1.0000
  Sn  Sn7       1.0  0.12298462  0.67493189  0.5200089506842563  1.0000
  Sn  Sn8       1.0  0.12299791  0.34163838999999996  0.5015667150632735  1.0000
  Sn  Sn9       1.0  0.12298644  0.99697826  0.5375880809217827  1.0000
  Sn  Sn10      1.0  0.62299791  0.67497173  0.49242123457727155  1.0000
  Sn  Sn11      1.0  0.62299362  0.32938303999999996  0.5302884988278772  1.0000
  Sn  Sn12      1.0  0.62294487  0.00913860999999997  0.5103121755571927  1.0000
  Rh  Rh19      1.0  0.8729979099999999  0.84163839  0.5015667150632737  1.0000
  Rh  Rh20      1.0  0.8712734999999999  0.51634561  0.535569066280139  1.0000
  Rh  Rh21      1.0  0.87712017  0.17481154000000002  0.51940603493145  1.0000
  Rh  Rh22      1.0  0.8690642099999999  0.50853677  0.5101036037459146  1.0000
  Rh  Rh23      1.0  0.8729979099999999  0.17497172999999996  0.4924212345772715  1.0000
  Rh  Rh24      1.0  0.86437833  0.84410896  0.5281568060225527  1.0000
  Rh  Rh25      1.0  0.62297958  0.67317094  0.5198887955421475  1.0000
  Rh  Rh26      1.0  0.62299791  0.34163838999999996  0.5015667150632735  1.0000
  Rh  Rh27      1.0  0.6229856899999999  0.016132209999999973  0.5358571884008739  1.0000
  Rh  Rh28      1.0  0.3769709  0.50855892  0.510100047983386  1.0000
  Rh  Rh29      1.0  0.37299791  0.17497172999999996  0.4924212345772715  1.0000
  Rh  Rh30      1.0  0.3815906  0.8440911  0.5281592028698867  1.0000
  Rh  Rh31      1.0  0.37299791  0.84163839  0.5015667150632737  1.0000
  Rh  Rh32      1.0  0.37461884  0.51628102  0.5355679666276533  1.0000
  Rh  Rh33      1.0  0.36883404000000003  0.17484388  0.5194057122789242  1.0000
  Rh  Rh34      1.0  0.12299791  0.67497173  0.49242123457727155  1.0000
  Rh  Rh35      1.0  0.12287983000000001  0.31471460999999995  0.5326185636738194  1.0000
  Rh  Rh36      1.0  0.12300042  0.003021740000000106  0.5109435867958176  1.0000
