data_image0
_chemical_formula_structural       COGa9Ni15
_chemical_formula_sum              "C1 O1 Ga9 Ni15"
_cell_length_a       6.360886989387931
_cell_length_b       6.360886992760239
_cell_length_c       102.17907804000001
_cell_angle_alpha    89.63083510769717
_cell_angle_beta     89.63083510750144
_cell_angle_gamma    65.05154921302467

_space_group_name_H-M_alt    "P 1"
_space_group_IT_number       1

loop_
  _space_group_symop_operation_xyz
  'x, y, z'

loop_
  _atom_site_type_symbol
  _atom_site_label
  _atom_site_symmetry_multiplicity
  _atom_site_fract_x
  _atom_site_fract_y
  _atom_site_fract_z
  _atom_site_occupancy
  C   C1        1.0  0.9207773399999999  0.33948759999999983  0.5320099401430503  1.0000
  O   O1        1.0  0.8722963499999999  0.2909535399999997  0.5427623904510646  1.0000
  Ga  Ga1       1.0  0.12921379  0.5485353199999999  0.50903044469236  1.0000
  Ga  Ga2       1.0  0.62322952  0.04211019999999987  0.45723760954893544  1.0000
  Ga  Ga3       1.0  0.3732295199999999  0.7921101999999997  0.4834816291744923  1.0000
  Ga  Ga4       1.0  0.15462767  0.5735083499999998  0.4605336643400023  1.0000
  Ga  Ga5       1.0  0.9046276699999999  0.32350834999999983  0.4867776839655593  1.0000
  Ga  Ga6       1.0  0.64685074  0.06507268999999986  0.5144979486497977  1.0000
  Ga  Ga7       1.0  0.6389286  0.05780926999999989  0.485129658144667  1.0000
  Ga  Ga8       1.0  0.4003656199999999  0.8191972199999996  0.5132632472588468  1.0000
  Ga  Ga9       1.0  0.8889286  0.30780926999999986  0.4588856353698276  1.0000
  Ni  Ni1       1.0  0.29256163  0.15108414999999986  0.4980257872461342  1.0000
  Ni  Ni2       1.0  0.03879152  0.8914236699999998  0.5227119985460333  1.0000
  Ni  Ni3       1.0  0.5390091300000001  0.4077287399999998  0.4720076467572474  1.0000
  Ni  Ni4       1.0  0.73199705  0.7113014499999998  0.4980164937135327  1.0000
  Ni  Ni5       1.0  0.47273820999999994  0.4572786399999998  0.522695852174753  1.0000
  Ni  Ni6       1.0  0.98884807  0.9578897999999999  0.4720076467572473  1.0000
  Ni  Ni7       1.0  0.51759157  0.4298455599999998  0.4978008245506662  1.0000
  Ni  Ni8       1.0  0.22531449  0.2202690699999999  0.5235561542672281  1.0000
  Ni  Ni9       1.0  0.7639286  0.6828092699999997  0.4720076467572473  1.0000
  Ni  Ni10      1.0  0.13892859999999999  0.5578092699999999  0.485129658144667  1.0000
  Ni  Ni11      1.0  0.87595195  0.2943568099999998  0.511920437298887  1.0000
  Ni  Ni12      1.0  0.3889286  0.8078092699999998  0.45888563536982757  1.0000
  Ni  Ni13      1.0  0.011151930000000008  0.9364816699999997  0.49780173154402074  1.0000
  Ni  Ni14      1.0  0.8011483599999999  0.6439192199999999  0.5235622575766763  1.0000
  Ni  Ni15      1.0  0.2639286  0.18280926999999986  0.4720076467572474  1.0000
