data_image0
_chemical_formula_structural       COSi2Ni6Si2Ni6Si2Ni6Si2Ni6
_chemical_formula_sum              "C1 O1 Si8 Ni24"
_cell_length_a       4.99736688
_cell_length_b       7.06734402
_cell_length_c       104.98156817
_cell_angle_alpha    90.0
_cell_angle_beta     90.0
_cell_angle_gamma    90.0

_space_group_name_H-M_alt    "P 1"
_space_group_IT_number       1

loop_
  _space_group_symop_operation_xyz
  'x, y, z'

loop_
  _atom_site_type_symbol
  _atom_site_label
  _atom_site_symmetry_multiplicity
  _atom_site_fract_x
  _atom_site_fract_y
  _atom_site_fract_z
  _atom_site_occupancy
  C   C1        1.0  0.052997845  0.09297497999999998  0.5428978963648202  1.0000
  O   O1        1.0  0.142187035  0.09291891  0.5534397333604943  1.0000
  Si  Si1       1.0  0.6701259350000001  0.09300175999999998  0.5171045633900966  1.0000
  Si  Si2       1.0  0.167271825  0.09295475999999998  0.49416259549026664  1.0000
  Ni  Ni1       1.0  0.452737105  0.34351579000000004  0.528485262387511  1.0000
  Ni  Ni2       1.0  0.9092836249999998  0.34602753999999997  0.5066817912374839  1.0000
  Ni  Ni3       1.0  0.6672718249999999  0.09295475999999998  0.49416259549026664  1.0000
  Ni  Ni4       1.0  0.203720195  0.09301456  0.5162014306312486  1.0000
  Ni  Ni5       1.0  0.9470021549999998  0.27883917  0.5307221733001588  1.0000
  Ni  Ni6       1.0  0.408739335  0.35992541  0.5056774240390006  1.0000
  Si  Si3       1.0  0.6672718249999999  0.09295475999999998  0.4703614293988047  1.0000
  Si  Si4       1.0  0.167271825  0.09295475999999998  0.44656026663950565  1.0000
  Ni  Ni7       1.0  0.41727182500000004  0.34295476  0.48226201244453565  1.0000
  Ni  Ni8       1.0  0.9172718249999999  0.34295476  0.45846084968523665  1.0000
  Ni  Ni9       1.0  0.6672718249999999  0.09295475999999998  0.44656026663950565  1.0000
  Ni  Ni10      1.0  0.167271825  0.09295475999999998  0.4703614293988047  1.0000
  Ni  Ni11      1.0  0.9172718249999999  0.34295476  0.48226201244453565  1.0000
  Ni  Ni12      1.0  0.41727182500000004  0.34295476  0.45846084968523665  1.0000
  Si  Si5       1.0  0.675572615  0.59289693  0.5189588153850379  1.0000
  Si  Si6       1.0  0.167271825  0.59295476  0.49416259549026664  1.0000
  Ni  Ni13      1.0  0.45282582499999996  0.84237109  0.5284688048351803  1.0000
  Ni  Ni14      1.0  0.9091723649999999  0.83991044  0.5066818145626238  1.0000
  Ni  Ni15      1.0  0.6672718249999999  0.59295476  0.49416259549026664  1.0000
  Ni  Ni16      1.0  0.14238919499999997  0.59291521  0.5199448356948528  1.0000
  Ni  Ni17      1.0  0.9469997349999999  0.9070810900000001  0.5307215268605653  1.0000
  Ni  Ni18      1.0  0.4087443149999999  0.82598568  0.5056743817743159  1.0000
  Si  Si7       1.0  0.6672718249999999  0.59295476  0.4703614293988047  1.0000
  Si  Si8       1.0  0.167271825  0.59295476  0.44656026663950565  1.0000
  Ni  Ni19      1.0  0.41727182500000004  0.84295476  0.48226201244453565  1.0000
  Ni  Ni20      1.0  0.9172718249999999  0.84295476  0.45846084968523665  1.0000
  Ni  Ni21      1.0  0.6672718249999999  0.59295476  0.44656026663950565  1.0000
  Ni  Ni22      1.0  0.167271825  0.59295476  0.4703614293988047  1.0000
  Ni  Ni23      1.0  0.9172718249999999  0.84295476  0.48226201244453565  1.0000
  Ni  Ni24      1.0  0.41727182500000004  0.84295476  0.45846084968523665  1.0000
