data_image0
_chemical_formula_structural       COPt8V24
_chemical_formula_sum              "C1 O1 Pt8 V24"
_cell_length_a       6.81659339
_cell_length_b       8.348587792747212
_cell_length_c       101.60724326
_cell_angle_alpha    95.05115253582855
_cell_angle_beta     90.0
_cell_angle_gamma    90.0

_space_group_name_H-M_alt    "P 1"
_space_group_IT_number       1

loop_
  _space_group_symop_operation_xyz
  'x, y, z'

loop_
  _atom_site_type_symbol
  _atom_site_label
  _atom_site_symmetry_multiplicity
  _atom_site_fract_x
  _atom_site_fract_y
  _atom_site_fract_z
  _atom_site_occupancy
  C   C1        1.0  0.750360755  0.480081945  0.5384565801965556  1.0000
  O   O1        1.0  0.717168765  0.40334968500000007  0.5475211153236658  1.0000
  Pt  Pt1       1.0  0.01501567500000002  0.528257435  0.48650246528580277  1.0000
  Pt  Pt2       1.0  0.518575315  0.214101075  0.5066194831945555  1.0000
  Pt  Pt3       1.0  0.984984325  0.894923745  0.523954471851579  1.0000
  Pt  Pt4       1.0  0.515015675  0.840757435  0.46706041922324926  1.0000
  Pt  Pt5       1.0  0.03665634500000002  0.40604679500000007  0.5245221764858782  1.0000
  Pt  Pt6       1.0  0.515015675  0.340757435  0.4670604192232492  1.0000
  Pt  Pt7       1.0  0.01501567500000002  0.02825743500000001  0.4865024652858027  1.0000
  Pt  Pt8       1.0  0.5085565350000001  0.713925105  0.5066041846373498  1.0000
  V   V1        1.0  0.890015675  0.762632435  0.47192093073888763  1.0000
  V   V2        1.0  0.390015675  0.450132435  0.49136297680144114  1.0000
  V   V3        1.0  0.890003995  0.14067383500000002  0.5100719084125226  1.0000
  V   V4        1.0  0.390015675  0.07513243500000001  0.4524788846763341  1.0000
  V   V5        1.0  0.640015675  0.6063824350000001  0.48164195377016444  1.0000
  V   V6        1.0  0.13892629500000003  0.288462865  0.5007992345170851  1.0000
  V   V7        1.0  0.6324041050000001  0.971742565  0.518005376846443  1.0000
  V   V8        1.0  0.14001567500000003  0.918882435  0.4621999077076109  1.0000
  V   V9        1.0  0.26501567500000006  0.590757435  0.46706041922324926  1.0000
  V   V10       1.0  0.765015675  0.278257435  0.4865024652858027  1.0000
  V   V11       1.0  0.26149837500000006  0.968674155  0.5061736350835216  1.0000
  V   V12       1.0  0.7719792350000001  0.634751965  0.5244793915416309  1.0000
  V   V13       1.0  0.26501567500000006  0.778257435  0.4865024652858027  1.0000
  V   V14       1.0  0.7642994250000001  0.463960405  0.505705812794346  1.0000
  V   V15       1.0  0.22924943500000003  0.13291464500000003  0.5239233116955135  1.0000
  V   V16       1.0  0.765015675  0.09075743500000001  0.46706041922324926  1.0000
  V   V17       1.0  0.890015675  0.418882435  0.4621999077076109  1.0000
  V   V18       1.0  0.390015675  0.10638243500000001  0.48164195377016444  1.0000
  V   V19       1.0  0.891297515  0.785759845  0.5003012132866016  1.0000
  V   V20       1.0  0.39766241500000005  0.47002197500000004  0.5185358709599421  1.0000
  V   V21       1.0  0.14001567500000003  0.262632435  0.47192093073888763  1.0000
  V   V22       1.0  0.640015675  0.950132435  0.49136297680144114  1.0000
  V   V23       1.0  0.14232446500000004  0.6382744250000001  0.5101072960470838  1.0000
  V   V24       1.0  0.640015675  0.575132435  0.4524788846763342  1.0000
