data_image0
_chemical_formula_structural       COFe11Si5Fe11Si5
_chemical_formula_sum              "C1 O1 Fe22 Si10"
_cell_length_a       5.55997969
_cell_length_b       5.55997969
_cell_length_c       103.35987814
_cell_angle_alpha    90.0
_cell_angle_beta     90.0
_cell_angle_gamma    90.0

_space_group_name_H-M_alt    "P 1"
_space_group_IT_number       1

loop_
  _space_group_symop_operation_xyz
  'x, y, z'

loop_
  _atom_site_type_symbol
  _atom_site_label
  _atom_site_symmetry_multiplicity
  _atom_site_fract_x
  _atom_site_fract_y
  _atom_site_fract_z
  _atom_site_occupancy
  C   C1        1.0  0.9186630000000001  0.918182865  0.5497175702157442  1.0000
  O   O1        1.0  0.9232896500000001  0.923546175  0.5613557015789621  1.0000
  Fe  Fe1       1.0  0.9100936600000001  0.9090950550000002  0.4386442984210379  1.0000
  Fe  Fe2       1.0  0.4159318200000001  0.9090950550000002  0.4652264689364784  1.0000
  Fe  Fe3       1.0  0.9100936600000001  0.9090950550000002  0.4652264689364784  1.0000
  Fe  Fe4       1.0  0.16301274000000002  0.16201413500000003  0.45193538206498507  1.0000
  Fe  Fe5       1.0  0.16301274000000002  0.6620141350000001  0.4788316025078316  1.0000
  Fe  Fe6       1.0  0.6630127400000001  0.16201413500000003  0.4788316025078316  1.0000
  Fe  Fe7       1.0  0.9100936600000001  0.4149332150000001  0.4652264689364784  1.0000
  Fe  Fe8       1.0  0.4159318200000001  0.4149332150000001  0.4652264689364784  1.0000
  Fe  Fe9       1.0  0.4159318200000001  0.9090950550000002  0.4386442984210379  1.0000
  Fe  Fe10      1.0  0.9100936600000001  0.4149332150000001  0.4386442984210379  1.0000
  Fe  Fe11      1.0  0.4159318200000001  0.4149332150000001  0.4386442984210379  1.0000
  Si  Si1       1.0  0.6630127400000001  0.6620141350000001  0.45193538206498507  1.0000
  Si  Si2       1.0  0.6630127400000001  0.6620141350000001  0.4788316025078316  1.0000
  Si  Si3       1.0  0.16301274000000002  0.6620141350000001  0.45193538206498507  1.0000
  Si  Si4       1.0  0.6630127400000001  0.16201413500000003  0.45193538206498507  1.0000
  Si  Si5       1.0  0.16301274000000002  0.16201413500000003  0.4788316025078316  1.0000
  Fe  Fe12      1.0  0.9100936600000001  0.9090950550000002  0.49243673607918476  1.0000
  Fe  Fe13      1.0  0.42345927000000005  0.9102204750000001  0.5189875509833413  1.0000
  Fe  Fe14      1.0  0.91006764  0.9090706449999999  0.5171344036947787  1.0000
  Fe  Fe15      1.0  0.16384090000000004  0.16286719500000002  0.5061193468969474  1.0000
  Fe  Fe16      1.0  0.07671035000000001  0.7502501650000001  0.5359426999899992  1.0000
  Fe  Fe17      1.0  0.75052508  0.07645382500000003  0.5359266945884186  1.0000
  Fe  Fe18      1.0  0.91116385  0.42211403500000005  0.5189900071459956  1.0000
  Fe  Fe19      1.0  0.41936270000000003  0.4180501750000001  0.5205659340367828  1.0000
  Fe  Fe20      1.0  0.4159318200000001  0.9090950550000002  0.49243673607918476  1.0000
  Fe  Fe21      1.0  0.9100936600000001  0.4149332150000001  0.49243673607918476  1.0000
  Fe  Fe22      1.0  0.4159318200000001  0.4149332150000001  0.49243673607918476  1.0000
  Si  Si6       1.0  0.65796395  0.656839825  0.5057314765329707  1.0000
  Si  Si7       1.0  0.6639432100000001  0.662919095  0.5324221442413002  1.0000
  Si  Si8       1.0  0.17527011000000003  0.652313345  0.5062195137931073  1.0000
  Si  Si9       1.0  0.6532487800000001  0.17427901500000004  0.506195220052898  1.0000
  Si  Si10      1.0  0.16271684000000003  0.16144654500000002  0.5308021290694902  1.0000
