data_image0
_chemical_formula_structural       COGa18Ni26
_chemical_formula_sum              "C1 O1 Ga18 Ni26"
_cell_length_a       8.031706766470501
_cell_length_b       6.430615120220786
_cell_length_c       104.25442547
_cell_angle_alpha    91.35918719167032
_cell_angle_beta     90.11272899771177
_cell_angle_gamma    72.12231165198975

_space_group_name_H-M_alt    "P 1"
_space_group_IT_number       1

loop_
  _space_group_symop_operation_xyz
  'x, y, z'

loop_
  _atom_site_type_symbol
  _atom_site_label
  _atom_site_symmetry_multiplicity
  _atom_site_fract_x
  _atom_site_fract_y
  _atom_site_fract_z
  _atom_site_occupancy
  C   C1        1.0  0.9020086049999999  0.9999996450000002  0.5491611574771017  1.0000
  O   O1        1.0  0.922238985  0.9660626950000002  0.5603777028517924  1.0000
  Ga  Ga1       1.0  0.15595052500000003  0.358012795  0.46491860445634187  1.0000
  Ga  Ga2       1.0  0.490380085  0.03393730500000025  0.5204042716457514  1.0000
  Ga  Ga3       1.0  0.718048775  0.25590404500000014  0.494490090018187  1.0000
  Ga  Ga4       1.0  0.384715445  0.5892373850000001  0.43972914341941727  1.0000
  Ga  Ga5       1.0  0.524971825  0.8697501450000001  0.4627708593645333  1.0000
  Ga  Ga6       1.0  0.860115455  0.5319516050000002  0.5172184463096291  1.0000
  Ga  Ga7       1.0  0.29620690499999996  0.638525565  0.4879603204014577  1.0000
  Ga  Ga8       1.0  0.603891585  0.3212404550000001  0.5414689980793279  1.0000
  Ga  Ga9       1.0  0.13910967500000004  0.25756342500000007  0.49438324374697723  1.0000
  Ga  Ga10      1.0  0.805776345  0.5908967550000002  0.43962229714820755  1.0000
  Ga  Ga11      1.0  0.875146005  0.636866185  0.48806716667266753  1.0000
  Ga  Ga12      1.0  0.21119494500000005  0.3102888350000001  0.5422636473021568  1.0000
  Ga  Ga13      1.0  0.021383525000000046  0.8922149050000002  0.46607592446905166  1.0000
  Ga  Ga14      1.0  0.35156648500000004  0.562173695  0.5203618406747373  1.0000
  Ga  Ga15      1.0  0.6595388249999999  0.3355480350000001  0.4616135393518234  1.0000
  Ga  Ga16      1.0  0.9928721549999998  0.0022147050000000945  0.5163744859505931  1.0000
  Ga  Ga17      1.0  0.507127845  0.9472148050000003  0.4912252052098224  1.0000
  Ga  Ga18      1.0  0.8376592049999998  0.5777829850000001  0.5441986592633109  1.0000
  Ni  Ni1       1.0  0.426017205  0.23150331500000007  0.4514638697170299  1.0000
  Ni  Ni2       1.0  0.7593505349999999  0.8981699850000002  0.5062248130301429  1.0000
  Ni  Ni3       1.0  0.413934675  0.31431868500000004  0.5023514180240294  1.0000
  Ni  Ni4       1.0  0.08060134500000005  0.6476520250000002  0.4475904714252596  1.0000
  Ni  Ni5       1.0  0.254905145  0.9962596250000001  0.4762255941038451  1.0000
  Ni  Ni6       1.0  0.585319885  0.6755987750000002  0.5301805165361858  1.0000
  Ni  Ni7       1.0  0.600321005  0.580110925  0.4800989923956153  1.0000
  Ni  Ni8       1.0  0.9490007749999999  0.1924739250000001  0.5372914728292956  1.0000
  Ni  Ni9       1.0  0.276007315  0.9079595550000001  0.5060312385638824  1.0000
  Ni  Ni10      1.0  0.942673985  0.24129289500000015  0.45127029196511265  1.0000
  Ni  Ni11      1.0  0.7382483649999999  0.986470055  0.4764191718557623  1.0000
  Ni  Ni12      1.0  0.06626534500000004  0.6758095250000001  0.5311552460330843  1.0000
  Ni  Ni13      1.0  0.434772165  0.27373348500000005  0.4773069990178034  1.0000
  Ni  Ni14      1.0  0.768359355  0.9442800350000002  0.5347981489339168  1.0000
  Ni  Ni15      1.0  0.24615018500000005  0.9540294550000001  0.4503824648030716  1.0000
  Ni  Ni16      1.0  0.579483525  0.620696125  0.5051434114018413  1.0000
  Ni  Ni17      1.0  0.920494265  0.2739476450000002  0.47699279495034985  1.0000
  Ni  Ni18      1.0  0.257817955  0.9394220150000001  0.5315812675703805  1.0000
  Ni  Ni19      1.0  0.34046117499999995  0.6138814750000002  0.46384473026760914  1.0000
  Ni  Ni20      1.0  0.6833494649999999  0.27514678500000006  0.5183735189331354  1.0000
  Ni  Ni21      1.0  0.342338325  0.5964326150000002  0.5435093481952527  1.0000
  Ni  Ni22      1.0  0.007127845000000043  0.9472148050000002  0.4912252052098223  1.0000
  Ni  Ni23      1.0  0.16461141500000004  0.2833928550000001  0.5187262276118104  1.0000
  Ni  Ni24      1.0  0.840461175  0.613881475  0.46384473026760914  1.0000
  Ni  Ni25      1.0  0.7604280849999999  0.9538152950000001  0.4506966688705251  1.0000
  Ni  Ni26      1.0  0.09376142500000004  0.6204819650000001  0.5054576154692949  1.0000
