data_image0
_chemical_formula_structural       COPt18V6
_chemical_formula_sum              "C1 O1 Pt18 V6"
_cell_length_a       4.839169270434881
_cell_length_b       7.33715168586137
_cell_length_c       100.74613531
_cell_angle_alpha    85.82619287773613
_cell_angle_beta     89.53374239615894
_cell_angle_gamma    89.02304358417386

_space_group_name_H-M_alt    "P 1"
_space_group_IT_number       1

loop_
  _space_group_symop_operation_xyz
  'x, y, z'

loop_
  _atom_site_type_symbol
  _atom_site_label
  _atom_site_symmetry_multiplicity
  _atom_site_fract_x
  _atom_site_fract_y
  _atom_site_fract_z
  _atom_site_occupancy
  C   C1        1.0  0.635713135  0.56010009  0.5460462737021153  1.0000
  O   O1        1.0  0.822431245  0.56306945  0.5548453494978425  1.0000
  Pt  Pt1       1.0  0.580635255  0.26388889  0.4536319918896306  1.0000
  Pt  Pt2       1.0  0.913968585  0.81944444  0.47058667161273393  1.0000
  Pt  Pt3       1.0  0.24730192500000003  0.375  0.48754135438767976  1.0000
  Pt  Pt4       1.0  0.24730192500000003  0.54166667  0.462109330225261  1.0000
  Pt  Pt5       1.0  0.580635255  0.09722222  0.4790640130002068  1.0000
  Pt  Pt6       1.0  0.913968585  0.9861111100000001  0.44515465050215774  1.0000
  Pt  Pt7       1.0  0.747301925  0.625  0.4493933211958942  1.0000
  Pt  Pt8       1.0  0.08063525500000002  0.18055556  0.4663480009189974  1.0000
  Pt  Pt9       1.0  0.41396858500000006  0.73611111  0.4833026836939432  1.0000
  Pt  Pt10      1.0  0.580635255  0.9305555600000001  0.504496034110783  1.0000
  Pt  Pt11      1.0  0.9193647449999999  0.48247509  0.521820346912616  1.0000
  Pt  Pt12      1.0  0.23963621499999999  0.035793130000000006  0.5375810450781414  1.0000
  Pt  Pt13      1.0  0.250206765  0.21722813000000002  0.513088982349883  1.0000
  Pt  Pt14      1.0  0.5815302450000001  0.76087442  0.5309426250529147  1.0000
  Pt  Pt15      1.0  0.913968585  0.65277778  0.49601869272331006  1.0000
  Pt  Pt16      1.0  0.747301925  0.29166667  0.5002573634170466  1.0000
  Pt  Pt17      1.0  0.08218618500000002  0.84826102  0.5171330339856456  1.0000
  Pt  Pt18      1.0  0.42273906499999997  0.38784651  0.5359841653568906  1.0000
  V   V1        1.0  0.08063525500000002  0.013888890000000004  0.49178002508141616  1.0000
  V   V2        1.0  0.413968585  0.90277778  0.4578706595315245  1.0000
  V   V3        1.0  0.7473019250000001  0.45833333  0.4748253423064704  1.0000
  V   V4        1.0  0.086026875  0.6775684  0.5407253372030427  1.0000
  V   V5        1.0  0.41396858500000006  0.56944444  0.5087347048045194  1.0000
  V   V6        1.0  0.7430382050000001  0.12353868  0.5250538321909622  1.0000
