data_image0
_chemical_formula_structural       COGa8Pd16Ga8Pd16
_chemical_formula_sum              "C1 O1 Ga16 Pd32"
_cell_length_a       6.9715719377748995
_cell_length_b       8.957282263512258
_cell_length_c       111.82943162000001
_cell_angle_alpha    105.80936773877815
_cell_angle_beta     72.54670423649979
_cell_angle_gamma    74.19063222762666

_space_group_name_H-M_alt    "P 1"
_space_group_IT_number       1

loop_
  _space_group_symop_operation_xyz
  'x, y, z'

loop_
  _atom_site_type_symbol
  _atom_site_label
  _atom_site_symmetry_multiplicity
  _atom_site_fract_x
  _atom_site_fract_y
  _atom_site_fract_z
  _atom_site_occupancy
  C   C1        1.0  0.3196056800000001  0.42975857999999995  0.5585673463888745  1.0000
  O   O1        1.0  0.2585734300000001  0.46940505  0.5704675828025167  1.0000
  Ga  Ga1       1.0  0.92350749  0.11304339999999997  0.4674355658671992  1.0000
  Ga  Ga2       1.0  0.4235074900000001  0.11304339999999997  0.436265007469418  1.0000
  Ga  Ga3       1.0  0.5764925099999999  0.8970515000000001  0.46350764893872326  1.0000
  Ga  Ga4       1.0  0.07649250999999999  0.8970515000000001  0.4323370868004748  1.0000
  Ga  Ga5       1.0  0.53150343  0.3970515  0.46070297933573157  1.0000
  Ga  Ga6       1.0  0.031503430000000075  0.3970515  0.42953241719748314  1.0000
  Ga  Ga7       1.0  0.9684965700000001  0.6130434  0.4702402354701909  1.0000
  Ga  Ga8       1.0  0.46849657000000006  0.6130434  0.4390696770724096  1.0000
  Pd  Pd1       1.0  0.74032287  0.43863647  0.4763134674130291  1.0000
  Pd  Pd2       1.0  0.2403228700000001  0.43863647  0.44514290901524783  1.0000
  Pd  Pd3       1.0  0.75967713  0.5714584300000001  0.4546297473928933  1.0000
  Pd  Pd4       1.0  0.25967713  0.5714584300000001  0.48580030579067457  1.0000
  Pd  Pd5       1.0  0.67391189  0.07145842999999996  0.4492830450883634  1.0000
  Pd  Pd6       1.0  0.17391189000000012  0.07145842999999996  0.48045360348614463  1.0000
  Pd  Pd7       1.0  0.82608811  0.9386364700000001  0.481660169717559  1.0000
  Pd  Pd8       1.0  0.32608811000000004  0.9386364700000001  0.45048961131977777  1.0000
  Pd  Pd9       1.0  0.49968544999999986  0.7969827100000001  0.4836515682488633  1.0000
  Pd  Pd10      1.0  0.99968545  0.7969827100000001  0.45248100985108214  1.0000
  Pd  Pd11      1.0  0.0003145500000000706  0.21311218999999998  0.4472916465570591  1.0000
  Pd  Pd12      1.0  0.5003145499999999  0.21311218999999998  0.4784622049548403  1.0000
  Pd  Pd13      1.0  0.29162070999999995  0.71311219  0.4654519998741223  1.0000
  Pd  Pd14      1.0  0.7916207100000001  0.71311219  0.43428143773587397  1.0000
  Pd  Pd15      1.0  0.20837929000000008  0.2969827099999999  0.4654912149318  1.0000
  Pd  Pd16      1.0  0.70837929  0.2969827099999999  0.43432065653401886  1.0000
  Ga  Ga9       1.0  0.9254330500000002  0.12054259999999999  0.5303301147024292  1.0000
  Ga  Ga10      1.0  0.4235074900000001  0.11304339999999997  0.4986061280054476  1.0000
  Ga  Ga11      1.0  0.5788738299999999  0.9010125800000001  0.5266019013154842  1.0000
  Ga  Ga12      1.0  0.07649250999999999  0.8970515000000001  0.4946782073365044  1.0000
  Ga  Ga13      1.0  0.52419452  0.39625915  0.5225520825623502  1.0000
  Ga  Ga14      1.0  0.031503430000000075  0.3970515  0.4918735377335128  1.0000
  Ga  Ga15      1.0  0.9598420999999999  0.6157362000000001  0.534123528172394  1.0000
  Ga  Ga16      1.0  0.46849657000000006  0.6130434  0.5014107976084393  1.0000
  Pd  Pd17      1.0  0.7312048299999999  0.43665854  0.5379974514574536  1.0000
  Pd  Pd18      1.0  0.2403228700000001  0.43863647  0.5074840295512775  1.0000
  Pd  Pd19      1.0  0.75967713  0.5714584300000001  0.5169708641884558  1.0000
  Pd  Pd20      1.0  0.26202941000000013  0.5646402600000001  0.5470316222401834  1.0000
  Pd  Pd21      1.0  0.67391189  0.07145842999999996  0.5116241656243931  1.0000
  Pd  Pd22      1.0  0.1818269600000001  0.060364779999999965  0.5419600200736753  1.0000
  Pd  Pd23      1.0  0.8157313300000001  0.9396352200000002  0.5428414536783711  1.0000
  Pd  Pd24      1.0  0.32608811000000004  0.9386364700000001  0.5128307281153403  1.0000
  Pd  Pd25      1.0  0.51355325  0.7799070400000001  0.5446126808318594  1.0000
  Pd  Pd26      1.0  0.99968545  0.7969827100000001  0.5148221303871117  1.0000
  Pd  Pd27      1.0  0.0003145500000000706  0.21311218999999998  0.5096327633526216  1.0000
  Pd  Pd28      1.0  0.49255843  0.22276779000000002  0.5409801298924637  1.0000
  Pd  Pd29      1.0  0.28262044999999997  0.7131907100000001  0.5279238048516955  1.0000
  Pd  Pd30      1.0  0.7916207100000001  0.71311219  0.4966225582719036  1.0000
  Pd  Pd31      1.0  0.19815554000000013  0.29652200999999995  0.5280722527717695  1.0000
  Pd  Pd32      1.0  0.70837929  0.2969827099999999  0.4966617770700485  1.0000
