data_image0
_chemical_formula_structural       COV2Ir6V2Ir6V2Ir6V2Ir6
_chemical_formula_sum              "C1 O1 V8 Ir24"
_cell_length_a       5.478969908685987
_cell_length_b       8.7364862
_cell_length_c       108.35278936
_cell_angle_alpha    90.0
_cell_angle_beta     119.99999994755763
_cell_angle_gamma    90.0

_space_group_name_H-M_alt    "P 1"
_space_group_IT_number       1

loop_
  _space_group_symop_operation_xyz
  'x, y, z'

loop_
  _atom_site_type_symbol
  _atom_site_label
  _atom_site_symmetry_multiplicity
  _atom_site_fract_x
  _atom_site_fract_y
  _atom_site_fract_z
  _atom_site_occupancy
  C   C1        1.0  0.13058651  0.38380709  0.5405143251120746  1.0000
  O   O1        1.0  0.25731682999999994  0.38349456000000004  0.5535622877707634  1.0000
  V   V1        1.0  0.70358299  0.38354947  0.4464377122292366  1.0000
  V   V2        1.0  0.37024964999999993  0.13354947  0.46329305490163786  1.0000
  Ir  Ir1       1.0  0.37192197999999993  0.13354947  0.48861834792264136  1.0000
  Ir  Ir2       1.0  0.86941349  0.13354947  0.46320848979759094  1.0000
  Ir  Ir3       1.0  0.86941349  0.13354947  0.48861834792264136  1.0000
  Ir  Ir4       1.0  0.70191066  0.38354947  0.4716784436858151  1.0000
  Ir  Ir5       1.0  0.20441915  0.38354947  0.4465222737936618  1.0000
  Ir  Ir6       1.0  0.20441915  0.38354947  0.4716784436858151  1.0000
  V   V3        1.0  0.70358299  0.38354947  0.49700373670681847  1.0000
  V   V4        1.0  0.3760037399999999  0.13630081  0.5144750408224885  1.0000
  Ir  Ir7       1.0  0.37143302999999994  0.11645053000000001  0.5379174072580218  1.0000
  Ir  Ir8       1.0  0.8647370099999999  0.13596009  0.5133304793412073  1.0000
  Ir  Ir9       1.0  0.84504197  0.11661684000000001  0.5379177718390658  1.0000
  Ir  Ir10      1.0  0.71439399  0.38353881  0.5234778741514619  1.0000
  Ir  Ir11      1.0  0.20441915  0.38354947  0.4970883018108654  1.0000
  Ir  Ir12      1.0  0.21521659999999998  0.38353864  0.5236017396761791  1.0000
  V   V5        1.0  0.70358299  0.88354947  0.4464377122292366  1.0000
  V   V6        1.0  0.37024964999999993  0.63354947  0.46329305490163786  1.0000
  Ir  Ir13      1.0  0.37192197999999993  0.63354947  0.48861834792264136  1.0000
  Ir  Ir14      1.0  0.86941349  0.63354947  0.46320848979759094  1.0000
  Ir  Ir15      1.0  0.86941349  0.63354947  0.48861834792264136  1.0000
  Ir  Ir16      1.0  0.70191066  0.88354947  0.4716784436858151  1.0000
  Ir  Ir17      1.0  0.20441915  0.88354947  0.4465222737936618  1.0000
  Ir  Ir18      1.0  0.20441915  0.88354947  0.4716784436858151  1.0000
  V   V7        1.0  0.70358299  0.88354947  0.49700373670681847  1.0000
  V   V8        1.0  0.37600586999999996  0.63079362  0.5144749948074053  1.0000
  Ir  Ir19      1.0  0.3714592199999999  0.6505937799999999  0.5379176302541944  1.0000
  Ir  Ir20      1.0  0.8647298299999999  0.63113689  0.5133299236205873  1.0000
  Ir  Ir21      1.0  0.8450494399999999  0.65043053  0.5379182957030897  1.0000
  Ir  Ir22      1.0  0.69841069  0.88354919  0.5212159354842028  1.0000
  Ir  Ir23      1.0  0.20441915  0.88354947  0.4970883018108654  1.0000
  Ir  Ir24      1.0  0.18696107999999997  0.88354917  0.521213878963946  1.0000
