data_image0
_chemical_formula_structural       COAl3Ni3Al3Ni3Al3Ni3Al3Ni3
_chemical_formula_sum              "C1 O1 Al12 Ni12"
_cell_length_a       6.520947571979498
_cell_length_b       5.83251282
_cell_length_c       102.99367493
_cell_angle_alpha    90.0
_cell_angle_beta     108.4349487951369
_cell_angle_gamma    90.0

_space_group_name_H-M_alt    "P 1"
_space_group_IT_number       1

loop_
  _space_group_symop_operation_xyz
  'x, y, z'

loop_
  _atom_site_type_symbol
  _atom_site_label
  _atom_site_symmetry_multiplicity
  _atom_site_fract_x
  _atom_site_fract_y
  _atom_site_fract_z
  _atom_site_occupancy
  C   C1        1.0  0.6487134650000002  0.375010675  0.5444940526900733  1.0000
  O   O1        1.0  0.8144486550000002  0.37503990500000006  0.5528562269109089  1.0000
  Al  Al1       1.0  0.15488409500000005  0.375028695  0.5197645018688934  1.0000
  Al  Al2       1.0  0.8446959550000002  0.3750237050000001  0.49347927741845954  1.0000
  Al  Al3       1.0  0.5241132550000001  0.37501674500000004  0.5080470460541062  1.0000
  Ni  Ni1       1.0  0.1945152450000001  0.12626262500000002  0.5011605965583045  1.0000
  Ni  Ni2       1.0  0.8436288550000001  0.12497086500000001  0.5127144577647363  1.0000
  Ni  Ni3       1.0  0.508167625  0.12502172500000003  0.48718709972107155  1.0000
  Al  Al4       1.0  0.17483429500000006  0.37502172500000003  0.48051321301689687  1.0000
  Al  Al5       1.0  0.841500965  0.37502172500000003  0.45381765979326577  1.0000
  Al  Al6       1.0  0.508167625  0.37502172500000003  0.46716543640508135  1.0000
  Ni  Ni4       1.0  0.17483429500000006  0.12502172500000003  0.46049154970090667  1.0000
  Ni  Ni5       1.0  0.841500965  0.12502172500000003  0.47383932310925597  1.0000
  Ni  Ni6       1.0  0.508167625  0.12502172500000003  0.44714377308909115  1.0000
  Al  Al7       1.0  0.15541141500000005  0.875007595  0.5198016268378806  1.0000
  Al  Al8       1.0  0.845115905  0.8750210550000002  0.4935256347768348  1.0000
  Al  Al9       1.0  0.523527085  0.875029135  0.5082353009447347  1.0000
  Ni  Ni7       1.0  0.19453536500000007  0.6237755850000001  0.5011587673791439  1.0000
  Ni  Ni8       1.0  0.843625305  0.6250749050000001  0.5127157231338579  1.0000
  Ni  Ni9       1.0  0.508167625  0.6250217250000001  0.48718709972107155  1.0000
  Al  Al10      1.0  0.17483429500000006  0.8750217250000002  0.48051321301689687  1.0000
  Al  Al11      1.0  0.841500965  0.8750217250000002  0.45381765979326577  1.0000
  Al  Al12      1.0  0.508167625  0.8750217250000002  0.46716543640508135  1.0000
  Ni  Ni10      1.0  0.17483429500000006  0.6250217250000001  0.46049154970090667  1.0000
  Ni  Ni11      1.0  0.841500965  0.6250217250000001  0.47383932310925597  1.0000
  Ni  Ni12      1.0  0.508167625  0.6250217250000001  0.44714377308909115  1.0000
