data_image0
_chemical_formula_structural       COSi4Rh4Si4Rh4
_chemical_formula_sum              "C1 O1 Si8 Rh8"
_cell_length_a       4.63218008
_cell_length_b       5.640079001900764
_cell_length_c       102.29074940000001
_cell_angle_alpha    90.0
_cell_angle_beta     90.0
_cell_angle_gamma    115.13580667446827

_space_group_name_H-M_alt    "P 1"
_space_group_IT_number       1

loop_
  _space_group_symop_operation_xyz
  'x, y, z'

loop_
  _atom_site_type_symbol
  _atom_site_label
  _atom_site_symmetry_multiplicity
  _atom_site_fract_x
  _atom_site_fract_y
  _atom_site_fract_z
  _atom_site_occupancy
  C   C1        1.0  0.16947697999999997  0.37413166  0.5424513387369758  1.0000
  O   O1        1.0  0.12708747999999997  0.37893506999999993  0.5536636976631621  1.0000
  Si  Si1       1.0  0.7817879099999999  0.44200708  0.4690384332283336  1.0000
  Si  Si2       1.0  0.35659136999999996  0.05799291999999999  0.44649013763563017  1.0000
  Si  Si3       1.0  0.35659136999999996  0.55799292  0.45577321023640954  1.0000
  Si  Si4       1.0  0.7817879099999999  0.94200708  0.478321505829113  1.0000
  Rh  Rh1       1.0  0.26942173999999985  0.8812451399999999  0.46888460108630303  1.0000
  Rh  Rh2       1.0  0.8689575399999998  0.61875486  0.44633630233683813  1.0000
  Rh  Rh3       1.0  0.86895754  0.11875486  0.45592704237844006  1.0000
  Rh  Rh4       1.0  0.26942173999999997  0.38124514  0.47847533797114356  1.0000
  Si  Si5       1.0  0.7692840599999998  0.43935622999999996  0.5153947237552894  1.0000
  Si  Si6       1.0  0.35659136999999996  0.05799291999999999  0.49158672882103716  1.0000
  Si  Si7       1.0  0.35573958999999994  0.5600976999999999  0.5009801681154955  1.0000
  Si  Si8       1.0  0.7849322399999998  0.9194612199999999  0.5217533472982975  1.0000
  Rh  Rh5       1.0  0.2677038  0.88304753  0.5138954041226504  1.0000
  Rh  Rh6       1.0  0.8689575399999998  0.61875486  0.4914328966790066  1.0000
  Rh  Rh7       1.0  0.8729125199999999  0.12501824  0.5005565622970415  1.0000
  Rh  Rh8       1.0  0.23072799  0.37466172  0.5238588724584794  1.0000
