data_image0
_chemical_formula_structural       COPd16Sn32
_chemical_formula_sum              "C1 O1 Pd16 Sn32"
_cell_length_a       6.6498326441558
_cell_length_b       13.34927244839806
_cell_length_c       108.79189739
_cell_angle_alpha    84.95454944672333
_cell_angle_beta     85.08305303769318
_cell_angle_gamma    75.57745580498975

_space_group_name_H-M_alt    "P 1"
_space_group_IT_number       1

loop_
  _space_group_symop_operation_xyz
  'x, y, z'

loop_
  _atom_site_type_symbol
  _atom_site_label
  _atom_site_symmetry_multiplicity
  _atom_site_fract_x
  _atom_site_fract_y
  _atom_site_fract_z
  _atom_site_occupancy
  C   C1        1.0  0.171527595  0.05850753499999997  0.5569927969022086  1.0000
  O   O1        1.0  0.18553117499999996  0.024648444999999977  0.5672561787533948  1.0000
  Pd  Pd1       1.0  0.7967794150000004  0.9753515549999999  0.4555172024474772  1.0000
  Pd  Pd2       1.0  0.546779415  0.5170182249999999  0.4406601292094885  1.0000
  Pd  Pd3       1.0  0.9299871749999999  0.647803995  0.47731503739487424  1.0000
  Pd  Pd4       1.0  0.17998717500000003  0.27280399499999997  0.4327438212466052  1.0000
  Pd  Pd5       1.0  0.4299871749999999  0.731137325  0.447600894484594  1.0000
  Pd  Pd6       1.0  0.679987175  0.18947066499999998  0.4624579641568855  1.0000
  Pd  Pd7       1.0  0.2967794149999999  0.8920182249999999  0.4852313453577575  1.0000
  Pd  Pd8       1.0  0.046779415000000026  0.43368488499999996  0.470374275685466  1.0000
  Pd  Pd9       1.0  0.796779415  0.8086848849999999  0.5149454918337352  1.0000
  Pd  Pd10      1.0  0.546779415  0.3503515549999999  0.5000884185957463  1.0000
  Pd  Pd11      1.0  0.9532205850000001  0.4874619449999999  0.5333965597372937  1.0000
  Pd  Pd12      1.0  0.179987175  0.10613732499999998  0.4921721106328631  1.0000
  Pd  Pd13      1.0  0.42998717500000005  0.564470665  0.5070291803051545  1.0000
  Pd  Pd14      1.0  0.6646901450000002  0.027418064999999978  0.5211158311577773  1.0000
  Pd  Pd15      1.0  0.318211555  0.7518512749999998  0.5404823811439294  1.0000
  Pd  Pd16      1.0  0.063497485  0.2668995149999999  0.5289570063130237  1.0000
  Sn  Sn1       1.0  0.14697535500000003  0.6505097849999999  0.4347056571994955  1.0000
  Sn  Sn2       1.0  0.5797912350000001  0.025509784999999976  0.47927687334776464  1.0000
  Sn  Sn3       1.0  0.896975355  0.13931243499999998  0.43869829325659815  1.0000
  Sn  Sn4       1.0  0.8297912350000001  0.597645765  0.4535553664945869  1.0000
  Sn  Sn5       1.0  0.07979123499999999  0.05597909499999997  0.4684124397325757  1.0000
  Sn  Sn6       1.0  0.6469753550000001  0.5143124349999999  0.4832695094048672  1.0000
  Sn  Sn7       1.0  0.32979123500000007  0.5671764549999999  0.4644198001097758  1.0000
  Sn  Sn8       1.0  0.39697535500000003  0.10884311499999998  0.44956273043748435  1.0000
  Sn  Sn9       1.0  0.110886645  0.811577775  0.46641611992117576  1.0000
  Sn  Sn10      1.0  0.8633832950000001  0.26949500499999995  0.4814215618234789  1.0000
  Sn  Sn11      1.0  0.36338329500000016  0.3536605449999999  0.45141067801887264  1.0000
  Sn  Sn12      1.0  0.6158799450000001  0.8949111049999998  0.4367019770108954  1.0000
  Sn  Sn13      1.0  0.11587994500000011  0.8949111049999998  0.4367019770108955  1.0000
  Sn  Sn14      1.0  0.363383295  0.27032721499999995  0.48112482092915293  1.0000
  Sn  Sn15      1.0  0.863383295  0.35282833499999994  0.4517074189131986  1.0000
  Sn  Sn16      1.0  0.610886645  0.811577775  0.4664161199211757  1.0000
  Sn  Sn17      1.0  0.14697535500000003  0.48384311499999993  0.4941339465857534  1.0000
  Sn  Sn18      1.0  0.6009322250000002  0.8678239949999998  0.5386236401968387  1.0000
  Sn  Sn19      1.0  0.8969753550000001  0.9726457649999999  0.498126582642856  1.0000
  Sn  Sn20      1.0  0.8297912350000001  0.4309790949999999  0.5129836558808448  1.0000
  Sn  Sn21      1.0  0.057761085000000066  0.9052448349999999  0.5284749062106776  1.0000
  Sn  Sn22      1.0  0.7011412850000001  0.36057082499999993  0.5433974242567612  1.0000
  Sn  Sn23      1.0  0.35808777500000005  0.39495376499999996  0.5255368179962485  1.0000
  Sn  Sn24      1.0  0.39697535500000003  0.9421764549999999  0.5089910162580449  1.0000
  Sn  Sn25      1.0  0.1200215150000001  0.6524480849999998  0.5262860244827279  1.0000
  Sn  Sn26      1.0  0.877179945  0.11632529499999997  0.5410716518440798  1.0000
  Sn  Sn27      1.0  0.36338329500000005  0.18699388499999994  0.5108389638394332  1.0000
  Sn  Sn28      1.0  0.615879945  0.728244445  0.49613026283145606  1.0000
  Sn  Sn29      1.0  0.11587994500000004  0.728244445  0.49613026283145606  1.0000
  Sn  Sn30      1.0  0.40591508500000006  0.14529562499999998  0.5401979062482875  1.0000
  Sn  Sn31      1.0  0.863383295  0.18616166499999995  0.5111357082994565  1.0000
  Sn  Sn32      1.0  0.6269654450000001  0.645703465  0.5259730133116591  1.0000
