data_image0
_chemical_formula_structural       COV12Co12Si12
_chemical_formula_sum              "C1 O1 V12 Co12 Si12"
_cell_length_a       6.9722341195149795
_cell_length_b       7.736290537481847
_cell_length_c       30.863226609999998
_cell_angle_alpha    117.01913586091452
_cell_angle_beta     109.83618447053928
_cell_angle_gamma    76.34708143375106

_space_group_name_H-M_alt    "P 1"
_space_group_IT_number       1

loop_
  _space_group_symop_operation_xyz
  'x, y, z'

loop_
  _atom_site_type_symbol
  _atom_site_label
  _atom_site_symmetry_multiplicity
  _atom_site_fract_x
  _atom_site_fract_y
  _atom_site_fract_z
  _atom_site_occupancy
  C   C1        1.0  0.835080625  0.73885468  0.6624990445633354  1.0000
  O   O1        1.0  0.8670011649999999  0.79128036  0.7060783834148403  1.0000
  V   V1        1.0  0.5066507849999999  0.71035313  0.34213259871819984  1.0000
  V   V2        1.0  0.8399841149999999  0.04368645999999995  0.4478052195567189  1.0000
  V   V3        1.0  0.16241889499999998  0.36696767  0.5501619606257409  1.0000
  V   V4        1.0  0.539990795  0.69368312  0.4953568299499057  1.0000
  V   V5        1.0  0.8544486149999999  0.98133236  0.5917259283214625  1.0000
  V   V6        1.0  0.20665746499999998  0.36034978999999995  0.38968422179210005  1.0000
  V   V7        1.0  0.784027415  0.6548075000000001  0.5882935127950273  1.0000
  V   V8        1.0  0.12533557499999998  0.9729835400000001  0.37975779731727044  1.0000
  V   V9        1.0  0.45866891499999995  0.30631687999999996  0.48543040547507593  1.0000
  V   V10       1.0  0.8253422549999999  0.6229802  0.42730942039117065  1.0000
  V   V11       1.0  0.14949257499999996  0.9555220700000001  0.5296625474568488  1.0000
  V   V12       1.0  0.49200892499999993  0.28964686999999995  0.3216367995526515  1.0000
  Co  Co1       1.0  0.6981873449999999  0.9951045200000002  0.34964975103422563  1.0000
  Co  Co2       1.0  0.031520674999999984  0.32843785  0.4553223591920313  1.0000
  Co  Co3       1.0  0.3595377049999999  0.6657142100000001  0.5642971392680557  1.0000
  Co  Co4       1.0  0.4908983549999999  0.90968249  0.4424443591654483  1.0000
  Co  Co5       1.0  0.847763355  0.24013391999999997  0.5505656511395728  1.0000
  Co  Co6       1.0  0.15756502499999997  0.57634916  0.33677175100764273  1.0000
  Co  Co7       1.0  0.8410946850000001  0.42365084  0.3269976599439223  1.0000
  Co  Co8       1.0  0.17442802500000001  0.75698418  0.4326702681017279  1.0000
  Co  Co9       1.0  0.5045482749999999  0.10307167999999996  0.5430424374425007  1.0000
  Co  Co10      1.0  0.6338057049999999  0.33822881999999993  0.41979226807514486  1.0000
  Co  Co11      1.0  0.9684793249999999  0.67291054  0.5264220291675996  1.0000
  Co  Co12      1.0  0.30047236499999996  0.004895479999999945  0.31411965991733926  1.0000
  Si  Si1       1.0  0.886043535  0.74353567  0.3698477943664054  1.0000
  Si  Si2       1.0  0.21937686499999995  0.07686899999999997  0.4755204025242109  1.0000
  Si  Si3       1.0  0.571124715  0.41641887999999994  0.5815058438837203  1.0000
  Si  Si4       1.0  0.46856688499999993  0.07848897999999996  0.39600917146829706  1.0000
  Si  Si5       1.0  0.801900215  0.41182231  0.5016817796261026  1.0000
  Si  Si6       1.0  0.13634019499999997  0.7254195100000002  0.6088435346914427  1.0000
  Si  Si7       1.0  0.4459495049999999  0.58979766  0.39959422474296513  1.0000
  Si  Si8       1.0  0.7792828449999999  0.923131  0.5052668329007708  1.0000
  Si  Si9       1.0  0.11261617499999999  0.25646432999999996  0.29392161658515964  1.0000
  Si  Si10      1.0  0.863426165  0.25484435999999994  0.37343284764107354  1.0000
  Si  Si11      1.0  0.19675949499999995  0.5881776900000001  0.47910546847959257  1.0000
  Si  Si12      1.0  0.5134024549999999  0.9272103000000002  0.5860771269690614  1.0000
