data_image0
_chemical_formula_structural       COIn2Ni6In2Ni6In2Ni6In2Ni6
_chemical_formula_sum              "C1 O1 In8 Ni24"
_cell_length_a       5.34753351
_cell_length_b       7.56255442
_cell_length_c       102.08520107999999
_cell_angle_alpha    90.0
_cell_angle_beta     90.0
_cell_angle_gamma    90.0

_space_group_name_H-M_alt    "P 1"
_space_group_IT_number       1

loop_
  _space_group_symop_operation_xyz
  'x, y, z'

loop_
  _atom_site_type_symbol
  _atom_site_label
  _atom_site_symmetry_multiplicity
  _atom_site_fract_x
  _atom_site_fract_y
  _atom_site_fract_z
  _atom_site_occupancy
  C   C1        1.0  0.3751661950000001  0.37532366000000006  0.5464844470847281  1.0000
  O   O1        1.0  0.374141345  0.37532549  0.5581129986885992  1.0000
  In  In1       1.0  0.8780379950000001  0.12807644999999998  0.5214157412777791  1.0000
  In  In2       1.0  0.378851515  0.12532126999999998  0.4942700425637891  1.0000
  Ni  Ni1       1.0  0.15643852500000002  0.37532056  0.532126607964833  1.0000
  Ni  Ni2       1.0  0.6348582250000001  0.37532051000000005  0.5070170496700379  1.0000
  Ni  Ni3       1.0  0.5983100950000001  0.37532206  0.5322458841545357  1.0000
  Ni  Ni4       1.0  0.12114848500000003  0.37531966  0.5069591967893039  1.0000
  Ni  Ni5       1.0  0.878851515  0.12532126999999998  0.4942700425637891  1.0000
  Ni  Ni6       1.0  0.37832944500000004  0.12467830999999999  0.5202964748858903  1.0000
  In  In3       1.0  0.878851515  0.12532126999999998  0.46807852193759497  1.0000
  In  In4       1.0  0.378851515  0.12532126999999998  0.44188700131140085  1.0000
  Ni  Ni7       1.0  0.12885151500000003  0.37532127  0.48117428382218336  1.0000
  Ni  Ni8       1.0  0.6288515149999999  0.37532127  0.45498276005300664  1.0000
  Ni  Ni9       1.0  0.6288515149999999  0.37532127  0.48117428382218336  1.0000
  Ni  Ni10      1.0  0.12885151500000003  0.37532127  0.45498276005300664  1.0000
  Ni  Ni11      1.0  0.878851515  0.12532126999999998  0.44188700131140085  1.0000
  Ni  Ni12      1.0  0.378851515  0.12532126999999998  0.46807852193759497  1.0000
  In  In5       1.0  0.878039545  0.6225634100000002  0.5214154175505713  1.0000
  In  In6       1.0  0.378851515  0.62532127  0.4942700425637891  1.0000
  Ni  Ni13      1.0  0.15330339500000004  0.8753204200000001  0.530844051054899  1.0000
  Ni  Ni14      1.0  0.6346618850000001  0.8753210300000002  0.5069530019705977  1.0000
  Ni  Ni15      1.0  0.6040939750000001  0.8753186700000001  0.53087469827824  1.0000
  Ni  Ni16      1.0  0.12183399500000003  0.8753216900000002  0.5069272609430965  1.0000
  Ni  Ni17      1.0  0.878851515  0.62532127  0.4942700425637891  1.0000
  Ni  Ni18      1.0  0.37833281500000004  0.6259625800000002  0.5202964183122035  1.0000
  In  In7       1.0  0.878851515  0.62532127  0.46807852193759497  1.0000
  In  In8       1.0  0.378851515  0.62532127  0.44188700131140085  1.0000
  Ni  Ni19      1.0  0.12885151500000003  0.8753212700000002  0.48117428382218336  1.0000
  Ni  Ni20      1.0  0.6288515149999999  0.8753212700000002  0.45498276005300664  1.0000
  Ni  Ni21      1.0  0.6288515149999999  0.8753212700000002  0.48117428382218336  1.0000
  Ni  Ni22      1.0  0.12885151500000003  0.8753212700000002  0.45498276005300664  1.0000
  Ni  Ni23      1.0  0.878851515  0.62532127  0.44188700131140085  1.0000
  Ni  Ni24      1.0  0.378851515  0.62532127  0.46807852193759497  1.0000
