data_image0
_chemical_formula_structural       COIn9Ni9In9Ni9
_chemical_formula_sum              "C1 O1 In18 Ni18"
_cell_length_a       6.933506800093324
_cell_length_b       9.23870006
_cell_length_c       104.66753399000001
_cell_angle_alpha    90.0
_cell_angle_beta     96.44560411290301
_cell_angle_gamma    48.22280207302102

_space_group_name_H-M_alt    "P 1"
_space_group_IT_number       1

loop_
  _space_group_symop_operation_xyz
  'x, y, z'

loop_
  _atom_site_type_symbol
  _atom_site_label
  _atom_site_symmetry_multiplicity
  _atom_site_fract_x
  _atom_site_fract_y
  _atom_site_fract_z
  _atom_site_occupancy
  C   C1        1.0  0.14862441499999998  0.5143131649999999  0.5591922293849795  1.0000
  O   O1        1.0  0.25891746499999996  0.409452355  0.5691034958571836  1.0000
  In  In1       1.0  0.9214262750000001  0.9176906449999999  0.5081801740680841  1.0000
  In  In2       1.0  0.24927602499999996  0.25708583499999993  0.5298028115267364  1.0000
  In  In3       1.0  0.5701094050000001  0.5759306350000001  0.5530081567411324  1.0000
  In  In4       1.0  0.9214262750000001  0.25102397499999995  0.5081801740680841  1.0000
  In  In5       1.0  0.24365224500000002  0.5860467349999999  0.5292779041452627  1.0000
  In  In6       1.0  0.5608808150000001  0.9287727749999999  0.5521797199497958  1.0000
  In  In7       1.0  0.9266051950000002  0.07122722499999996  0.5420423821790444  1.0000
  In  In8       1.0  0.254759615  0.417690645  0.4971396507393766  1.0000
  In  In9       1.0  0.5880929450000001  0.751023975  0.5192207007089491  1.0000
  Ni  Ni1       1.0  0.748340415  0.418889315  0.5303007248259721  1.0000
  Ni  Ni2       1.0  0.08466246499999996  0.727538175  0.5510301032621857  1.0000
  Ni  Ni3       1.0  0.4214262749999999  0.08435730499999998  0.5081801740680841  1.0000
  Ni  Ni4       1.0  0.5880929450000001  0.2510239749999999  0.5192207007089491  1.0000
  Ni  Ni5       1.0  0.921925185  0.573679055  0.5436717449829359  1.0000
  Ni  Ni6       1.0  0.254759615  0.9176906449999999  0.4971396507393766  1.0000
  Ni  Ni7       1.0  0.7467561249999999  0.922742085  0.5299509212660543  1.0000
  Ni  Ni8       1.0  0.07339480499999997  0.24955075499999996  0.5502426047354458  1.0000
  Ni  Ni9       1.0  0.4214262749999999  0.584357305  0.5081801740680841  1.0000
  In  In10      1.0  0.9214262750000001  0.9176906449999999  0.4419370274715241  1.0000
  In  In11      1.0  0.254759615  0.25102397499999995  0.4640180774410966  1.0000
  In  In12      1.0  0.5880929450000001  0.584357305  0.486099127410669  1.0000
  In  In13      1.0  0.9214262750000001  0.25102397499999995  0.4419370274715241  1.0000
  In  In14      1.0  0.254759615  0.5843573049999999  0.4640180774410966  1.0000
  In  In15      1.0  0.5880929450000001  0.9176906449999999  0.486099127410669  1.0000
  In  In16      1.0  0.9214262750000001  0.08435730499999992  0.4750586007698041  1.0000
  In  In17      1.0  0.254759615  0.417690645  0.4308965041428166  1.0000
  In  In18      1.0  0.5880929450000001  0.751023975  0.45297755411238894  1.0000
  Ni  Ni10      1.0  0.754759615  0.417690645  0.4640180774410966  1.0000
  Ni  Ni11      1.0  0.08809294499999996  0.751023975  0.48609912741066896  1.0000
  Ni  Ni12      1.0  0.4214262749999999  0.08435730499999998  0.4419370274715241  1.0000
  Ni  Ni13      1.0  0.5880929450000001  0.2510239749999999  0.45297755411238894  1.0000
  Ni  Ni14      1.0  0.9214262750000001  0.5843573049999999  0.4750586007698041  1.0000
  Ni  Ni15      1.0  0.254759615  0.9176906449999999  0.4308965041428166  1.0000
  Ni  Ni16      1.0  0.754759615  0.9176906449999999  0.4640180774410966  1.0000
  Ni  Ni17      1.0  0.08809294499999996  0.25102397499999995  0.48609912741066896  1.0000
  Ni  Ni18      1.0  0.4214262749999999  0.584357305  0.4419370274715241  1.0000
