data_image0
_chemical_formula_structural       COIn10Pt10
_chemical_formula_sum              "C1 O1 In10 Pt10"
_cell_length_a       7.107274639701158
_cell_length_b       7.325581023074097
_cell_length_c       99.31734426
_cell_angle_alpha    88.87310980564487
_cell_angle_beta     89.70496029300858
_cell_angle_gamma    65.31507071394127

_space_group_name_H-M_alt    "P 1"
_space_group_IT_number       1

loop_
  _space_group_symop_operation_xyz
  'x, y, z'

loop_
  _atom_site_type_symbol
  _atom_site_label
  _atom_site_symmetry_multiplicity
  _atom_site_fract_x
  _atom_site_fract_y
  _atom_site_fract_z
  _atom_site_occupancy
  C   C1        1.0  0.6854061500000002  0.6195398349999999  0.5408073615666172  1.0000
  O   O1        1.0  0.7695863200000002  0.6334072949999999  0.550606742238721  1.0000
  In  In1       1.0  0.07142858000000005  0.10194034499999997  0.4493932577612788  1.0000
  In  In2       1.0  0.06892255  0.7063202949999999  0.46419878557325545  1.0000
  In  In3       1.0  0.9310774500000002  0.35470323499999995  0.47675752990651576  1.0000
  In  In4       1.0  0.5653799900000002  0.827261175  0.45478714688787336  1.0000
  In  In5       1.0  0.43462002000000005  0.233762365  0.48616916564001217  1.0000
  In  In6       1.0  0.9285714300000001  0.9590831949999999  0.4915630547666067  1.0000
  In  In7       1.0  0.9150732600000001  0.5746227249999999  0.5099757838821731  1.0000
  In  In8       1.0  0.7807262700000002  0.18631456499999996  0.5197013556056648  1.0000
  In  In9       1.0  0.4341097500000001  0.6803666949999999  0.4969317908756391  1.0000
  In  In10      1.0  0.30805402000000004  0.04091680499999998  0.5269348687204959  1.0000
  Pt  Pt1       1.0  0.5000000000000001  0.530511765  0.47047815773988566  1.0000
  Pt  Pt2       1.0  0.28258457000000003  0.304074715  0.4595598087290595  1.0000
  Pt  Pt3       1.0  0.7174154400000002  0.7569488249999999  0.48139650379882604  1.0000
  Pt  Pt4       1.0  0.7416569100000002  0.10221299499999999  0.46588694535727543  1.0000
  Pt  Pt5       1.0  0.2583431000000002  0.9588105449999998  0.4750693671706101  1.0000
  Pt  Pt6       1.0  0.3563944700000001  0.38822366499999994  0.5120533003343614  1.0000
  Pt  Pt7       1.0  0.11689546000000003  0.18767231499999998  0.5014121776636766  1.0000
  Pt  Pt8       1.0  0.5544979900000001  0.5905745149999999  0.5250837796084228  1.0000
  Pt  Pt9       1.0  0.6018055000000003  0.9588368949999998  0.5070987196847819  1.0000
  Pt  Pt10      1.0  0.12287149000000004  0.8105292049999999  0.5160433789171334  1.0000
