data_image0
_chemical_formula_structural       COIn36Co12
_chemical_formula_sum              "C1 O1 In36 Co12"
_cell_length_a       9.84011744
_cell_length_b       10.016689439204047
_cell_length_c       33.41131041
_cell_angle_alpha    91.64461294395544
_cell_angle_beta     90.0
_cell_angle_gamma    60.581429010216816

_space_group_name_H-M_alt    "P 1"
_space_group_IT_number       1

loop_
  _space_group_symop_operation_xyz
  'x, y, z'

loop_
  _atom_site_type_symbol
  _atom_site_label
  _atom_site_symmetry_multiplicity
  _atom_site_fract_x
  _atom_site_fract_y
  _atom_site_fract_z
  _atom_site_occupancy
  C   C1        1.0  0.6868356499999999  0.39329091999999993  0.6641112487807089  1.0000
  O   O1        1.0  0.6855855299999999  0.41269656999999993  0.6993016061243673  1.0000
  In  In1       1.0  0.010430759999999933  0.52942315  0.48959716266555936  1.0000
  In  In2       1.0  0.3424088999999999  0.8562770399999999  0.6207246893559427  1.0000
  In  In3       1.0  0.67709743  0.19608981999999994  0.3679195072877096  1.0000
  In  In4       1.0  0.8437640900000001  0.8627564799999999  0.42875832950114  1.0000
  In  In5       1.0  0.17709742999999992  0.19608981999999994  0.5504359848789898  1.0000
  In  In6       1.0  0.51043076  0.52942315  0.30708067412329026  1.0000
  In  In7       1.0  0.3437640899999999  0.8627564799999999  0.42875832950114  1.0000
  In  In8       1.0  0.67709743  0.19608981999999994  0.5504359848789898  1.0000
  In  In9       1.0  0.010430759999999933  0.52942315  0.30708067412329026  1.0000
  In  In10      1.0  0.51043076  0.52942315  0.48959716266555936  1.0000
  In  In11      1.0  0.85732029  0.86261459  0.6221796487178964  1.0000
  In  In12      1.0  0.17709742999999992  0.19608981999999994  0.3679195072877096  1.0000
  In  In13      1.0  0.64319191  0.76390085  0.48178261350534984  1.0000
  In  In14      1.0  0.9765581599999998  0.10375288999999999  0.6083055011546586  1.0000
  In  In15      1.0  0.3098585799999999  0.4305675199999999  0.360104947176511  1.0000
  In  In16      1.0  0.7459712099999999  0.86668015  0.33678396172471864  1.0000
  In  In17      1.0  0.07930453999999994  0.20001347999999997  0.4584616171025683  1.0000
  In  In18      1.0  0.4094698399999999  0.54631349  0.5848263067634322  1.0000
  In  In19      1.0  0.4376333099999999  0.86668015  0.33678396172471864  1.0000
  In  In20      1.0  0.7709666399999999  0.20001347999999997  0.4584616171025683  1.0000
  In  In21      1.0  0.0965882  0.54473217  0.5859096114575302  1.0000
  In  In22      1.0  0.6082236399999998  0.52549948  0.3990550528507008  1.0000
  In  In23      1.0  0.94155698  0.8588328199999999  0.5207327082285504  1.0000
  In  In24      1.0  0.25047047999999994  0.20034514999999997  0.6435847586277782  1.0000
  In  In25      1.0  0.9165615399999999  0.52549948  0.3990550528507008  1.0000
  In  In26      1.0  0.2498948799999999  0.8588328199999999  0.5207327082285504  1.0000
  In  In27      1.0  0.57378694  0.18927393999999995  0.6375463284866678  1.0000
  In  In28      1.0  0.87374594  0.30279277999999993  0.31346296532193696  1.0000
  In  In29      1.0  0.20707927999999995  0.6361261199999999  0.4351406206997869  1.0000
  In  In30      1.0  0.53882345  0.97057685  0.5562837582999821  1.0000
  In  In31      1.0  0.48044891  0.08938684999999996  0.4223760492534822  1.0000
  In  In32      1.0  0.8137822400000001  0.42272017999999995  0.5440537046313321  1.0000
  In  In33      1.0  0.14711557999999988  0.7560535199999999  0.30069839387563246  1.0000
  In  In34      1.0  0.72666591  0.6307044399999999  0.6257118464460537  1.0000
  In  In35      1.0  0.044336279999999895  0.96161212  0.37573405644791924  1.0000
  In  In36      1.0  0.37766960999999993  0.29494545  0.4974117118257691  1.0000
  Co  Co1       1.0  0.79341975  0.46344516  0.4655130246858181  1.0000
  Co  Co2       1.0  0.12377951999999995  0.805183  0.5848415833932177  1.0000
  Co  Co3       1.0  0.4600864199999999  0.13011182999999996  0.34383536930796826  1.0000
  Co  Co4       1.0  0.026064409999999934  0.69608982  0.3679195072877096  1.0000
  Co  Co5       1.0  0.3593977399999999  0.029423149999999967  0.48959716266555936  1.0000
  Co  Co6       1.0  0.6927454199999998  0.35884056999999997  0.6125633223711415  1.0000
  Co  Co7       1.0  0.32813044999999985  0.69608982  0.3679195072877096  1.0000
  Co  Co8       1.0  0.66146378  0.029423149999999967  0.48959716266555936  1.0000
  Co  Co9       1.0  0.9895692399999999  0.36392522999999993  0.6054283915940755  1.0000
  Co  Co10      1.0  0.8941084299999998  0.26206779999999996  0.3920036452674511  1.0000
  Co  Co11      1.0  0.22744177  0.59540114  0.5136813006453009  1.0000
  Co  Co12      1.0  0.55282736  0.9423401400000001  0.6303314664402082  1.0000
