data_image0
_chemical_formula_structural       COGa5Ni15Ga5Ni15
_chemical_formula_sum              "C1 O1 Ga10 Ni30"
_cell_length_a       8.083766383567399
_cell_length_b       5.11262277
_cell_length_c       107.5699511
_cell_angle_alpha    90.0
_cell_angle_beta     104.96321746843056
_cell_angle_gamma    71.56505121053031

_space_group_name_H-M_alt    "P 1"
_space_group_IT_number       1

loop_
  _space_group_symop_operation_xyz
  'x, y, z'

loop_
  _atom_site_type_symbol
  _atom_site_label
  _atom_site_symmetry_multiplicity
  _atom_site_fract_x
  _atom_site_fract_y
  _atom_site_fract_z
  _atom_site_occupancy
  C   C1        1.0  0.15890468500000005  0.443266305  0.5492181810907243  1.0000
  O   O1        1.0  0.18933960500000005  0.42832150500000005  0.5609100236430686  1.0000
  Ga  Ga1       1.0  0.537478525  0.253403795  0.5440742527665033  1.0000
  Ga  Ga2       1.0  0.9456858750000001  0.04975420500000005  0.5323774262646758  1.0000
  Ga  Ga3       1.0  0.14436995500000002  0.450123995  0.49730008245226  1.0000
  Ga  Ga4       1.0  0.344369955  0.850123995  0.5205841269859554  1.0000
  Ga  Ga5       1.0  0.7443699550000001  0.650123995  0.5089421064654109  1.0000
  Ni  Ni1       1.0  0.645531755  0.9502457950000001  0.5259994482986804  1.0000
  Ni  Ni2       1.0  0.04436995500000004  0.7501239950000002  0.5147631149793799  1.0000
  Ni  Ni3       1.0  0.24563475500000004  0.14931453499999997  0.5385669606466711  1.0000
  Ni  Ni4       1.0  0.44436995500000004  0.5501239950000001  0.5031210944588355  1.0000
  Ni  Ni5       1.0  0.8162340950000001  0.361877635  0.5484004187109379  1.0000
  Ni  Ni6       1.0  0.6454184550000001  0.448916075  0.5259944468861646  1.0000
  Ni  Ni7       1.0  0.04436995500000004  0.250123995  0.5147631149793799  1.0000
  Ni  Ni8       1.0  0.24574058500000004  0.6497423250000002  0.5385575236238934  1.0000
  Ni  Ni9       1.0  0.44436995500000004  0.050123995000000005  0.5031210944588355  1.0000
  Ni  Ni10      1.0  0.8163911450000001  0.8666919249999999  0.5484094051874763  1.0000
  Ni  Ni11      1.0  0.344369955  0.35012399499999997  0.5205841269859554  1.0000
  Ni  Ni12      1.0  0.7443699550000001  0.15012399500000004  0.5089421064654109  1.0000
  Ni  Ni13      1.0  0.955630045  0.5447852950000001  0.5340348356966117  1.0000
  Ni  Ni14      1.0  0.14436995500000002  0.950123995  0.49730008245226  1.0000
  Ni  Ni15      1.0  0.535084395  0.7546888650000002  0.5429080609765228  1.0000
  Ga  Ga6       1.0  0.544369955  0.25012399499999993  0.4856580619317156  1.0000
  Ga  Ga7       1.0  0.9443699550000001  0.050123995000000095  0.47401604141117104  1.0000
  Ga  Ga8       1.0  0.14436995500000002  0.450123995  0.4390899763569312  1.0000
  Ga  Ga9       1.0  0.344369955  0.850123995  0.46237401739802014  1.0000
  Ga  Ga10      1.0  0.7443699550000001  0.650123995  0.4507319968774757  1.0000
  Ni  Ni16      1.0  0.644369955  0.950123995  0.4681950294045957  1.0000
  Ni  Ni17      1.0  0.04436995500000004  0.7501239950000002  0.45655300888405115  1.0000
  Ni  Ni18      1.0  0.24436995500000006  0.15012399499999998  0.4798370499251401  1.0000
  Ni  Ni19      1.0  0.44436995500000004  0.5501239950000001  0.4449109848709002  1.0000
  Ni  Ni20      1.0  0.8443699550000001  0.350123995  0.49147907393829104  1.0000
  Ni  Ni21      1.0  0.644369955  0.450123995  0.4681950294045957  1.0000
  Ni  Ni22      1.0  0.04436995500000004  0.250123995  0.45655300888405115  1.0000
  Ni  Ni23      1.0  0.24436995500000006  0.6501239950000001  0.4798370499251401  1.0000
  Ni  Ni24      1.0  0.44436995500000004  0.050123995000000005  0.4449109848709002  1.0000
  Ni  Ni25      1.0  0.8443699550000001  0.850123995  0.49147907393829104  1.0000
  Ni  Ni26      1.0  0.344369955  0.35012399499999997  0.46237401739802014  1.0000
  Ni  Ni27      1.0  0.7443699550000001  0.15012399500000004  0.4507319968774757  1.0000
  Ni  Ni28      1.0  0.9443699550000001  0.5501239950000001  0.47401604141117104  1.0000
  Ni  Ni29      1.0  0.14436995500000002  0.950123995  0.4390899763569312  1.0000
  Ni  Ni30      1.0  0.544369955  0.7501239949999999  0.4856580619317156  1.0000
