data_image0
_chemical_formula_structural       COCo16Si8Co16Si8
_chemical_formula_sum              "C1 O1 Co32 Si16"
_cell_length_a       7.08191239
_cell_length_b       6.16695690825101
_cell_length_c       107.00174146
_cell_angle_alpha    74.46237225692194
_cell_angle_beta     90.0
_cell_angle_gamma    90.0

_space_group_name_H-M_alt    "P 1"
_space_group_IT_number       1

loop_
  _space_group_symop_operation_xyz
  'x, y, z'

loop_
  _atom_site_type_symbol
  _atom_site_label
  _atom_site_symmetry_multiplicity
  _atom_site_fract_x
  _atom_site_fract_y
  _atom_site_fract_z
  _atom_site_occupancy
  C   C1        1.0  0.9910936950000001  0.63483869  0.5570697894987297  1.0000
  O   O1        1.0  0.008906304999999995  0.5912484499999999  0.5683304741558723  1.0000
  Co  Co1       1.0  0.602000415  0.7191928399999999  0.48096647564554373  1.0000
  Co  Co2       1.0  0.602000415  0.21919283999999997  0.45214938669348254  1.0000
  Co  Co3       1.0  0.473471515  0.29559414  0.4853698014095839  1.0000
  Co  Co4       1.0  0.473471515  0.7955941399999998  0.4565527124575227  1.0000
  Co  Co5       1.0  0.9734715150000001  0.46919284  0.4665579311695131  1.0000
  Co  Co6       1.0  0.9734715150000001  0.9691928399999998  0.4377408456755023  1.0000
  Co  Co7       1.0  0.102000415  0.54559414  0.44214417143954243  1.0000
  Co  Co8       1.0  0.102000415  0.04559413999999999  0.47096125693355323  1.0000
  Co  Co9       1.0  0.7553907750000001  0.61385051  0.4460780703201584  1.0000
  Co  Co10      1.0  0.7553907750000001  0.11385050999999999  0.4748951558141692  1.0000
  Co  Co11      1.0  0.32008115500000006  0.40093646999999993  0.4626240322888972  1.0000
  Co  Co12      1.0  0.32008115500000006  0.9009364699999998  0.433806943336836  1.0000
  Co  Co13      1.0  0.8200811550000001  0.36385050999999996  0.4316695258441277  1.0000
  Co  Co14      1.0  0.8200811550000001  0.8638505099999999  0.46048661133813856  1.0000
  Co  Co15      1.0  0.255390775  0.65093647  0.47703257330687737  1.0000
  Co  Co16      1.0  0.255390775  0.15093647  0.4482154878128666  1.0000
  Si  Si1       1.0  0.14413581500000003  0.28096669  0.48452675984510174  1.0000
  Si  Si2       1.0  0.14413581500000003  0.7809666899999999  0.45570967089304054  1.0000
  Si  Si3       1.0  0.9313361150000001  0.7338202899999999  0.4818095137519754  1.0000
  Si  Si4       1.0  0.9313361150000001  0.23382029  0.4529924282579646  1.0000
  Si  Si5       1.0  0.43133611499999996  0.53096669  0.44130112987506037  1.0000
  Si  Si6       1.0  0.43133611499999996  0.030966689999999995  0.47011821536907117  1.0000
  Si  Si7       1.0  0.6441358150000001  0.48382029  0.4674009727339952  1.0000
  Si  Si8       1.0  0.6441358150000001  0.9838202899999998  0.438583883781934  1.0000
  Co  Co17      1.0  0.622124575  0.6991317999999999  0.5369591066517727  1.0000
  Co  Co18      1.0  0.602000415  0.21919283999999997  0.5097835611395545  1.0000
  Co  Co19      1.0  0.47776726500000005  0.28814172999999993  0.541663192891094  1.0000
  Co  Co20      1.0  0.472066565  0.7990286999999998  0.5139148420788152  1.0000
  Co  Co21      1.0  0.9632557850000001  0.47653169  0.5254791919735731  1.0000
  Co  Co22      1.0  0.9734715150000001  0.9691928399999998  0.49537501666352396  1.0000
  Co  Co23      1.0  0.102000415  0.54559414  0.4997783424275641  1.0000
  Co  Co24      1.0  0.10483403499999999  0.055384349999999985  0.5288540762591141  1.0000
  Co  Co25      1.0  0.7553907750000001  0.61385051  0.50371224130818  1.0000
  Co  Co26      1.0  0.7568833750000001  0.10648869999999999  0.5323489306870991  1.0000
  Co  Co27      1.0  0.31390619500000005  0.40340671999999994  0.5199985590208651  1.0000
  Co  Co28      1.0  0.32008115500000006  0.9009364699999998  0.49144111778290805  1.0000
  Co  Co29      1.0  0.8200811550000001  0.36385050999999996  0.48930370029019976  1.0000
  Co  Co30      1.0  0.8205541250000001  0.8686397299999998  0.5175574762905417  1.0000
  Co  Co31      1.0  0.265330375  0.6606434299999999  0.5344649463058965  1.0000
  Co  Co32      1.0  0.255390775  0.15093647  0.5058496622589386  1.0000
  Si  Si9       1.0  0.16367956499999997  0.2924372599999999  0.5410780907638194  1.0000
  Si  Si10      1.0  0.14413581500000003  0.7809666899999999  0.5133438453391126  1.0000
  Si  Si11      1.0  0.9456341950000002  0.7357703099999999  0.5390303750984251  1.0000
  Si  Si12      1.0  0.9313361150000001  0.23382029  0.5106266027040367  1.0000
  Si  Si13      1.0  0.43133611499999996  0.53096669  0.498935300863082  1.0000
  Si  Si14      1.0  0.43699486500000007  0.01617970999999999  0.5292337079478637  1.0000
  Si  Si15      1.0  0.636296415  0.46874417  0.5238886893575987  1.0000
  Si  Si16      1.0  0.6441358150000001  0.9838202899999998  0.496218058228006  1.0000
