data_image0
_chemical_formula_structural       CONi5Pt5Ni5Pt5
_chemical_formula_sum              "C1 O1 Ni10 Pt10"
_cell_length_a       4.552844684864343
_cell_length_b       6.105352032677562
_cell_length_c       101.85285762000001
_cell_angle_alpha    103.29756192742282
_cell_angle_beta     103.92908379929123
_cell_angle_gamma    74.4428487024156

_space_group_name_H-M_alt    "P 1"
_space_group_IT_number       1

loop_
  _space_group_symop_operation_xyz
  'x, y, z'

loop_
  _atom_site_type_symbol
  _atom_site_label
  _atom_site_symmetry_multiplicity
  _atom_site_fract_x
  _atom_site_fract_y
  _atom_site_fract_z
  _atom_site_occupancy
  C   C1        1.0  0.06111604500000003  0.41414536999999985  0.5492525745727224  1.0000
  O   O1        1.0  0.15096307500000003  0.41373738999999987  0.561202130471161  1.0000
  Ni  Ni1       1.0  0.136924285  0.50205777  0.5065569167639982  1.0000
  Ni  Ni2       1.0  0.9369242850000001  0.9020577699999999  0.4961324460340717  1.0000
  Ni  Ni3       1.0  0.342308745  0.09705741999999995  0.517886649393506  1.0000
  Ni  Ni4       1.0  0.725329765  0.3139634799999999  0.5362709650050197  1.0000
  Ni  Ni5       1.0  0.5171067949999999  0.69543342  0.5265070480279138  1.0000
  Pt  Pt1       1.0  0.140287025  0.5049224899999999  0.5330239879971052  1.0000
  Pt  Pt2       1.0  0.938883955  0.9029425799999999  0.5227867073657438  1.0000
  Pt  Pt3       1.0  0.336924285  0.10205776999999992  0.4909202137964491  1.0000
  Pt  Pt4       1.0  0.741358605  0.2935728599999999  0.5111858280520976  1.0000
  Pt  Pt5       1.0  0.536924285  0.7020577699999998  0.501344681399035  1.0000
  Ni  Ni6       1.0  0.136924285  0.50205777  0.4544345724963879  1.0000
  Ni  Ni7       1.0  0.9369242850000001  0.9020577699999999  0.4440101048938021  1.0000
  Ni  Ni8       1.0  0.336924285  0.10205776999999992  0.4648590400989737  1.0000
  Ni  Ni9       1.0  0.736924285  0.3020577699999999  0.4857079784314859  1.0000
  Ni  Ni10      1.0  0.536924285  0.7020577699999998  0.4752835108289002  1.0000
  Pt  Pt6       1.0  0.136924285  0.50205777  0.4804957430665227  1.0000
  Pt  Pt7       1.0  0.9369242850000001  0.9020577699999999  0.47007127546393696  1.0000
  Pt  Pt8       1.0  0.336924285  0.10205776999999992  0.43879786952883887  1.0000
  Pt  Pt9       1.0  0.736924285  0.3020577699999999  0.45964680786135115  1.0000
  Pt  Pt10      1.0  0.536924285  0.7020577699999998  0.4492223371314248  1.0000
