data_image0
_chemical_formula_structural       COSb2Ir2Sb2Ir2Sb2Ir2Sb2Ir2Sb2Ir2Sb2Ir2Sb2Ir2Sb2Ir2
_chemical_formula_sum              "C1 O1 Sb16 Ir16"
_cell_length_a       8.160179221575834
_cell_length_b       8.16017922
_cell_length_c       103.74260026
_cell_angle_alpha    90.0
_cell_angle_beta     90.0
_cell_angle_gamma    120.00000007468789

_space_group_name_H-M_alt    "P 1"
_space_group_IT_number       1

loop_
  _space_group_symop_operation_xyz
  'x, y, z'

loop_
  _atom_site_type_symbol
  _atom_site_label
  _atom_site_symmetry_multiplicity
  _atom_site_fract_x
  _atom_site_fract_y
  _atom_site_fract_z
  _atom_site_occupancy
  C   C1        1.0  0.25398073000000004  0.43663940999999995  0.5462417914427322  1.0000
  O   O1        1.0  0.25362000000000007  0.43644449999999996  0.5576248458670262  1.0000
  Sb  Sb1       1.0  0.4186835  0.27601408999999993  0.5104011365172759  1.0000
  Sb  Sb2       1.0  0.06832165000000003  0.06118699999999997  0.5374717096769736  1.0000
  Ir  Ir1       1.0  0.25516682  0.4372429  0.5282959722698604  1.0000
  Ir  Ir2       1.0  0.25622514  0.43776517000000004  0.49658400188096785  1.0000
  Sb  Sb3       1.0  0.42289182000000003  0.27109849999999996  0.4559273668831051  1.0000
  Sb  Sb4       1.0  0.08955848000000002  0.10443182999999996  0.4830317891308366  1.0000
  Ir  Ir3       1.0  0.25622514  0.43776517000000004  0.4694795763807055  1.0000
  Ir  Ir4       1.0  0.25622514  0.43776517000000004  0.44237515413297385  1.0000
  Sb  Sb5       1.0  0.41867727000000005  0.7619642400000001  0.510398339340788  1.0000
  Sb  Sb6       1.0  0.06830848000000003  0.6264411999999999  0.5374727602444219  1.0000
  Ir  Ir5       1.0  0.25835603000000007  0.9388130000000001  0.5231193613399613  1.0000
  Ir  Ir6       1.0  0.25622514  0.93776517  0.49658400188096785  1.0000
  Sb  Sb7       1.0  0.42289182000000003  0.7710985  0.4559273668831051  1.0000
  Sb  Sb8       1.0  0.08955848000000002  0.60443183  0.4830317891308366  1.0000
  Ir  Ir7       1.0  0.25622514  0.93776517  0.4694795763807055  1.0000
  Ir  Ir8       1.0  0.25622514  0.93776517  0.44237515413297385  1.0000
  Sb  Sb9       1.0  0.9316915199999998  0.27549920999999994  0.5103765766572064  1.0000
  Sb  Sb10      1.0  0.5905119999999999  0.10491544999999994  0.5363554378539415  1.0000
  Ir  Ir9       1.0  0.7560649300000001  0.4376272  0.5231319551392183  1.0000
  Ir  Ir10      1.0  0.75622514  0.4377651699999999  0.49658400188096785  1.0000
  Sb  Sb11      1.0  0.9228918199999998  0.2710984999999999  0.4559273668831051  1.0000
  Sb  Sb12      1.0  0.58955848  0.10443183000000002  0.4830317891308366  1.0000
  Ir  Ir11      1.0  0.75622514  0.4377651699999999  0.4694795763807055  1.0000
  Ir  Ir12      1.0  0.75622514  0.4377651699999999  0.44237515413297385  1.0000
  Sb  Sb13      1.0  0.92341329  0.7713597300000001  0.5093099872421416  1.0000
  Sb  Sb14      1.0  0.6312345000000001  0.6252668000000001  0.5375415187455304  1.0000
  Ir  Ir13      1.0  0.75604036  0.93773728  0.5231318478057019  1.0000
  Ir  Ir14      1.0  0.75622514  0.9377651699999999  0.49658400188096785  1.0000
  Sb  Sb15      1.0  0.9228918199999998  0.7710984999999999  0.4559273668831051  1.0000
  Sb  Sb16      1.0  0.58955848  0.6044318300000001  0.4830317891308366  1.0000
  Ir  Ir15      1.0  0.75622514  0.9377651699999999  0.4694795763807055  1.0000
  Ir  Ir16      1.0  0.75622514  0.9377651699999999  0.44237515413297385  1.0000
