data_image0
_chemical_formula_structural       COV8Rh8V8Rh8V8Rh8
_chemical_formula_sum              "C1 O1 V24 Rh24"
_cell_length_a       14.65377449
_cell_length_b       6.484786134809458
_cell_length_c       103.65671728000001
_cell_angle_alpha    64.37312559657606
_cell_angle_beta     90.0
_cell_angle_gamma    68.915063658185

_space_group_name_H-M_alt    "P 1"
_space_group_IT_number       1

loop_
  _space_group_symop_operation_xyz
  'x, y, z'

loop_
  _atom_site_type_symbol
  _atom_site_label
  _atom_site_symmetry_multiplicity
  _atom_site_fract_x
  _atom_site_fract_y
  _atom_site_fract_z
  _atom_site_occupancy
  C   C1        1.0  0.39503034999999986  0.36779293  0.5387363582006364  1.0000
  O   O1        1.0  0.41036895999999995  0.31490178  0.5513289927453104  1.0000
  V   V1        1.0  0.5016619899999999  0.20364599999999994  0.4595872595097473  1.0000
  V   V2        1.0  0.0016619899999999134  0.703646  0.4731161785126612  1.0000
  V   V3        1.0  0.5016619899999998  0.796354  0.4706076995851817  1.0000
  V   V4        1.0  0.001661989999999921  0.29635399999999995  0.4570787838292082  1.0000
  V   V5        1.0  0.7516619899999998  0.453646  0.45282280163176064  1.0000
  V   V6        1.0  0.2516619899999999  0.9536460000000001  0.46635172063467445  1.0000
  V   V7        1.0  0.7516619899999998  0.046353999999999965  0.463843241707195  1.0000
  V   V8        1.0  0.2516619899999999  0.546354  0.4503143227042811  1.0000
  Rh  Rh1       1.0  0.8587494199999997  0.64291257  0.4612305749593388  1.0000
  Rh  Rh2       1.0  0.35874941999999993  0.14291256999999993  0.4747594939622526  1.0000
  Rh  Rh3       1.0  0.6445745599999998  0.85708743  0.45543546837961674  1.0000
  Rh  Rh4       1.0  0.14457455999999988  0.35708742999999993  0.46896438413559033  1.0000
  Rh  Rh5       1.0  0.6087494199999998  0.39291257  0.4679950360842659  1.0000
  Rh  Rh6       1.0  0.10874941999999989  0.89291257  0.45446611708135204  1.0000
  Rh  Rh7       1.0  0.8945745599999999  0.10708742999999996  0.4486710072546898  1.0000
  Rh  Rh8       1.0  0.3945745599999999  0.60708743  0.4621999262576036  1.0000
  V   V9        1.0  0.5016619899999999  0.20364599999999994  0.486645097515575  1.0000
  V   V10       1.0  0.0034200399999999094  0.69786237  0.5003112452033679  1.0000
  V   V11       1.0  0.5016619899999998  0.796354  0.4976655375910094  1.0000
  V   V12       1.0  0.001661989999999921  0.29635399999999995  0.48413661858809554  1.0000
  V   V13       1.0  0.7516619899999998  0.453646  0.47988063639064793  1.0000
  V   V14       1.0  0.2516619899999999  0.9536460000000001  0.49340955539356174  1.0000
  V   V15       1.0  0.7516619899999998  0.046353999999999965  0.4909010764660823  1.0000
  V   V16       1.0  0.2516619899999999  0.546354  0.47737216071010874  1.0000
  Rh  Rh9       1.0  0.8587494199999997  0.64291257  0.48828841296516645  1.0000
  Rh  Rh10      1.0  0.35431135999999996  0.13756207999999995  0.5020940914185119  1.0000
  Rh  Rh11      1.0  0.6445745599999998  0.85708743  0.48249330313850414  1.0000
  Rh  Rh12      1.0  0.14457455999999988  0.35708742999999993  0.496022222141418  1.0000
  Rh  Rh13      1.0  0.6087494199999998  0.39291257  0.4950528708431532  1.0000
  Rh  Rh14      1.0  0.10874941999999989  0.89291257  0.48152395184023944  1.0000
  Rh  Rh15      1.0  0.8945745599999999  0.10708742999999996  0.47572884526051734  1.0000
  Rh  Rh16      1.0  0.3945745599999999  0.60708743  0.4892577610164909  1.0000
  V   V17       1.0  0.4961053399999999  0.23335217999999996  0.5134447290878507  1.0000
  V   V18       1.0  0.005161249999999909  0.66909604  0.5231508856560301  1.0000
  V   V19       1.0  0.4993779799999999  0.83606353  0.5224078785661441  1.0000
  V   V20       1.0  0.9983380099999999  0.29644648999999995  0.5119699006174155  1.0000
  V   V21       1.0  0.7547471399999998  0.45779246  0.5075720758329212  1.0000
  V   V22       1.0  0.23839849999999996  0.9523196399999999  0.5187377840174199  1.0000
  V   V23       1.0  0.7437340999999998  0.06493990999999998  0.5164644095432511  1.0000
  V   V24       1.0  0.25200904999999996  0.54617512  0.5050396312390806  1.0000
  Rh  Rh17      1.0  0.8509676499999999  0.66671107  0.514071485974142  1.0000
  Rh  Rh18      1.0  0.36563574999999987  0.18619402999999995  0.5280899266845873  1.0000
  Rh  Rh19      1.0  0.6365602499999998  0.8741403300000001  0.5098716628561395  1.0000
  Rh  Rh20      1.0  0.1574806299999999  0.34195323999999994  0.5222451646468429  1.0000
  Rh  Rh21      1.0  0.6115721499999998  0.40693485  0.5206140706805442  1.0000
  Rh  Rh22      1.0  0.10183293999999984  0.9119599900000002  0.5083677385536676  1.0000
  Rh  Rh23      1.0  0.89174871  0.11596813999999994  0.5034463803619893  1.0000
  Rh  Rh24      1.0  0.3901180099999999  0.61998184  0.5181941358150716  1.0000
