data_image0
_chemical_formula_structural       COFe12Si6Fe12Si6
_chemical_formula_sum              "C1 O1 Fe24 Si12"
_cell_length_a       4.83352646
_cell_length_b       10.383072003220914
_cell_length_c       101.39545871
_cell_angle_alpha    79.10660534500872
_cell_angle_beta     90.0
_cell_angle_gamma    90.0

_space_group_name_H-M_alt    "P 1"
_space_group_IT_number       1

loop_
  _space_group_symop_operation_xyz
  'x, y, z'

loop_
  _atom_site_type_symbol
  _atom_site_label
  _atom_site_symmetry_multiplicity
  _atom_site_fract_x
  _atom_site_fract_y
  _atom_site_fract_z
  _atom_site_occupancy
  C   C1        1.0  0.2646296050000001  0.2510018949999999  0.5387537741924247  1.0000
  O   O1        1.0  0.27180982500000006  0.22870471499999995  0.5505477216090398  1.0000
  Fe  Fe1       1.0  0.32952200500000006  0.6111111149999999  0.4537527478406806  1.0000
  Fe  Fe2       1.0  0.32952200500000006  0.27777777499999995  0.47955556453900244  1.0000
  Fe  Fe3       1.0  0.32952200500000006  0.9444444450000001  0.4666541561898415  1.0000
  Fe  Fe4       1.0  0.6875997650000001  0.8333333350000001  0.44945227839096025  1.0000
  Fe  Fe5       1.0  0.6875997650000001  0.499999995  0.4752550950892821  1.0000
  Fe  Fe6       1.0  0.6875997650000001  0.16666666499999996  0.46235368674012123  1.0000
  Fe  Fe7       1.0  0.5085608850000001  0.722222225  0.4709546256395618  1.0000
  Fe  Fe8       1.0  0.5085608850000001  0.38888888499999996  0.4580532172904009  1.0000
  Fe  Fe9       1.0  0.5085608850000001  0.05555555499999996  0.4838560339887228  1.0000
  Fe  Fe10      1.0  0.00856088500000005  0.722222225  0.4709546256395618  1.0000
  Fe  Fe11      1.0  0.00856088500000005  0.38888888499999996  0.4580532172904009  1.0000
  Fe  Fe12      1.0  0.00856088500000005  0.05555555499999996  0.4838560339887228  1.0000
  Si  Si1       1.0  0.18987926500000005  0.8333333350000001  0.44945227839096025  1.0000
  Si  Si2       1.0  0.18987926500000005  0.499999995  0.4752550950892821  1.0000
  Si  Si3       1.0  0.18987926500000005  0.16666666499999996  0.46235368674012123  1.0000
  Si  Si4       1.0  0.8272425050000001  0.6111111149999999  0.4537527478406806  1.0000
  Si  Si5       1.0  0.8272425050000001  0.27777777499999995  0.47955556453900244  1.0000
  Si  Si6       1.0  0.8272425050000001  0.9444444450000001  0.4666541561898415  1.0000
  Fe  Fe13      1.0  0.3492503050000001  0.611704375  0.4921757294334399  1.0000
  Fe  Fe14      1.0  0.2604248250000001  0.29020853499999993  0.520922246821829  1.0000
  Fe  Fe15      1.0  0.28321507500000004  0.937152775  0.5067165371562921  1.0000
  Fe  Fe16      1.0  0.6875997650000001  0.8333333350000001  0.4881565003421054  1.0000
  Fe  Fe17      1.0  0.6945092350000001  0.506624635  0.5133039276129462  1.0000
  Fe  Fe18      1.0  0.6924235850000001  0.16489438499999998  0.4997929091900282  1.0000
  Fe  Fe19      1.0  0.49163408500000005  0.725606685  0.5095844364017524  1.0000
  Fe  Fe20      1.0  0.5061970250000001  0.37818491499999995  0.49871415750115694  1.0000
  Fe  Fe21      1.0  0.49050259500000004  0.07956725499999996  0.5194109584227959  1.0000
  Fe  Fe22      1.0  0.991439115  0.720300005  0.5081890748883076  1.0000
  Fe  Fe23      1.0  0.01397398500000005  0.39041525499999996  0.49636473072394083  1.0000
  Fe  Fe24      1.0  0.9810212650000001  0.07598202499999995  0.5196331392348221  1.0000
  Si  Si7       1.0  0.18987926500000005  0.8333333350000001  0.4881565003421054  1.0000
  Si  Si8       1.0  0.20474553500000003  0.518107585  0.5143196905028453  1.0000
  Si  Si9       1.0  0.20142937500000005  0.17412326499999997  0.5006985322496055  1.0000
  Si  Si10      1.0  0.8350022750000001  0.608282515  0.4919777743680173  1.0000
  Si  Si11      1.0  0.7640332650000001  0.280673295  0.5184275522624481  1.0000
  Si  Si12      1.0  0.7770057850000001  0.921423955  0.508582108521377  1.0000
