data_image0
_chemical_formula_structural       COAl6Fe2Al6Fe2
_chemical_formula_sum              "C1 O1 Al12 Fe4"
_cell_length_a       5.4040065
_cell_length_b       5.404006498946713
_cell_length_c       100.78231181
_cell_angle_alpha    90.0
_cell_angle_beta     90.0
_cell_angle_gamma    120.00000000644754

_space_group_name_H-M_alt    "P 1"
_space_group_IT_number       1

loop_
  _space_group_symop_operation_xyz
  'x, y, z'

loop_
  _atom_site_type_symbol
  _atom_site_label
  _atom_site_symmetry_multiplicity
  _atom_site_fract_x
  _atom_site_fract_y
  _atom_site_fract_z
  _atom_site_occupancy
  C   C1        1.0  0.828405415  0.660727225  0.5385290240136391  1.0000
  O   O1        1.0  0.8225079050000002  0.648948105  0.5500633999130782  1.0000
  Al  Al1       1.0  0.17000383500000008  0.34390976500000003  0.44993660008692193  1.0000
  Al  Al2       1.0  0.656093885  0.829999815  0.44993660008692193  1.0000
  Al  Al3       1.0  0.17000383500000005  0.829999815  0.44993660008692193  1.0000
  Al  Al4       1.0  0.827397195  0.658696505  0.4717532906786954  1.0000
  Al  Al5       1.0  0.3413071450000001  0.172606455  0.4717532906786954  1.0000
  Al  Al6       1.0  0.827397195  0.172606455  0.4717532906786954  1.0000
  Fe  Fe1       1.0  0.332033845  0.6679698049999999  0.4717532906786954  1.0000
  Fe  Fe2       1.0  0.665367185  0.334636465  0.44993660008692193  1.0000
  Al  Al7       1.0  0.16819296500000003  0.34028785500000003  0.49331008470259075  1.0000
  Al  Al8       1.0  0.6586636650000001  0.830466825  0.49334688029734497  1.0000
  Al  Al9       1.0  0.16790278500000005  0.8304674049999999  0.4933468650256613  1.0000
  Al  Al10      1.0  0.8320972149999998  0.6680825649999999  0.51820142948632  1.0000
  Al  Al11      1.0  0.3348499550000001  0.16953903499999998  0.5165348123159713  1.0000
  Al  Al12      1.0  0.830786015  0.16953259499999998  0.516535114695309  1.0000
  Fe  Fe3       1.0  0.33140342500000003  0.6667054450000001  0.5125185946816261  1.0000
  Fe  Fe4       1.0  0.667082005  0.33806366499999996  0.49497532436706787  1.0000
