data_image0
_chemical_formula_structural       COAl18Fe6Al18Fe6
_chemical_formula_sum              "C1 O1 Al36 Fe12"
_cell_length_a       5.4040064946032125
_cell_length_b       10.322517399626967
_cell_length_c       111.80284699
_cell_angle_alpha    70.4433400360227
_cell_angle_beta     67.18102016557802
_cell_angle_gamma    74.82558873059759

_space_group_name_H-M_alt    "P 1"
_space_group_IT_number       1

loop_
  _space_group_symop_operation_xyz
  'x, y, z'

loop_
  _atom_site_type_symbol
  _atom_site_label
  _atom_site_symmetry_multiplicity
  _atom_site_fract_x
  _atom_site_fract_y
  _atom_site_fract_z
  _atom_site_occupancy
  C   C1        1.0  0.7202474200000002  0.41817394  0.5553909624576383  1.0000
  O   O1        1.0  0.6364110300000001  0.37698607  0.5672628182486307  1.0000
  Al  Al1       1.0  0.14507109000000012  0.019036030000000027  0.4365844488114264  1.0000
  Al  Al2       1.0  0.81173775  0.35236936  0.4573565546803538  1.0000
  Al  Al3       1.0  0.4784044200000001  0.6857026900000001  0.4781286605492811  1.0000
  Al  Al4       1.0  0.3071011100000001  0.85700601  0.456778676818521  1.0000
  Al  Al5       1.0  0.97376777  0.19033934000000002  0.47755078268744844  1.0000
  Al  Al6       1.0  0.6404344400000002  0.52367268  0.43600657094959366  1.0000
  Al  Al7       1.0  0.6311611400000001  0.019036030000000027  0.43658444881142644  1.0000
  Al  Al8       1.0  0.2978278100000001  0.35236936  0.4573565546803538  1.0000
  Al  Al9       1.0  0.96449448  0.6857026900000001  0.47812866054928105  1.0000
  Al  Al10      1.0  0.8549289100000002  0.9665715699999999  0.4742813897502452  1.0000
  Al  Al11      1.0  0.5215955800000002  0.29990491  0.43273718175136916  1.0000
  Al  Al12      1.0  0.18826225000000013  0.6332382400000001  0.4535092838813177  1.0000
  Al  Al13      1.0  0.6928988900000002  0.12860159000000004  0.45408716174315056  1.0000
  Al  Al14      1.0  0.35956556000000006  0.46193491999999997  0.47485926761207786  1.0000
  Al  Al15      1.0  0.026232230000000068  0.7952682600000001  0.43331505961320194  1.0000
  Al  Al16      1.0  0.3688388600000002  0.9665715699999999  0.47428138975024514  1.0000
  Al  Al17      1.0  0.03550552000000011  0.29990491  0.43273718175136916  1.0000
  Al  Al18      1.0  0.7021721900000001  0.6332382400000001  0.4535092838813178  1.0000
  Fe  Fe1       1.0  0.19444444000000013  0.13169269  0.4537019123279145  1.0000
  Fe  Fe2       1.0  0.8611111099999998  0.46502602000000004  0.47447401445786314  1.0000
  Fe  Fe3       1.0  0.5277777800000001  0.79835936  0.4329298064589872  1.0000
  Fe  Fe4       1.0  0.8055555600000003  0.8539149099999997  0.45716392997273575  1.0000
  Fe  Fe5       1.0  0.47222222000000014  0.18724824  0.47793603210268437  1.0000
  Fe  Fe6       1.0  0.13888889000000007  0.52058158  0.43639182410380845  1.0000
  Al  Al19      1.0  0.14507109000000012  0.019036030000000027  0.49890076267922967  1.0000
  Al  Al20      1.0  0.8073091100000002  0.35762097000000004  0.5196979234448097  1.0000
  Al  Al21      1.0  0.46060576000000003  0.68352626  0.5410894098397756  1.0000
  Al  Al22      1.0  0.2899952400000001  0.8714720999999999  0.5202692431379021  1.0000
  Al  Al23      1.0  0.94186125  0.21664886000000003  0.5418909721057631  1.0000
  Al  Al24      1.0  0.6404344400000002  0.52367268  0.49832288481739684  1.0000
  Al  Al25      1.0  0.6311611400000001  0.019036030000000027  0.49890076267922967  1.0000
  Al  Al26      1.0  0.29327665000000014  0.35822897000000004  0.5196926103559955  1.0000
  Al  Al27      1.0  0.9734509199999999  0.68239717  0.5411489904662731  1.0000
  Al  Al28      1.0  0.8367132800000001  0.9809121099999999  0.5387535277289046  1.0000
  Al  Al29      1.0  0.5215955800000002  0.29990491  0.49505349188019365  1.0000
  Al  Al30      1.0  0.1900822300000001  0.64189155  0.5159884975756186  1.0000
  Al  Al31      1.0  0.6968738200000001  0.11893224000000004  0.5164579188806387  1.0000
  Al  Al32      1.0  0.3544270900000001  0.44004406  0.5390333715939939  1.0000
  Al  Al33      1.0  0.026232230000000068  0.7952682600000001  0.49563136974202643  1.0000
  Al  Al34      1.0  0.33522722000000016  0.9809639699999998  0.5387331315997836  1.0000
  Al  Al35      1.0  0.03550552000000011  0.29990491  0.49505349188019365  1.0000
  Al  Al36      1.0  0.6895312600000001  0.64154824  0.5160030160301331  1.0000
  Fe  Fe7       1.0  0.1912675800000001  0.14690910000000001  0.5155067899864021  1.0000
  Fe  Fe8       1.0  0.8406218300000001  0.48585181999999993  0.5377688302833851  1.0000
  Fe  Fe9       1.0  0.5277777800000001  0.79835936  0.4952461203267905  1.0000
  Fe  Fe10      1.0  0.7845225900000001  0.8396596999999999  0.523040503152208  1.0000
  Fe  Fe11      1.0  0.49742593000000007  0.19147725000000002  0.5365462216195392  1.0000
  Fe  Fe12      1.0  0.13888889000000007  0.52058158  0.4987081379716117  1.0000
