data_image0
_chemical_formula_structural       COGa3Ni3Ga3Ni3Ga3Ni3Ga3Ni3
_chemical_formula_sum              "C1 O1 Ga12 Ni12"
_cell_length_a       5.88603578
_cell_length_b       6.580788060493059
_cell_length_c       103.29644651000001
_cell_angle_alpha    71.56505114954554
_cell_angle_beta     90.0
_cell_angle_gamma    90.0

_space_group_name_H-M_alt    "P 1"
_space_group_IT_number       1

loop_
  _space_group_symop_operation_xyz
  'x, y, z'

loop_
  _atom_site_type_symbol
  _atom_site_label
  _atom_site_symmetry_multiplicity
  _atom_site_fract_x
  _atom_site_fract_y
  _atom_site_fract_z
  _atom_site_occupancy
  C   C1        1.0  0.3761580199999999  0.88689428  0.5392349200461122  1.0000
  O   O1        1.0  0.3760426499999999  0.81339086  0.5512866562740655  1.0000
  Ga  Ga1       1.0  0.1261937  0.6786524100000001  0.46885951503371087  1.0000
  Ga  Ga2       1.0  0.1261937  0.34531907  0.4554287330873976  1.0000
  Ga  Ga3       1.0  0.1261937  0.011985740000000038  0.4822902937566367  1.0000
  Ni  Ni1       1.0  0.37619369999999996  0.6786524100000001  0.44871334372593463  1.0000
  Ni  Ni2       1.0  0.37619369999999996  0.34531907  0.4755749043951738  1.0000
  Ni  Ni3       1.0  0.37619369999999996  0.011985740000000038  0.46214412244886044  1.0000
  Ga  Ga4       1.0  0.13008381  0.6733586  0.5113737740477168  1.0000
  Ga  Ga5       1.0  0.1238063  0.34325543000000003  0.4951404920563465  1.0000
  Ga  Ga6       1.0  0.12698489999999998  0.04202775000000004  0.5230062668390616  1.0000
  Ni  Ni4       1.0  0.37619369999999996  0.6786524100000001  0.489005686341487  1.0000
  Ni  Ni5       1.0  0.37623137  0.3649185  0.5129466130405078  1.0000
  Ni  Ni6       1.0  0.37622844999999994  0.010749760000000037  0.5023941838917658  1.0000
  Ga  Ga7       1.0  0.6261937  0.6786524100000001  0.46885951503371087  1.0000
  Ga  Ga8       1.0  0.6261937  0.34531907  0.4554287330873976  1.0000
  Ga  Ga9       1.0  0.6261937  0.011985740000000038  0.4822902937566367  1.0000
  Ni  Ni7       1.0  0.8761937  0.6786524100000001  0.44871334372593463  1.0000
  Ni  Ni8       1.0  0.8761937  0.34531907  0.4755749043951738  1.0000
  Ni  Ni9       1.0  0.8761937  0.011985740000000038  0.46214412244886044  1.0000
  Ga  Ga10      1.0  0.6224354599999999  0.6733362300000001  0.5113857843892036  1.0000
  Ga  Ga11      1.0  0.62882448  0.34321619999999997  0.49513622106802935  1.0000
  Ga  Ga12      1.0  0.6254614799999999  0.041833910000000044  0.5230135162373449  1.0000
  Ni  Ni10      1.0  0.8761937  0.6786524100000001  0.489005686341487  1.0000
  Ni  Ni11      1.0  0.8761222499999999  0.36093516999999997  0.513954633974514  1.0000
  Ni  Ni12      1.0  0.87614602  0.98925024  0.5035797554510482  1.0000
