data_image0
_chemical_formula_structural       CONi8V24
_chemical_formula_sum              "C1 O1 Ni8 V24"
_cell_length_a       6.61841302
_cell_length_b       8.105867405607103
_cell_length_c       39.31168128
_cell_angle_alpha    84.94884747469425
_cell_angle_beta     90.0
_cell_angle_gamma    90.0

_space_group_name_H-M_alt    "P 1"
_space_group_IT_number       1

loop_
  _space_group_symop_operation_xyz
  'x, y, z'

loop_
  _atom_site_type_symbol
  _atom_site_label
  _atom_site_symmetry_multiplicity
  _atom_site_fract_x
  _atom_site_fract_y
  _atom_site_fract_z
  _atom_site_occupancy
  C   C1        1.0  0.8291190099999999  0.47943652000000003  0.5935302674684818  1.0000
  O   O1        1.0  0.9015752100000001  0.42829943000000004  0.6199841452290253  1.0000
  Ni  Ni1       1.0  0.058420279999999984  0.5238198999999999  0.4763423439501933  1.0000
  Ni  Ni2       1.0  0.55981433  0.20923433000000002  0.42880593083866525  1.0000
  Ni  Ni3       1.0  0.059814329999999985  0.8967343299999999  0.3800158547709749  1.0000
  Ni  Ni4       1.0  0.54286952  0.83821372  0.5259978466775541  1.0000
  Ni  Ni5       1.0  0.059814329999999985  0.39673433  0.38001585477097494  1.0000
  Ni  Ni6       1.0  0.55906693  0.33830575  0.5269810799032946  1.0000
  Ni  Ni7       1.0  0.06151584999999998  0.025140670000000014  0.47588341278508234  1.0000
  Ni  Ni8       1.0  0.55981433  0.7092343299999999  0.42880593083866525  1.0000
  V   V1        1.0  0.94157972  0.7689745699999999  0.512898663635664  1.0000
  V   V2        1.0  0.43481433  0.44360933  0.465398487889433  1.0000
  V   V3        1.0  0.93481433  0.13110933000000002  0.41660841182174274  1.0000
  V   V4        1.0  0.4277093  0.08944152999999999  0.5516626991343432  1.0000
  V   V5        1.0  0.68466832  0.60167247  0.4892324556613241  1.0000
  V   V6        1.0  0.18481432999999997  0.28735933  0.4410034498555879  1.0000
  V   V7        1.0  0.6848143299999999  0.9748593299999999  0.3922133737878975  1.0000
  V   V8        1.0  0.17899830999999997  0.91423671  0.5376006966345392  1.0000
  V   V9        1.0  0.29100948  0.5731229600000001  0.5232211292876263  1.0000
  V   V10       1.0  0.80956892  0.2742753  0.47743075296711135  1.0000
  V   V11       1.0  0.30981432999999997  0.9592343299999999  0.42880593083866525  1.0000
  V   V12       1.0  0.80981433  0.6467343299999999  0.3800158547709749  1.0000
  V   V13       1.0  0.30785967999999997  0.7750949199999999  0.47693972964156617  1.0000
  V   V14       1.0  0.80981433  0.45923433  0.42880593083866525  1.0000
  V   V15       1.0  0.30981432999999997  0.14673433000000002  0.38001585477097494  1.0000
  V   V16       1.0  0.81972298  0.07928161000000002  0.5245458930458405  1.0000
  V   V17       1.0  0.91853587  0.42240217  0.5377249669098869  1.0000
  V   V18       1.0  0.43421970000000004  0.10515716000000001  0.4881212206952186  1.0000
  V   V19       1.0  0.93481433  0.78735933  0.4410034498555878  1.0000
  V   V20       1.0  0.43481433  0.47485932999999997  0.3922133737878975  1.0000
  V   V21       1.0  0.16959228999999998  0.25753229  0.5140946450122962  1.0000
  V   V22       1.0  0.6848143299999999  0.9436093299999999  0.465398487889433  1.0000
  V   V23       1.0  0.18481432999999997  0.6311093299999999  0.41660841182174274  1.0000
  V   V24       1.0  0.67124919  0.5887213800000001  0.5545335228229904  1.0000
