data_image0
_chemical_formula_structural       COGa4Pt12
_chemical_formula_sum              "C1 O1 Ga4 Pt12"
_cell_length_a       5.616091370232561
_cell_length_b       5.61609137
_cell_length_c       101.58837673
_cell_angle_alpha    90.0
_cell_angle_beta     90.0
_cell_angle_gamma    90.65113771739082

_space_group_name_H-M_alt    "P 1"
_space_group_IT_number       1

loop_
  _space_group_symop_operation_xyz
  'x, y, z'

loop_
  _atom_site_type_symbol
  _atom_site_label
  _atom_site_symmetry_multiplicity
  _atom_site_fract_x
  _atom_site_fract_y
  _atom_site_fract_z
  _atom_site_occupancy
  C   C1        1.0  0.6560037200000001  0.49168313500000005  0.535153711161239  1.0000
  O   O1        1.0  0.6432696499999999  0.4796828050000001  0.5466031306369886  1.0000
  Ga  Ga1       1.0  0.14263828  0.486294015  0.5134690836397006  1.0000
  Ga  Ga2       1.0  0.6452529199999999  0.9812158049999999  0.47575134037560335  1.0000
  Ga  Ga3       1.0  0.6494248499999999  0.977759685  0.5134674418511957  1.0000
  Ga  Ga4       1.0  0.14525292  0.4812158050000001  0.47575134037560335  1.0000
  Pt  Pt1       1.0  0.39525292  0.231215805  0.4533968693630113  1.0000
  Pt  Pt2       1.0  0.8892668799999999  0.725078185  0.4924076703281219  1.0000
  Pt  Pt3       1.0  0.18282131  0.018784194999999986  0.47575134037560335  1.0000
  Pt  Pt4       1.0  0.68409827  0.518676895  0.5167993894326849  1.0000
  Pt  Pt5       1.0  0.10474707999999999  0.9417565250000002  0.5139350313019212  1.0000
  Pt  Pt6       1.0  0.60768453  0.44364741500000004  0.47575134037560335  1.0000
  Pt  Pt7       1.0  0.8952529199999999  0.731215805  0.4592377154261877  1.0000
  Pt  Pt8       1.0  0.39662807  0.23287137500000002  0.4986661898744722  1.0000
  Pt  Pt9       1.0  0.8952529199999999  0.231215805  0.45631729083987554  1.0000
  Pt  Pt10      1.0  0.39773535000000004  0.7280686949999998  0.4950516867599733  1.0000
  Pt  Pt11      1.0  0.8916698799999998  0.233636315  0.4950166370629546  1.0000
  Pt  Pt12      1.0  0.39525292  0.7312158049999998  0.45631729083987554  1.0000
