data_image0
_chemical_formula_structural       COCo4Sb8Co4Sb8
_chemical_formula_sum              "C1 O1 Co8 Sb16"
_cell_length_a       6.46622376
_cell_length_b       6.617924286567671
_cell_length_c       30.292454300000003
_cell_angle_alpha    117.7278481760437
_cell_angle_beta     90.0
_cell_angle_gamma    90.0

_space_group_name_H-M_alt    "P 1"
_space_group_IT_number       1

loop_
  _space_group_symop_operation_xyz
  'x, y, z'

loop_
  _atom_site_type_symbol
  _atom_site_label
  _atom_site_symmetry_multiplicity
  _atom_site_fract_x
  _atom_site_fract_y
  _atom_site_fract_z
  _atom_site_occupancy
  C   C1        1.0  0.8631785650000001  0.908860245  0.753314743682668  1.0000
  O   O1        1.0  0.8086104350000001  0.774791875  0.7648048932417266  1.0000
  Co  Co1       1.0  0.06836655500000004  0.5491093149999999  0.5652662217639682  1.0000
  Co  Co2       1.0  0.06652576500000003  0.049152234999999996  0.45366285949139573  1.0000
  Co  Co3       1.0  0.5665257650000001  0.549152235  0.45366285949139573  1.0000
  Co  Co4       1.0  0.5628010850000001  0.049281454999999995  0.5652291390483608  1.0000
  Sb  Sb1       1.0  0.697813055  0.454770735  0.5890796170549857  1.0000
  Sb  Sb2       1.0  0.7096837650000001  0.9486253450000001  0.47562474061503046  1.0000
  Sb  Sb3       1.0  0.3496540250000001  0.128042035  0.6445825457300619  1.0000
  Sb  Sb4       1.0  0.42336776500000006  0.649679125  0.5409348481802899  1.0000
  Sb  Sb5       1.0  0.923367765  0.448625345  0.47562474061503046  1.0000
  Sb  Sb6       1.0  0.9334742349999999  0.9508477649999999  0.5867281350761174  1.0000
  Sb  Sb7       1.0  0.29803609500000006  0.684675755  0.6462501537468723  1.0000
  Sb  Sb8       1.0  0.20968376500000002  0.14967912499999997  0.5409348481802899  1.0000
  Co  Co5       1.0  0.06652576500000003  0.549152235  0.3444289896788668  1.0000
  Co  Co6       1.0  0.06652576500000003  0.049152234999999996  0.23519510675827318  1.0000
  Co  Co7       1.0  0.5665257650000001  0.549152235  0.23519510675827313  1.0000
  Co  Co8       1.0  0.5665257650000001  0.049152234999999996  0.3444289896788668  1.0000
  Sb  Sb9       1.0  0.7096837650000001  0.448625345  0.36639087080250154  1.0000
  Sb  Sb10      1.0  0.7096837650000001  0.9486253450000001  0.25715698788190783  1.0000
  Sb  Sb11      1.0  0.42336776500000006  0.14967912499999997  0.4317009783677612  1.0000
  Sb  Sb12      1.0  0.42336776500000006  0.649679125  0.3224670954471673  1.0000
  Sb  Sb13      1.0  0.923367765  0.448625345  0.25715698788190783  1.0000
  Sb  Sb14      1.0  0.923367765  0.9486253450000001  0.36639087080250154  1.0000
  Sb  Sb15      1.0  0.20968376500000002  0.649679125  0.4317009783677612  1.0000
  Sb  Sb16      1.0  0.20968376500000002  0.14967912499999997  0.3224670954471674  1.0000
