data_image0
_chemical_formula_structural       CONi24Pt8
_chemical_formula_sum              "C1 O1 Ni24 Pt8"
_cell_length_a       5.19340716
_cell_length_b       6.36059878
_cell_length_c       105.98098026
_cell_angle_alpha    90.0
_cell_angle_beta     90.0
_cell_angle_gamma    90.0

_space_group_name_H-M_alt    "P 1"
_space_group_IT_number       1

loop_
  _space_group_symop_operation_xyz
  'x, y, z'

loop_
  _atom_site_type_symbol
  _atom_site_label
  _atom_site_symmetry_multiplicity
  _atom_site_fract_x
  _atom_site_fract_y
  _atom_site_fract_z
  _atom_site_occupancy
  C   C1        1.0  0.14463544  0.79546263  0.5566044571748121  1.0000
  O   O1        1.0  0.16219488  0.7737857899999998  0.5675107353048487  1.0000
  Ni  Ni1       1.0  0.3729921  0.49740703000000003  0.4466352711492524  1.0000
  Ni  Ni2       1.0  0.8729920999999999  0.16407369  0.4607812742083124  1.0000
  Ni  Ni3       1.0  0.3729921  0.8307403599999998  0.47492728066241363  1.0000
  Ni  Ni4       1.0  0.8729920999999999  0.8307403599999998  0.4324892646951512  1.0000
  Ni  Ni5       1.0  0.1229921  0.16407369  0.43956226622468114  1.0000
  Ni  Ni6       1.0  0.6229920999999999  0.8307403599999998  0.45370827267878244  1.0000
  Ni  Ni7       1.0  0.1229921  0.49740703000000003  0.46785427913288363  1.0000
  Ni  Ni8       1.0  0.6229920999999999  0.16407369  0.4820002821919436  1.0000
  Ni  Ni9       1.0  0.8729920999999999  0.49740703000000003  0.4466352711492524  1.0000
  Ni  Ni10      1.0  0.3729921  0.16407369  0.4607812742083124  1.0000
  Ni  Ni11      1.0  0.8729920999999999  0.8307403599999998  0.47492728066241363  1.0000
  Ni  Ni12      1.0  0.3729921  0.8307403599999998  0.4324892646951512  1.0000
  Ni  Ni13      1.0  0.3729921  0.16407369  0.5032192901755748  1.0000
  Ni  Ni14      1.0  0.8794623100000001  0.8365583799999999  0.5174635423341608  1.0000
  Ni  Ni15      1.0  0.37515874  0.49558793  0.5308967021563742  1.0000
  Ni  Ni16      1.0  0.8729920999999999  0.49740703000000003  0.4890732871165148  1.0000
  Ni  Ni17      1.0  0.1229921  0.8307403599999998  0.4961462886460448  1.0000
  Ni  Ni18      1.0  0.62231069  0.49792904999999993  0.5102198279440803  1.0000
  Ni  Ni19      1.0  0.12146100999999998  0.16344162  0.5247998666602058  1.0000
  Ni  Ni20      1.0  0.62132683  0.81550444  0.5367177856099112  1.0000
  Ni  Ni21      1.0  0.8729920999999999  0.16407369  0.5032192901755748  1.0000
  Ni  Ni22      1.0  0.36680683  0.8362900999999998  0.5173340249044701  1.0000
  Ni  Ni23      1.0  0.86534418  0.49540270000000003  0.5309474274680995  1.0000
  Ni  Ni24      1.0  0.3729921  0.49740703000000003  0.4890732871165148  1.0000
  Pt  Pt1       1.0  0.1229921  0.16407369  0.4820002821919436  1.0000
  Pt  Pt2       1.0  0.6229920999999999  0.16407369  0.43956226622468114  1.0000
  Pt  Pt3       1.0  0.1229921  0.8307403599999998  0.45370827267878244  1.0000
  Pt  Pt4       1.0  0.6229920999999999  0.49740703000000003  0.46785427913288363  1.0000
  Pt  Pt5       1.0  0.12053769  0.8237621199999998  0.5391533542718915  1.0000
  Pt  Pt6       1.0  0.6229920999999999  0.8307403599999998  0.4961462886460448  1.0000
  Pt  Pt7       1.0  0.12198665999999998  0.49712872  0.5101119097669962  1.0000
  Pt  Pt8       1.0  0.6210510699999999  0.16538356  0.5250730622367554  1.0000
