data_image0
_chemical_formula_structural       COAl24W6
_chemical_formula_sum              "C1 O1 Al24 W6"
_cell_length_a       10.4510087601495
_cell_length_b       5.2797412878809356
_cell_length_c       101.39464999
_cell_angle_alpha    88.67689080555645
_cell_angle_beta     85.7184855704351
_cell_angle_gamma    99.52219281142197

_space_group_name_H-M_alt    "P 1"
_space_group_IT_number       1

loop_
  _space_group_symop_operation_xyz
  'x, y, z'

loop_
  _atom_site_type_symbol
  _atom_site_label
  _atom_site_symmetry_multiplicity
  _atom_site_fract_x
  _atom_site_fract_y
  _atom_site_fract_z
  _atom_site_occupancy
  C   C1        1.0  0.11029195000000001  0.22171745500000004  0.5378183374001663  1.0000
  O   O1        1.0  0.0937224  0.223982915  0.5495838958117261  1.0000
  Al  Al1       1.0  0.008855600000000009  0.5387831650000001  0.4786462294180868  1.0000
  Al  Al2       1.0  0.19120411  0.3632927650000001  0.45041610418827377  1.0000
  Al  Al3       1.0  0.16821883000000004  0.10712394500000008  0.4777794467522343  1.0000
  Al  Al4       1.0  0.9485554500000001  0.04122492500000006  0.4641766470792861  1.0000
  Al  Al5       1.0  0.37823003999999993  0.12180634500000007  0.458080924127596  1.0000
  Al  Al6       1.0  0.75460754  0.7347195950000001  0.4813883469112963  1.0000
  Al  Al7       1.0  0.26977988999999997  0.639507925  0.47649049832635826  1.0000
  Al  Al8       1.0  0.9169232599999999  0.533650935  0.4546396195581264  1.0000
  Al  Al9       1.0  0.6507382599999999  0.40530040500000003  0.4520454145854315  1.0000
  Al  Al10      1.0  0.6935119  0.918132505  0.45469420082943396  1.0000
  Al  Al11      1.0  0.5262703  0.928680685  0.4759143575243075  1.0000
  Al  Al12      1.0  0.52660093  0.42877987500000014  0.47593483324175456  1.0000
  Al  Al13      1.0  0.7151618  0.227455475  0.5215770806822785  1.0000
  Al  Al14      1.0  0.90548983  0.07757847500000006  0.49464871319984144  1.0000
  Al  Al15      1.0  0.8964777  0.8563073449999999  0.5218976481183054  1.0000
  Al  Al16      1.0  0.6649969499999999  0.7507261350000001  0.5095174001851703  1.0000
  Al  Al17      1.0  0.09566729  0.837417025  0.5023295099578583  1.0000
  Al  Al18      1.0  0.47062945999999994  0.449083815  0.5247511327074073  1.0000
  Al  Al19      1.0  0.9911444  0.36266820500000013  0.5212169489460038  1.0000
  Al  Al20      1.0  0.6275330899999999  0.242216655  0.49831287581240336  1.0000
  Al  Al21      1.0  0.36310327  0.12246611500000007  0.4970630953625904  1.0000
  Al  Al22      1.0  0.41431042  0.6412048250000001  0.49847384845331594  1.0000
  Al  Al23      1.0  0.2465744  0.640057665  0.5197848469861117  1.0000
  Al  Al24      1.0  0.23368119  0.12979901500000007  0.5217463668422211  1.0000
  W   W1        1.0  0.14603009  0.831347015  0.4574096810026379  1.0000
  W   W2        1.0  0.43851443999999995  0.647700515  0.4545504342314449  1.0000
  W   W3        1.0  0.7613494999999999  0.24455102500000006  0.47454220578991213  1.0000
  W   W4        1.0  0.8594865899999999  0.5417824849999999  0.5022782324201839  1.0000
  W   W5        1.0  0.15289108  0.3629655150000001  0.49898797380931403  1.0000
  W   W6        1.0  0.47503507999999994  0.9587750750000001  0.5185176778126963  1.0000
