data_image0
_chemical_formula_structural       COPt30Sb6Si6
_chemical_formula_sum              "C1 O1 Pt30 Sb6 Si6"
_cell_length_a       8.287510232104447
_cell_length_b       9.002720734526228
_cell_length_c       101.506209
_cell_angle_alpha    86.72382613645938
_cell_angle_beta     89.15654690600586
_cell_angle_gamma    64.24525034708228

_space_group_name_H-M_alt    "P 1"
_space_group_IT_number       1

loop_
  _space_group_symop_operation_xyz
  'x, y, z'

loop_
  _atom_site_type_symbol
  _atom_site_label
  _atom_site_symmetry_multiplicity
  _atom_site_fract_x
  _atom_site_fract_y
  _atom_site_fract_z
  _atom_site_occupancy
  C   C1        1.0  0.6952640650000002  0.37979549999999995  0.5520854021298084  1.0000
  O   O1        1.0  0.7083126950000002  0.36789169999999993  0.5635845270667794  1.0000
  Pt  Pt1       1.0  0.9214085550000002  0.35385512999999996  0.4467319954162983  1.0000
  Pt  Pt2       1.0  0.8658529950000002  0.96496624  0.4639757197334191  1.0000
  Pt  Pt3       1.0  0.810297445  0.57607735  0.4812194409466697  1.0000
  Pt  Pt4       1.0  0.30081366500000006  0.19762949000000002  0.4536591972503414  1.0000
  Pt  Pt5       1.0  0.24525811500000008  0.80874061  0.47090291846359195  1.0000
  Pt  Pt6       1.0  0.3563692250000002  0.5865183800000001  0.4364154729332206  1.0000
  Pt  Pt7       1.0  0.8936307750000001  0.6594106799999999  0.4553538575748587  1.0000
  Pt  Pt8       1.0  0.838075225  0.2705218  0.4725975787881094  1.0000
  Pt  Pt9       1.0  0.9491863350000002  0.04829956999999999  0.438110133257738  1.0000
  Pt  Pt10      1.0  0.2730358850000002  0.5031850499999999  0.46228105940890174  1.0000
  Pt  Pt11      1.0  0.21748033500000008  0.11429616  0.4795247806221523  1.0000
  Pt  Pt12      1.0  0.3285914450000001  0.8920739400000001  0.445037335091781  1.0000
  Pt  Pt13      1.0  0.4999999950000001  0.49796453  0.48468304341562624  1.0000
  Pt  Pt14      1.0  0.6111111150000001  0.27574230999999993  0.4501955947813848  1.0000
  Pt  Pt15      1.0  0.5555555550000001  0.88685342  0.46743931909850556  1.0000
  Pt  Pt16      1.0  0.7547418850000002  0.18718845999999997  0.4984631652637905  1.0000
  Pt  Pt17      1.0  0.6921324750000001  0.80661831  0.5175065321047941  1.0000
  Pt  Pt18      1.0  0.6812888150000002  0.40621851999999997  0.5336879320393816  1.0000
  Pt  Pt19      1.0  0.13869331500000007  0.03210834  0.5046047775682412  1.0000
  Pt  Pt20      1.0  0.08746124500000002  0.6336089  0.5232260397988227  1.0000
  Pt  Pt21      1.0  0.18970255500000005  0.41985172  0.4881466427807127  1.0000
  Pt  Pt22      1.0  0.7312633850000002  0.48817970999999993  0.5076085199505294  1.0000
  Pt  Pt23      1.0  0.717833285  0.09497449  0.5255915830284534  1.0000
  Pt  Pt24      1.0  0.7825196650000001  0.8816329100000001  0.48984130310523  1.0000
  Pt  Pt25      1.0  0.1066644650000001  0.32924130999999995  0.5146122570142075  1.0000
  Pt  Pt26      1.0  0.08487612500000011  0.93224559  0.5290868418688534  1.0000
  Pt  Pt27      1.0  0.1619247750000001  0.72540727  0.49676850493927305  1.0000
  Pt  Pt28      1.0  0.38039897500000025  0.31251563999999993  0.5331605224271005  1.0000
  Pt  Pt29      1.0  0.44444444500000013  0.10907565  0.5019267646288769  1.0000
  Pt  Pt30      1.0  0.40649088500000014  0.7070321599999999  0.5191185953413147  1.0000
  Sb  Sb1       1.0  0.5833333350000003  0.58129787  0.45881745693994525  1.0000
  Sb  Sb2       1.0  0.5277777750000001  0.19240897999999998  0.47606118125706604  1.0000
  Sb  Sb3       1.0  0.6388888850000002  0.97018676  0.44157373572669456  1.0000
  Sb  Sb4       1.0  0.4170161250000002  0.42264146999999996  0.5100741195376312  1.0000
  Sb  Sb5       1.0  0.36779575500000006  0.02981323999999999  0.5275214887739006  1.0000
  Sb  Sb6       1.0  0.47222222500000016  0.80352009  0.49330490247031655  1.0000
  Si  Si1       1.0  0.13888888500000013  0.47018676  0.4415737357266946  1.0000
  Si  Si2       1.0  0.08333333500000009  0.08129786999999998  0.45881745693994513  1.0000
  Si  Si3       1.0  0.02777777500000003  0.6924089800000001  0.4760611812570659  1.0000
  Si  Si4       1.0  0.972222225  0.30352008999999996  0.49330490247031655  1.0000
  Si  Si5       1.0  0.9188232550000002  0.90893583  0.5105665733645217  1.0000
  Si  Si6       1.0  0.8692933350000002  0.53323899  0.5270194346767014  1.0000
