data_image0
_chemical_formula_structural       COAl6Ni10
_chemical_formula_sum              "C1 O1 Al6 Ni10"
_cell_length_a       5.051436682774497
_cell_length_b       5.05143668
_cell_length_c       100.38803
_cell_angle_alpha    90.0
_cell_angle_beta     90.0
_cell_angle_gamma    96.79913610514221

_space_group_name_H-M_alt    "P 1"
_space_group_IT_number       1

loop_
  _space_group_symop_operation_xyz
  'x, y, z'

loop_
  _atom_site_type_symbol
  _atom_site_label
  _atom_site_symmetry_multiplicity
  _atom_site_fract_x
  _atom_site_fract_y
  _atom_site_fract_z
  _atom_site_occupancy
  C   C1        1.0  0.15941477999999995  0.9065902250000001  0.5299286861917412  1.0000
  O   O1        1.0  0.16775813999999997  0.9011696249999999  0.5417415919141835  1.0000
  Al  Al1       1.0  0.87966715  0.3751477449999999  0.4771775150251599  1.0000
  Al  Al2       1.0  0.60024953  0.654565365  0.4582584080858167  1.0000
  Al  Al3       1.0  0.15908477  0.09573012499999993  0.4582584080858167  1.0000
  Al  Al4       1.0  0.82845764  0.3694443449999999  0.516508649254187  1.0000
  Al  Al5       1.0  0.59452  0.657011225  0.49674105820682807  1.0000
  Al  Al6       1.0  0.16299957999999998  0.09279583499999992  0.4960307047688694  1.0000
  Ni  Ni1       1.0  0.37966715  0.8751477450000001  0.4771775150251599  1.0000
  Ni  Ni2       1.0  0.37966715  0.375147745  0.4771775150251599  1.0000
  Ni  Ni3       1.0  0.87966715  0.875147745  0.4771775150251599  1.0000
  Ni  Ni4       1.0  0.10270570999999996  0.598186305  0.4582584080858167  1.0000
  Ni  Ni5       1.0  0.65662859  0.15210918499999995  0.4582584080858167  1.0000
  Ni  Ni6       1.0  0.40726713  0.9072041650000001  0.5156749946989547  1.0000
  Ni  Ni7       1.0  0.33948012999999994  0.38243422499999996  0.5141781361473137  1.0000
  Ni  Ni8       1.0  0.9128873500000001  0.8913336949999998  0.5155049770092979  1.0000
  Ni  Ni9       1.0  0.08711264999999997  0.5914944549999999  0.4962047151468547  1.0000
  Ni  Ni10      1.0  0.66359916  0.15337683499999993  0.49590660450851864  1.0000
