data_image0
_chemical_formula_structural       COV2Pt2V2Pt2V2Pt2V2Pt2
_chemical_formula_sum              "C1 O1 V8 Pt8"
_cell_length_a       5.42824988
_cell_length_b       4.81926357
_cell_length_c       100.90514112
_cell_angle_alpha    90.0
_cell_angle_beta     90.0
_cell_angle_gamma    90.0

_space_group_name_H-M_alt    "P 1"
_space_group_IT_number       1

loop_
  _space_group_symop_operation_xyz
  'x, y, z'

loop_
  _atom_site_type_symbol
  _atom_site_label
  _atom_site_symmetry_multiplicity
  _atom_site_fract_x
  _atom_site_fract_y
  _atom_site_fract_z
  _atom_site_occupancy
  C   C1        1.0  0.37599276  0.333461115  0.533976148241711  1.0000
  O   O1        1.0  0.37630366000000004  0.35501501499999993  0.5458406369173898  1.0000
  V   V1        1.0  0.12619482999999998  0.8413105249999999  0.45415936308261023  1.0000
  V   V2        1.0  0.12619482999999998  0.18257728499999998  0.47603644497702574  1.0000
  Pt  Pt1       1.0  0.37619483  0.3304182249999999  0.45415936308261023  1.0000
  Pt  Pt2       1.0  0.37619483  0.693469585  0.47603644497702574  1.0000
  V   V3        1.0  0.12380516999999999  0.835667565  0.49869699200670486  1.0000
  V   V4        1.0  0.13742461999999997  0.15869450499999999  0.5190054805347944  1.0000
  Pt  Pt3       1.0  0.37635395  0.3299789449999999  0.49771218508207393  1.0000
  Pt  Pt4       1.0  0.37624081  0.6877884249999999  0.52033187447279  1.0000
  V   V5        1.0  0.62619483  0.8413105249999999  0.45415936308261023  1.0000
  V   V6        1.0  0.62619483  0.18257728499999998  0.47603644497702574  1.0000
  Pt  Pt5       1.0  0.87619483  0.3304182249999999  0.45415936308261023  1.0000
  Pt  Pt6       1.0  0.87619483  0.693469585  0.47603644497702574  1.0000
  V   V7        1.0  0.62861272  0.8356702449999999  0.49870315128046466  1.0000
  V   V8        1.0  0.61499178  0.15868947499999997  0.51900109768012  1.0000
  Pt  Pt7       1.0  0.8760516399999999  0.32748996499999994  0.4976842861140593  1.0000
  Pt  Pt8       1.0  0.8761483999999998  0.696088855  0.5196009607145375  1.0000
