data_image0
_chemical_formula_structural       COAg24Al12
_chemical_formula_sum              "C1 O1 Ag24 Al12"
_cell_length_a       6.923976453960356
_cell_length_b       6.9239764548823475
_cell_length_c       103.49621662
_cell_angle_alpha    87.0789341467642
_cell_angle_beta     87.0789341463749
_cell_angle_gamma    79.80913698717086

_space_group_name_H-M_alt    "P 1"
_space_group_IT_number       1

loop_
  _space_group_symop_operation_xyz
  'x, y, z'

loop_
  _atom_site_type_symbol
  _atom_site_label
  _atom_site_symmetry_multiplicity
  _atom_site_fract_x
  _atom_site_fract_y
  _atom_site_fract_z
  _atom_site_occupancy
  C   C1        1.0  0.54784383  0.20493649  0.5605901666046839  1.0000
  O   O1        1.0  0.5130781  0.18468001  0.5715659478644974  1.0000
  Ag  Ag1       1.0  0.7247192100000001  0.40267936  0.47158695424345165  1.0000
  Ag  Ag2       1.0  0.52471921  0.20267936  0.4284340521355026  1.0000
  Ag  Ag3       1.0  0.12471921000000001  0.80267936  0.45001050480771104  1.0000
  Ag  Ag4       1.0  0.80267936  0.12471921000000001  0.450010504807711  1.0000
  Ag  Ag5       1.0  0.40267936000000004  0.72471921  0.47158695424345165  1.0000
  Ag  Ag6       1.0  0.20267935999999998  0.52471921  0.4284340521355026  1.0000
  Ag  Ag7       1.0  0.79732064  0.47528079  0.4333106419753334  1.0000
  Ag  Ag8       1.0  0.39732064  0.07528079000000001  0.4548870914110741  1.0000
  Ag  Ag9       1.0  0.9973206400000001  0.67528079  0.47646354408328234  1.0000
  Ag  Ag10      1.0  0.07528079  0.39732064  0.4548870914110741  1.0000
  Ag  Ag11      1.0  0.67528079  0.99732064  0.47646354408328234  1.0000
  Ag  Ag12      1.0  0.47528078999999995  0.79732064  0.4333106419753334  1.0000
  Ag  Ag13      1.0  0.51727034  0.19700268  0.5386636252171471  1.0000
  Ag  Ag14      1.0  0.32471921  0.0026793600000000113  0.4931634069156601  1.0000
  Ag  Ag15      1.0  0.91870696  0.59735976  0.5137879496964713  1.0000
  Ag  Ag16      1.0  0.59535607  0.92454447  0.514291246321629  1.0000
  Ag  Ag17      1.0  0.19266702000000002  0.51961187  0.5356564709268511  1.0000
  Ag  Ag18      1.0  0.0026793600000000195  0.32471921  0.4931634069156601  1.0000
  Ag  Ag19      1.0  0.59732064  0.27528079  0.49803999675549077  1.0000
  Ag  Ag20      1.0  0.18794202999999998  0.87077218  0.519206262742925  1.0000
  Ag  Ag21      1.0  0.80057132  0.47180151  0.5410107698778948  1.0000
  Ag  Ag22      1.0  0.85816618  0.19427016999999996  0.5199752474777133  1.0000
  Ag  Ag23      1.0  0.46305754999999993  0.79663678  0.5402690556202755  1.0000
  Ag  Ag24      1.0  0.27528079  0.59732064  0.49803999675549077  1.0000
  Al  Al1       1.0  0.46548986  0.46548986  0.45039684843465194  1.0000
  Al  Al2       1.0  0.06548986000000002  0.06548986000000001  0.47197329787039255  1.0000
  Al  Al3       1.0  0.8654898600000002  0.86548986  0.4288203957624434  1.0000
  Al  Al4       1.0  0.13451013999999997  0.13451014  0.4329242983483925  1.0000
  Al  Al5       1.0  0.73451014  0.73451014  0.4545007477841332  1.0000
  Al  Al6       1.0  0.33451014  0.33451014  0.47607720045634155  1.0000
  Al  Al7       1.0  0.25940222000000007  0.25710737  0.5144250839720402  1.0000
  Al  Al8       1.0  0.8609030600000002  0.85170441  0.5359658448780228  1.0000
  Al  Al9       1.0  0.66548986  0.66548986  0.493549750542601  1.0000
  Al  Al10      1.0  0.93451014  0.93451014  0.49765365312855  1.0000
  Al  Al11      1.0  0.5312138700000001  0.52270168  0.5200750989803972  1.0000
  Al  Al12      1.0  0.12682822  0.13245207000000003  0.539645074349598  1.0000
