data_image0
_chemical_formula_structural       COPt12V12
_chemical_formula_sum              "C1 O1 Pt12 V12"
_cell_length_a       6.535878238715734
_cell_length_b       7.077017634442744
_cell_length_c       97.70478707
_cell_angle_alpha    84.39872902789601
_cell_angle_beta     87.63700310081887
_cell_angle_gamma    85.37100055852758

_space_group_name_H-M_alt    "P 1"
_space_group_IT_number       1

loop_
  _space_group_symop_operation_xyz
  'x, y, z'

loop_
  _atom_site_type_symbol
  _atom_site_label
  _atom_site_symmetry_multiplicity
  _atom_site_fract_x
  _atom_site_fract_y
  _atom_site_fract_z
  _atom_site_occupancy
  C   C1        1.0  0.9747554249999998  0.02390691500000003  0.5404454619333873  1.0000
  O   O1        1.0  0.9360806849999999  0.013521345000000027  0.5522634898289216  1.0000
  Pt  Pt1       1.0  0.025244574999999964  0.06225374500000003  0.5212336949002606  1.0000
  Pt  Pt2       1.0  0.5212531249999999  0.5987248050000001  0.5084508957754575  1.0000
  Pt  Pt3       1.0  0.9528945150000001  0.5584470850000001  0.5056359692852348  1.0000
  Pt  Pt4       1.0  0.4607780149999999  0.9661285950000001  0.5179852054824055  1.0000
  Pt  Pt5       1.0  0.027648174999999966  0.20368888500000004  0.4949779494913207  1.0000
  Pt  Pt6       1.0  0.525325595  0.804660465  0.4818642999601579  1.0000
  Pt  Pt7       1.0  0.956851275  0.748636025  0.4800991803340339  1.0000
  Pt  Pt8       1.0  0.45365990499999986  0.15505840500000004  0.49273432329782796  1.0000
  Pt  Pt9       1.0  0.025325594999999968  0.3955695650000001  0.4689753884766031  1.0000
  Pt  Pt10      1.0  0.525325595  0.9864786550000001  0.4560864741574875  1.0000
  Pt  Pt11      1.0  0.9568512749999999  0.9304542050000001  0.4543213545313634  1.0000
  Pt  Pt12      1.0  0.456851275  0.3395451150000001  0.4672102688504791  1.0000
  V   V1        1.0  0.280903635  0.33875787500000004  0.5122303212811059  1.0000
  V   V2        1.0  0.7754465150000001  0.9170920650000001  0.5011360079144448  1.0000
  V   V3        1.0  0.7070457049999999  0.26402475500000006  0.5103616384654492  1.0000
  V   V4        1.0  0.21095208499999993  0.8515915950000001  0.49957943811894107  1.0000
  V   V5        1.0  0.280771745  0.5136618650000001  0.4884491471560039  1.0000
  V   V6        1.0  0.7807717450000001  0.10457095500000002  0.4755602328368883  1.0000
  V   V7        1.0  0.7014051249999999  0.4487255350000001  0.48640324745730346  1.0000
  V   V8        1.0  0.20140512499999996  0.03963463500000003  0.47351433597374865  1.0000
  V   V9        1.0  0.280771745  0.695480045  0.46267132135333355  1.0000
  V   V10       1.0  0.7807717449999999  0.2863891350000001  0.4497824070342179  1.0000
  V   V11       1.0  0.7014051249999999  0.630543725  0.46062542165463305  1.0000
  V   V12       1.0  0.2014051249999999  0.22145281500000005  0.44773651017107824  1.0000
