data_image0
_chemical_formula_structural       COV8Ir8V8Ir8V8Ir8
_chemical_formula_sum              "C1 O1 V24 Ir24"
_cell_length_a       13.46962953
_cell_length_b       11.97791850451269
_cell_length_c       101.0738692
_cell_angle_alpha    76.35873437420308
_cell_angle_beta     90.0
_cell_angle_gamma    32.8818243767951

_space_group_name_H-M_alt    "P 1"
_space_group_IT_number       1

loop_
  _space_group_symop_operation_xyz
  'x, y, z'

loop_
  _atom_site_type_symbol
  _atom_site_label
  _atom_site_symmetry_multiplicity
  _atom_site_fract_x
  _atom_site_fract_y
  _atom_site_fract_z
  _atom_site_occupancy
  C   C1        1.0  0.5251332950000002  0.4336311149999999  0.5360444744262387  1.0000
  O   O1        1.0  0.5960879749999999  0.3818001549999999  0.5482222286632494  1.0000
  V   V1        1.0  0.0008159650000001202  0.14025164499999995  0.46954510927772036  1.0000
  V   V2        1.0  0.0008159650000002191  0.6402516449999999  0.45557069193636685  1.0000
  V   V3        1.0  0.0008159650000001202  0.34449496499999993  0.4638367472044314  1.0000
  V   V4        1.0  0.0008159650000001532  0.8444949649999999  0.477811167620157  1.0000
  V   V5        1.0  0.5008159650000001  0.8902516449999999  0.47653232102276927  1.0000
  V   V6        1.0  0.5008159650000001  0.3902516449999999  0.4625579006070436  1.0000
  V   V7        1.0  0.5008159650000001  0.5944949649999999  0.4568495385337547  1.0000
  V   V8        1.0  0.5008159650000001  0.09449496499999997  0.47082395587510806  1.0000
  Ir  Ir1       1.0  0.28440373500000016  0.9587855349999999  0.4606424591333712  1.0000
  Ir  Ir2       1.0  0.2844037350000001  0.45878553499999997  0.47461687647472456  1.0000
  Ir  Ir3       1.0  0.717228195  0.5259610749999999  0.4727394004231527  1.0000
  Ir  Ir4       1.0  0.7172281950000002  0.025961074999999976  0.4587649800074271  1.0000
  Ir  Ir5       1.0  0.7844037350000004  0.708785535  0.46762966780404797  1.0000
  Ir  Ir6       1.0  0.784403735  0.208785535  0.45365525046269445  1.0000
  Ir  Ir7       1.0  0.21722819500000015  0.275961075  0.4517777713367504  1.0000
  Ir  Ir8       1.0  0.21722819500000018  0.7759610749999999  0.46575218867810386  1.0000
  V   V9        1.0  0.0008159650000001202  0.14025164499999995  0.4974939501091715  1.0000
  V   V10       1.0  0.0008159650000002191  0.6402516449999999  0.4835195296934459  1.0000
  V   V11       1.0  0.0008159650000001202  0.34449496499999993  0.4917855849615104  1.0000
  V   V12       1.0  0.9991840350000003  0.8414189649999999  0.5056639558414628  1.0000
  V   V13       1.0  0.49508319500000014  0.8939088749999998  0.5048733994805745  1.0000
  V   V14       1.0  0.5008159650000001  0.3902516449999999  0.4905067383641226  1.0000
  V   V15       1.0  0.5008159650000001  0.5944949649999999  0.4847983762908337  1.0000
  V   V16       1.0  0.5008159650000001  0.09449496499999997  0.4987727936321872  1.0000
  Ir  Ir9       1.0  0.28440373500000016  0.9587855349999999  0.4885912968904502  1.0000
  Ir  Ir10      1.0  0.2859784250000001  0.4607181749999999  0.5022003373952214  1.0000
  Ir  Ir11      1.0  0.717228195  0.5259610749999999  0.5006882381802318  1.0000
  Ir  Ir12      1.0  0.7172281950000002  0.025961074999999976  0.4867138177645061  1.0000
  Ir  Ir13      1.0  0.7844037350000004  0.708785535  0.495578505561127  1.0000
  Ir  Ir14      1.0  0.784403735  0.208785535  0.4816040882197736  1.0000
  Ir  Ir15      1.0  0.21722819500000015  0.275961075  0.4797266090938294  1.0000
  Ir  Ir16      1.0  0.21722819500000018  0.7759610749999999  0.4937010264351829  1.0000
  V   V17       1.0  0.9937447850000002  0.14969155499999995  0.5247411146795745  1.0000
  V   V18       1.0  0.011443685000000205  0.6141548749999999  0.5145822330196234  1.0000
  V   V19       1.0  0.9856837950000003  0.36804549499999994  0.5193234652400068  1.0000
  V   V20       1.0  0.9857874250000002  0.8552111549999999  0.5306904952346021  1.0000
  V   V21       1.0  0.4758137650000001  0.9170362049999997  0.5296253390246092  1.0000
  V   V22       1.0  0.5043249150000001  0.3872441349999999  0.5191942155590183  1.0000
  V   V23       1.0  0.5201563250000002  0.5769482049999999  0.5143600419931397  1.0000
  V   V24       1.0  0.47749676500000016  0.13562990499999997  0.5255656858943069  1.0000
  Ir  Ir17      1.0  0.26623184500000013  0.9740389249999999  0.5168796006753448  1.0000
  Ir  Ir18      1.0  0.2636432150000001  0.4913891349999999  0.5287334329103024  1.0000
  Ir  Ir19      1.0  0.7159508650000002  0.5377251449999999  0.5270862119634528  1.0000
  Ir  Ir20      1.0  0.712770295  0.03558195499999998  0.5147633565824727  1.0000
  Ir  Ir21      1.0  0.7462190950000002  0.7560923049999999  0.5228861338092732  1.0000
  Ir  Ir22      1.0  0.784445955  0.21059478499999998  0.5096059681201435  1.0000
  Ir  Ir23      1.0  0.20902262500000016  0.286749855  0.5077267950151261  1.0000
  Ir  Ir24      1.0  0.20499114500000032  0.7906366249999999  0.5213595266319471  1.0000
