data_image0
_chemical_formula_structural       COGa20Fe24
_chemical_formula_sum              "C1 O1 Ga20 Fe24"
_cell_length_a       7.83067016
_cell_length_b       7.604177726909926
_cell_length_c       109.71632721
_cell_angle_alpha    108.38477568569493
_cell_angle_beta     90.0
_cell_angle_gamma    90.0

_space_group_name_H-M_alt    "P 1"
_space_group_IT_number       1

loop_
  _space_group_symop_operation_xyz
  'x, y, z'

loop_
  _atom_site_type_symbol
  _atom_site_label
  _atom_site_symmetry_multiplicity
  _atom_site_fract_x
  _atom_site_fract_y
  _atom_site_fract_z
  _atom_site_occupancy
  C   C1        1.0  0.09663225499999997  0.3285297399999999  0.5447179927858979  1.0000
  O   O1        1.0  0.09663163499999997  0.3625029099999999  0.5559542127156369  1.0000
  Ga  Ga1       1.0  0.09662101499999996  0.6552209099999998  0.496084637960933  1.0000
  Ga  Ga2       1.0  0.7931009149999999  0.7951039999999998  0.4764850096604957  1.0000
  Ga  Ga3       1.0  0.09663084499999997  0.4161566899999999  0.5146131637381945  1.0000
  Ga  Ga4       1.0  0.400141115  0.20527853999999993  0.48338063124855973  1.0000
  Ga  Ga5       1.0  0.400141115  0.7951039999999998  0.4764850096604957  1.0000
  Ga  Ga6       1.0  0.09662101499999996  0.020311869999999958  0.46882713268326026  1.0000
  Ga  Ga7       1.0  0.09662101499999996  0.3451616299999999  0.4637810029481225  1.0000
  Ga  Ga8       1.0  0.7931009149999999  0.20527853999999993  0.48338063124855973  1.0000
  Ga  Ga9       1.0  0.09662101499999996  0.5987892899999998  0.4465503200207241  1.0000
  Ga  Ga10      1.0  0.09662101499999996  0.9800706699999998  0.49103850822579515  1.0000
  Ga  Ga11      1.0  0.596621015  0.6552209099999998  0.45083575816797616  1.0000
  Ga  Ga12      1.0  0.29571937499999995  0.8005707499999998  0.5223635402854578  1.0000
  Ga  Ga13      1.0  0.596621015  0.40159324999999996  0.4680664410953746  1.0000
  Ga  Ga14      1.0  0.903447545  0.21596294999999996  0.5283251924154018  1.0000
  Ga  Ga15      1.0  0.897511495  0.8004361599999998  0.5223623457150313  1.0000
  Ga  Ga16      1.0  0.596592005  0.013002139999999955  0.5150818588749106  1.0000
  Ga  Ga17      1.0  0.596496745  0.32439471  0.5064030947713384  1.0000
  Ga  Ga18      1.0  0.28966616500000003  0.21604240999999993  0.5283191652646133  1.0000
  Ga  Ga19      1.0  0.596621015  0.5987892899999998  0.49179919981368087  1.0000
  Ga  Ga20      1.0  0.596621015  0.9800706699999998  0.4457896284328384  1.0000
  Fe  Fe1       1.0  0.09662101499999996  0.013384679999999954  0.44653444671369275  1.0000
  Fe  Fe2       1.0  0.09662101499999996  0.6907464399999999  0.4705709774516459  1.0000
  Fe  Fe3       1.0  0.8502172550000001  0.4972092799999999  0.502612516473054  1.0000
  Fe  Fe4       1.0  0.876292925  0.50019127  0.47993282226448286  1.0000
  Fe  Fe5       1.0  0.8285513150000001  0.17033304999999993  0.4595748516979988  1.0000
  Fe  Fe6       1.0  0.364690715  0.8300494899999998  0.5002907892110567  1.0000
  Fe  Fe7       1.0  0.09662101499999996  0.30963609999999997  0.48929466707731994  1.0000
  Fe  Fe8       1.0  0.364690715  0.17033304999999993  0.4595748516979988  1.0000
  Fe  Fe9       1.0  0.09655245499999997  0.9756660299999999  0.513520529988058  1.0000
  Fe  Fe10      1.0  0.316949105  0.50019127  0.47993282226448286  1.0000
  Fe  Fe11      1.0  0.8285513150000001  0.8300494899999998  0.5002907892110567  1.0000
  Fe  Fe12      1.0  0.34304836499999997  0.4972173899999999  0.5026150685098744  1.0000
  Fe  Fe13      1.0  0.596621015  0.013384679999999954  0.4917833265066495  1.0000
  Fe  Fe14      1.0  0.5966146550000001  0.6884569299999997  0.5151903946479373  1.0000
  Fe  Fe15      1.0  0.346621015  0.50019127  0.45730838236800453  1.0000
  Fe  Fe16      1.0  0.40369456499999995  0.4953429  0.5225457014157731  1.0000
  Fe  Fe17      1.0  0.325676525  0.16053122999999994  0.505023293530484  1.0000
  Fe  Fe18      1.0  0.8646907149999999  0.8300494899999998  0.4550419094180999  1.0000
  Fe  Fe19      1.0  0.596621015  0.30963609999999997  0.4440457872843632  1.0000
  Fe  Fe20      1.0  0.8675603949999998  0.16044356999999992  0.5050211722629993  1.0000
  Fe  Fe21      1.0  0.596621015  0.9869978599999999  0.4680823144024059  1.0000
  Fe  Fe22      1.0  0.789581505  0.4952087999999999  0.5225492344483074  1.0000
  Fe  Fe23      1.0  0.328551315  0.8300494899999998  0.4550419094180999  1.0000
  Fe  Fe24      1.0  0.8466210150000001  0.50019127  0.45730838236800453  1.0000
