data_image0
_chemical_formula_structural       COSi3Pd6Si3Pd6Si3Pd6
_chemical_formula_sum              "C1 O1 Si9 Pd18"
_cell_length_a       6.57627099
_cell_length_b       7.466434796628195
_cell_length_c       105.3557752
_cell_angle_alpha    61.736347624424326
_cell_angle_beta     90.0
_cell_angle_gamma    63.87129866982496

_space_group_name_H-M_alt    "P 1"
_space_group_IT_number       1

loop_
  _space_group_symop_operation_xyz
  'x, y, z'

loop_
  _atom_site_type_symbol
  _atom_site_label
  _atom_site_symmetry_multiplicity
  _atom_site_fract_x
  _atom_site_fract_y
  _atom_site_fract_z
  _atom_site_occupancy
  C   C1        1.0  0.6055704949999998  0.7575277450000001  0.5493426054871131  1.0000
  O   O1        1.0  0.695775075  0.634859075  0.5622696596888764  1.0000
  Si  Si1       1.0  0.46739896499999994  0.47549696500000005  0.4565414173550962  1.0000
  Si  Si2       1.0  0.8007323049999998  0.8088303050000001  0.4453552652916693  1.0000
  Si  Si3       1.0  0.13406563499999996  0.14216363500000004  0.4509483396454598  1.0000
  Pd  Pd1       1.0  0.8687115149999999  0.40751775500000004  0.45882269458827424  1.0000
  Pd  Pd2       1.0  0.13406563500000004  0.8768095149999999  0.44307398805849135  1.0000
  Pd  Pd3       1.0  0.399419755  0.14216363500000004  0.46772756941852306  1.0000
  Pd  Pd4       1.0  0.5279454449999998  0.7482838249999999  0.4641663423356421  1.0000
  Pd  Pd5       1.0  0.13406563499999993  0.536043445  0.4377303403111234  1.0000
  Pd  Pd6       1.0  0.7401858249999999  0.14216363500000004  0.4509483396454598  1.0000
  Si  Si4       1.0  0.46739896499999994  0.47549696500000005  0.49009987690122275  1.0000
  Si  Si5       1.0  0.8007323049999998  0.8088303050000001  0.4789137248377958  1.0000
  Si  Si6       1.0  0.13406563499999996  0.14216363500000004  0.4845067991915863  1.0000
  Pd  Pd7       1.0  0.8687115149999999  0.40751775500000004  0.49238115413440076  1.0000
  Pd  Pd8       1.0  0.13406563500000004  0.8768095149999999  0.4766324476046178  1.0000
  Pd  Pd9       1.0  0.399419755  0.14216363500000004  0.5012860289646496  1.0000
  Pd  Pd10      1.0  0.5279454449999998  0.7482838249999999  0.49772480188176865  1.0000
  Pd  Pd11      1.0  0.13406563499999993  0.536043445  0.4712887998572499  1.0000
  Pd  Pd12      1.0  0.7401858249999999  0.14216363500000004  0.4845067991915863  1.0000
  Si  Si7       1.0  0.47592028499999983  0.47282232500000004  0.5229581089863057  1.0000
  Si  Si8       1.0  0.7998595149999999  0.8060681249999999  0.5130787703194484  1.0000
  Si  Si9       1.0  0.12797684499999995  0.13827474500000003  0.518801071589259  1.0000
  Pd  Pd13      1.0  0.8720231549999999  0.407583915  0.526048326310227  1.0000
  Pd  Pd14      1.0  0.13052746499999993  0.8738261650000001  0.5104574116572299  1.0000
  Pd  Pd15      1.0  0.4223832649999999  0.12319048500000003  0.5340802046621509  1.0000
  Pd  Pd16      1.0  0.516221395  0.747035735  0.5310151830296569  1.0000
  Pd  Pd17      1.0  0.13406563499999993  0.536043445  0.5048472594033765  1.0000
  Pd  Pd18      1.0  0.7349695249999998  0.16436005500000003  0.5167582574137699  1.0000
