data_image0
_chemical_formula_structural       CORe12Pt4Re12Pt4
_chemical_formula_sum              "C1 O1 Re24 Pt8"
_cell_length_a       5.5993156
_cell_length_b       12.047026974039387
_cell_length_c       101.08624127
_cell_angle_alpha    68.36886955306025
_cell_angle_beta     90.0
_cell_angle_gamma    62.30348647549566

_space_group_name_H-M_alt    "P 1"
_space_group_IT_number       1

loop_
  _space_group_symop_operation_xyz
  'x, y, z'

loop_
  _atom_site_type_symbol
  _atom_site_label
  _atom_site_symmetry_multiplicity
  _atom_site_fract_x
  _atom_site_fract_y
  _atom_site_fract_z
  _atom_site_occupancy
  C   C1        1.0  0.15580824499999998  0.349752175  0.539211612827669  1.0000
  O   O1        1.0  0.16654484500000005  0.33864005499999994  0.5516062063571493  1.0000
  Re  Re1       1.0  0.3215467249999998  0.422704605  0.4773568935327931  1.0000
  Re  Re2       1.0  0.3215467249999998  0.9227046050000001  0.4553910381137523  1.0000
  Re  Re3       1.0  0.8437204549999998  0.16161773499999998  0.48882688532070134  1.0000
  Re  Re4       1.0  0.8437204549999997  0.661617735  0.4668610299016607  1.0000
  Re  Re5       1.0  0.8437204549999998  0.422704605  0.4773568935327931  1.0000
  Re  Re6       1.0  0.843720455  0.9227046050000001  0.4553910381137523  1.0000
  Re  Re7       1.0  0.6844450249999999  0.08198002499999997  0.4703596521371114  1.0000
  Re  Re8       1.0  0.684445025  0.5819800249999999  0.4483937936428508  1.0000
  Re  Re9       1.0  0.16227129500000004  0.343066895  0.45888965727398323  1.0000
  Re  Re10      1.0  0.16227129499999987  0.8430668950000001  0.4808555126930239  1.0000
  Re  Re11      1.0  0.16227129500000007  0.08198002499999997  0.4703596521371114  1.0000
  Re  Re12      1.0  0.16227129500000004  0.5819800249999999  0.4483937936428508  1.0000
  Pt  Pt1       1.0  0.6696625449999999  0.33567564499999997  0.45921436665957516  1.0000
  Pt  Pt2       1.0  0.6696625449999999  0.8356756449999999  0.48118022515383574  1.0000
  Pt  Pt3       1.0  0.33632920499999996  0.16900898499999997  0.48850217593510936  1.0000
  Pt  Pt4       1.0  0.3363292049999999  0.6690089850000001  0.46653632051606875  1.0000
  Re  Re13      1.0  0.32408876499999995  0.423801365  0.5207066343960064  1.0000
  Re  Re14      1.0  0.3215467249999998  0.9227046050000001  0.4993227489518337  1.0000
  Re  Re15      1.0  0.835835665  0.16949874499999998  0.5302622095892641  1.0000
  Re  Re16      1.0  0.8493872550000001  0.655953195  0.5103233945403479  1.0000
  Re  Re17      1.0  0.8389211749999999  0.423810965  0.5207019815884184  1.0000
  Re  Re18      1.0  0.843720455  0.9227046050000001  0.4993227489518337  1.0000
  Re  Re19      1.0  0.6909887849999999  0.07729539499999998  0.5151496476013429  1.0000
  Re  Re20      1.0  0.684445025  0.5819800249999999  0.49232550755615206  1.0000
  Re  Re21      1.0  0.16306745500000008  0.34228272499999995  0.5031858892934485  1.0000
  Re  Re22      1.0  0.150612745  0.8547326049999999  0.5232114778200304  1.0000
  Re  Re23      1.0  0.16509679500000002  0.07729773499999996  0.5151509976228438  1.0000
  Re  Re24      1.0  0.16227129500000004  0.5819800249999999  0.49232550755615206  1.0000
  Pt  Pt5       1.0  0.6659241849999998  0.33940897499999995  0.502585646362409  1.0000
  Pt  Pt6       1.0  0.6596646449999998  0.8456745050000001  0.5237487740765708  1.0000
  Pt  Pt7       1.0  0.32931268500000005  0.17601177499999998  0.5316472270918723  1.0000
  Pt  Pt8       1.0  0.3382515149999999  0.667091435  0.5105782718342634  1.0000
