data_image0
_chemical_formula_structural       COPt36Si12
_chemical_formula_sum              "C1 O1 Pt36 Si12"
_cell_length_a       11.098072425725315
_cell_length_b       9.589848187843572
_cell_length_c       99.17146369
_cell_angle_alpha    82.20893859752472
_cell_angle_beta     84.30946072040506
_cell_angle_gamma    104.70770500778157

_space_group_name_H-M_alt    "P 1"
_space_group_IT_number       1

loop_
  _space_group_symop_operation_xyz
  'x, y, z'

loop_
  _atom_site_type_symbol
  _atom_site_label
  _atom_site_symmetry_multiplicity
  _atom_site_fract_x
  _atom_site_fract_y
  _atom_site_fract_z
  _atom_site_occupancy
  C   C1        1.0  0.5960495850000002  0.729353165  0.5314909627273997  1.0000
  O   O1        1.0  0.575460755  0.725210405  0.5435374522234581  1.0000
  Pt  Pt1       1.0  0.036612225000000026  0.35625904500000005  0.5148209218377808  1.0000
  Pt  Pt2       1.0  0.6901731550000001  0.9212514149999999  0.49090685478968493  1.0000
  Pt  Pt3       1.0  0.356839825  0.504584745  0.46639420649540647  1.0000
  Pt  Pt4       1.0  0.8468798750000001  0.8972994950000002  0.4656617714765937  1.0000
  Pt  Pt5       1.0  0.510029505  0.7187518949999999  0.5147540846677622  1.0000
  Pt  Pt6       1.0  0.180213215  0.31396615499999997  0.49017442271239026  1.0000
  Pt  Pt7       1.0  0.682587235  0.3334727049999999  0.4986742240491666  1.0000
  Pt  Pt8       1.0  0.349475395  0.9297760349999998  0.4744513329184235  1.0000
  Pt  Pt9       1.0  0.01806522500000003  0.7862388349999999  0.5212445204105964  1.0000
  Pt  Pt10      1.0  0.7762918950000001  0.433131995  0.46906956704306096  1.0000
  Pt  Pt11      1.0  0.449958855  0.264039355  0.5172299573535947  1.0000
  Pt  Pt12      1.0  0.10962523500000003  0.8497986550000001  0.4935822182788574  1.0000
  Pt  Pt13      1.0  0.641237005  0.6694780549999999  0.4591379083241966  1.0000
  Pt  Pt14      1.0  0.30820699500000004  0.506575075  0.5085148163149632  1.0000
  Pt  Pt15      1.0  0.9745703350000001  0.08614472499999998  0.48365055661847517  1.0000
  Pt  Pt16      1.0  0.8140220550000001  0.099255395  0.5104493555762352  1.0000
  Pt  Pt17      1.0  0.48453028500000006  0.693429975  0.4843829916372878  1.0000
  Pt  Pt18      1.0  0.15119695500000002  0.276763305  0.45987034334300925  1.0000
  Pt  Pt19      1.0  0.981934775  0.660953425  0.4755934331369761  1.0000
  Pt  Pt20      1.0  0.665817035  0.4585105849999999  0.5230728738167278  1.0000
  Pt  Pt21      1.0  0.316342925  0.07930126499999998  0.5002638644521066  1.0000
  Pt  Pt22      1.0  0.9065713350000001  0.581950315  0.5062760299729164  1.0000
  Pt  Pt23      1.0  0.555118265  0.15759747499999996  0.4809751960708206  1.0000
  Pt  Pt24      1.0  0.22178493500000004  0.7409308050000001  0.4564625477765421  1.0000
  Pt  Pt25      1.0  0.445346945  0.37421209499999997  0.48949627046514366  1.0000
  Pt  Pt26      1.0  0.11201360500000003  0.957545435  0.46498361922934717  1.0000
  Pt  Pt27      1.0  0.7605621850000001  0.759966665  0.5176552008322017  1.0000
  Pt  Pt28      1.0  0.9412764450000001  0.36912398500000004  0.4891969327777657  1.0000
  Pt  Pt29      1.0  0.6079431150000001  0.9524573150000002  0.46468428448348714  1.0000
  Pt  Pt30      1.0  0.28552087500000006  0.7968706550000001  0.514675304935017  1.0000
  Pt  Pt31      1.0  0.7234670450000001  0.6382721549999999  0.4853604786303945  1.0000
  Pt  Pt32      1.0  0.39013371500000005  0.221605485  0.4608478303361159  1.0000
  Pt  Pt33      1.0  0.07002905500000002  0.075412395  0.5099613106901861  1.0000
  Pt  Pt34      1.0  0.21939655500000005  0.6331840350000001  0.4850611438845344  1.0000
  Pt  Pt35      1.0  0.8860632250000001  0.216517365  0.46054849559025585  1.0000
  Pt  Pt36      1.0  0.552666415  0.04245456499999999  0.5096897762301216  1.0000
  Si  Si1       1.0  0.8907982750000001  0.824997165  0.4910651966989404  1.0000
  Si  Si2       1.0  0.5574649350000002  0.40833049500000007  0.46655254840466176  1.0000
  Si  Si3       1.0  0.24003055500000006  0.252131525  0.5148128356050381  1.0000
  Si  Si4       1.0  0.8104910650000001  0.327594585  0.5167349675437531  1.0000
  Si  Si5       1.0  0.4452360450000001  0.8930443749999999  0.4950684378534951  1.0000
  Si  Si6       1.0  0.11190271500000003  0.4763777150000001  0.47055578955921645  1.0000
  Si  Si7       1.0  0.8941202950000001  0.9453907649999999  0.5262737659547143  1.0000
  Si  Si8       1.0  0.5553608450000002  0.5209871049999999  0.50444365257028  1.0000
  Si  Si9       1.0  0.21950745500000007  0.11435175500000001  0.479488973554665  1.0000
  Si  Si10      1.0  0.7739452250000001  0.182398965  0.4834922147092197  1.0000
  Si  Si11      1.0  0.4406118950000001  0.7657323049999999  0.4589795664149412  1.0000
  Si  Si12      1.0  0.12692435500000004  0.614704235  0.5087295853623431  1.0000
