data_image0
_chemical_formula_structural       COCu3Pt21
_chemical_formula_sum              "C1 O1 Cu3 Pt21"
_cell_length_a       5.5943568971968824
_cell_length_b       5.5943569
_cell_length_c       111.10995951999999
_cell_angle_alpha    90.0
_cell_angle_beta     90.0
_cell_angle_gamma    120.00000001657499

_space_group_name_H-M_alt    "P 1"
_space_group_IT_number       1

loop_
  _space_group_symop_operation_xyz
  'x, y, z'

loop_
  _atom_site_type_symbol
  _atom_site_label
  _atom_site_symmetry_multiplicity
  _atom_site_fract_x
  _atom_site_fract_y
  _atom_site_fract_z
  _atom_site_occupancy
  C   C1        1.0  0.91503843  0.24479434  0.5552869736037819  1.0000
  O   O1        1.0  0.9168510599999999  0.24812351000000005  0.5657716709714151  1.0000
  Cu  Cu1       1.0  0.08314893999999996  0.58108134  0.4958939086636841  1.0000
  Cu  Cu2       1.0  0.4127506299999999  0.24081188999999997  0.5365294368339775  1.0000
  Cu  Cu3       1.0  0.7498155999999999  0.9144146799999999  0.45478352347359635  1.0000
  Pt  Pt1       1.0  0.7519781799999999  0.91891866  0.5166465316245066  1.0000
  Pt  Pt2       1.0  0.08314893999999996  0.58108134  0.43422832902858505  1.0000
  Pt  Pt3       1.0  0.41648227  0.24774801000000007  0.47533871791860755  1.0000
  Pt  Pt4       1.0  0.41648227  0.74774801  0.47533871791860755  1.0000
  Pt  Pt5       1.0  0.7506556999999999  0.41330332999999997  0.5164478266312226  1.0000
  Pt  Pt6       1.0  0.08314893999999996  0.08108134000000006  0.43422832902858505  1.0000
  Pt  Pt7       1.0  0.5831489400000001  0.58108134  0.4958939086636841  1.0000
  Pt  Pt8       1.0  0.9133973999999999  0.24185589000000002  0.5386618572013426  1.0000
  Pt  Pt9       1.0  0.24981559999999997  0.9144146800000001  0.45478352347359635  1.0000
  Pt  Pt10      1.0  0.9164822699999998  0.24774800999999994  0.47533871791860755  1.0000
  Pt  Pt11      1.0  0.24941734999999998  0.9138370600000001  0.5161886462051998  1.0000
  Pt  Pt12      1.0  0.5831489400000001  0.58108134  0.43422832902858505  1.0000
  Pt  Pt13      1.0  0.08314893999999996  0.08108134000000006  0.4958939086636841  1.0000
  Pt  Pt14      1.0  0.4143738699999999  0.7411749000000001  0.5367033041655929  1.0000
  Pt  Pt15      1.0  0.7498155999999999  0.41441468000000004  0.45478352347359635  1.0000
  Pt  Pt16      1.0  0.9164822699999998  0.74774801  0.47533871791860755  1.0000
  Pt  Pt17      1.0  0.24756978999999993  0.4132643000000001  0.5164464243559697  1.0000
  Pt  Pt18      1.0  0.5831489400000001  0.08108134000000007  0.43422832902858505  1.0000
  Pt  Pt19      1.0  0.5831489400000001  0.08108134000000007  0.4958939086636841  1.0000
  Pt  Pt20      1.0  0.91174338  0.7411350800000001  0.5367053539294189  1.0000
  Pt  Pt21      1.0  0.24981559999999997  0.4144146800000001  0.45478352347359635  1.0000
