data_image0
_chemical_formula_structural       COCo6Si12
_chemical_formula_sum              "C1 O1 Co6 Si12"
_cell_length_a       6.593186506719967
_cell_length_b       5.38331424
_cell_length_c       98.99003440999999
_cell_angle_alpha    90.0
_cell_angle_beta     85.65224684142682
_cell_angle_gamma    114.09484255136974

_space_group_name_H-M_alt    "P 1"
_space_group_IT_number       1

loop_
  _space_group_symop_operation_xyz
  'x, y, z'

loop_
  _atom_site_type_symbol
  _atom_site_label
  _atom_site_symmetry_multiplicity
  _atom_site_fract_x
  _atom_site_fract_y
  _atom_site_fract_z
  _atom_site_occupancy
  C   C1        1.0  0.7843380900000001  0.9131288050000002  0.5295023810609095  1.0000
  O   O1        1.0  0.7932227100000002  0.9172563150000002  0.5415920499961193  1.0000
  Co  Co1       1.0  0.35416666999999996  0.697916665  0.48281279154776685  1.0000
  Co  Co2       1.0  0.5294174100000001  0.2854232650000001  0.5069297389263806  1.0000
  Co  Co3       1.0  0.18749999999999997  0.11458333500000004  0.45840795000388074  1.0000
  Co  Co4       1.0  0.9375000000000001  0.9895833350000001  0.4950152137840005  1.0000
  Co  Co5       1.0  0.11649158999999999  0.578984565  0.5193085788882235  1.0000
  Co  Co6       1.0  0.77083334  0.4062500050000001  0.4706103722401144  1.0000
  Si  Si1       1.0  0.23074522000000003  0.385590745  0.5009256849506268  1.0000
  Si  Si2       1.0  0.37868349999999995  0.978943285  0.5247096848722886  1.0000
  Si  Si3       1.0  0.06249999999999999  0.8020833350000001  0.47671158189394064  1.0000
  Si  Si4       1.0  0.23063014  0.8865992850000002  0.5009245223039293  1.0000
  Si  Si5       1.0  0.37869227  0.44116584500000006  0.52471300881184  1.0000
  Si  Si6       1.0  0.06249999999999999  0.30208333500000006  0.47671158189394064  1.0000
  Si  Si7       1.0  0.81963523  0.6793521450000001  0.5136791197212788  1.0000
  Si  Si8       1.0  0.47916666999999996  0.5104166650000002  0.464509159657707  1.0000
  Si  Si9       1.0  0.6458333399999999  0.09375000500000004  0.4889140041301742  1.0000
  Si  Si10      1.0  0.8196406  0.18187475500000005  0.5136837995938804  1.0000
  Si  Si11      1.0  0.47916666999999996  0.010416665000000092  0.464509159657707  1.0000
  Si  Si12      1.0  0.6458333399999999  0.5937500050000001  0.48891400413017416  1.0000
