data_image0
_chemical_formula_structural       COSb6Pd6Sb6Pd6
_chemical_formula_sum              "C1 O1 Sb12 Pd12"
_cell_length_a       11.048355718248757
_cell_length_b       7.086713526895499
_cell_length_c       103.40708757
_cell_angle_alpha    107.13522128473466
_cell_angle_beta     79.10660536847189
_cell_angle_gamma    63.54880122902672

_space_group_name_H-M_alt    "P 1"
_space_group_IT_number       1

loop_
  _space_group_symop_operation_xyz
  'x, y, z'

loop_
  _atom_site_type_symbol
  _atom_site_label
  _atom_site_symmetry_multiplicity
  _atom_site_fract_x
  _atom_site_fract_y
  _atom_site_fract_z
  _atom_site_occupancy
  C   C1        1.0  0.41659675499999993  0.6281638050000001  0.5395479918442725  1.0000
  O   O1        1.0  0.362485355  0.7023465150000001  0.5521333560387768  1.0000
  Sb  Sb1       1.0  0.04048353499999996  0.258568355  0.46132763707253227  1.0000
  Sb  Sb2       1.0  0.3738168649999999  0.258568355  0.47478862695320323  1.0000
  Sb  Sb3       1.0  0.707150195  0.258568355  0.44786664396122333  1.0000
  Sb  Sb4       1.0  0.6515946450000001  0.7585683550000001  0.4792756246569729  1.0000
  Sb  Sb5       1.0  0.984927975  0.7585683550000001  0.45235364166499303  1.0000
  Sb  Sb6       1.0  0.318261315  0.7585683550000001  0.4658146315456639  1.0000
  Pd  Pd1       1.0  0.01270575499999996  0.008568355000000027  0.47703212742040707  1.0000
  Pd  Pd2       1.0  0.3460390849999999  0.008568355000000027  0.45011014119778914  1.0000
  Pd  Pd3       1.0  0.6793724250000001  0.008568355000000027  0.4635711343090981  1.0000
  Pd  Pd4       1.0  0.8460390849999998  0.5085683550000001  0.45011014119778914  1.0000
  Pd  Pd5       1.0  0.1793724249999999  0.5085683550000001  0.4635711343090981  1.0000
  Pd  Pd6       1.0  0.5127057549999999  0.5085683550000001  0.4770321274204071  1.0000
  Sb  Sb7       1.0  0.03819993499999997  0.278011125  0.5013292815784349  1.0000
  Sb  Sb8       1.0  0.387289765  0.21450610500000003  0.5150755141878328  1.0000
  Sb  Sb9       1.0  0.707150195  0.258568355  0.48824962006451217  1.0000
  Sb  Sb10      1.0  0.6289020949999999  0.7716063150000002  0.5175594936624127  1.0000
  Sb  Sb11      1.0  0.987294245  0.760478815  0.4925764265786753  1.0000
  Sb  Sb12      1.0  0.33174334499999997  0.7414424550000002  0.5054064922245369  1.0000
  Pd  Pd7       1.0  0.04565786499999993  0.9921712450000001  0.512728613917976  1.0000
  Pd  Pd8       1.0  0.3431264049999999  0.007828755000000027  0.4903028424095936  1.0000
  Pd  Pd9       1.0  0.6813469249999999  0.009884315000000029  0.5028094436475059  1.0000
  Pd  Pd10      1.0  0.8489767850000001  0.509502285  0.48999150904766575  1.0000
  Pd  Pd11      1.0  0.19220189499999993  0.4986153650000001  0.5028238199869988  1.0000
  Pd  Pd12      1.0  0.5031834949999999  0.5139490550000001  0.518379578218566  1.0000
