data_image0
_chemical_formula_structural       COV4Ga10V4Ga10V4Ga10
_chemical_formula_sum              "C1 O1 V12 Ga30"
_cell_length_a       9.05845946
_cell_length_b       9.45410519791856
_cell_length_c       99.77002677
_cell_angle_alpha    73.36560591137972
_cell_angle_beta     90.0
_cell_angle_gamma    90.0

_space_group_name_H-M_alt    "P 1"
_space_group_IT_number       1

loop_
  _space_group_symop_operation_xyz
  'x, y, z'

loop_
  _atom_site_type_symbol
  _atom_site_label
  _atom_site_symmetry_multiplicity
  _atom_site_fract_x
  _atom_site_fract_y
  _atom_site_fract_z
  _atom_site_occupancy
  C   C1        1.0  0.306788295  0.9092426850000002  0.5403613333053916  1.0000
  O   O1        1.0  0.318111155  0.885818235  0.5526535880036634  1.0000
  V   V1        1.0  0.6812773950000001  0.841816895  0.4609094320377919  1.0000
  V   V2        1.0  0.8223526349999999  0.34181689499999995  0.4473464119963366  1.0000
  V   V3        1.0  0.18127739499999998  0.7007416550000001  0.46473624456943474  1.0000
  V   V4        1.0  0.322352635  0.200741655  0.45117322452797953  1.0000
  Ga  Ga1       1.0  0.5633560750000001  0.31464886500000006  0.46164639292572046  1.0000
  Ga  Ga2       1.0  0.7084454250000001  0.5828203350000001  0.4543719633647779  1.0000
  Ga  Ga3       1.0  0.7951846049999999  0.082820335  0.4679349834062331  1.0000
  Ga  Ga4       1.0  0.20844542499999996  0.9597382149999999  0.47127371622631353  1.0000
  Ga  Ga5       1.0  0.06335607499999997  0.22790968499999997  0.4639992836815061  1.0000
  Ga  Ga6       1.0  0.9402739549999998  0.814648865  0.44808337288426525  1.0000
  Ga  Ga7       1.0  0.440273955  0.7279096850000001  0.4504362636400509  1.0000
  Ga  Ga8       1.0  0.295184605  0.459738215  0.4577106932009935  1.0000
  Ga  Ga9       1.0  0.501815015  0.021279274999999993  0.46960434832434095  1.0000
  Ga  Ga10      1.0  0.0018150149999999763  0.521279275  0.45604132828288574  1.0000
  V   V5        1.0  0.6812773950000001  0.841816895  0.4880354751045671  1.0000
  V   V6        1.0  0.8223526349999999  0.34181689499999995  0.47447245506311186  1.0000
  V   V7        1.0  0.18127739499999998  0.7007416550000001  0.49186228763621  1.0000
  V   V8        1.0  0.322352635  0.200741655  0.4782992675947547  1.0000
  Ga  Ga11      1.0  0.5633560750000001  0.31464886500000006  0.4887724359924957  1.0000
  Ga  Ga12      1.0  0.7084454250000001  0.5828203350000001  0.48149800643155316  1.0000
  Ga  Ga13      1.0  0.7951846049999999  0.082820335  0.49506102647300837  1.0000
  Ga  Ga14      1.0  0.215360545  0.953380205  0.498884741753023  1.0000
  Ga  Ga15      1.0  0.06335607499999997  0.22790968499999997  0.49112532674828135  1.0000
  Ga  Ga16      1.0  0.9402739549999998  0.814648865  0.4752094159510405  1.0000
  Ga  Ga17      1.0  0.440273955  0.7279096850000001  0.47756230670682615  1.0000
  Ga  Ga18      1.0  0.295184605  0.459738215  0.48483673626776874  1.0000
  Ga  Ga19      1.0  0.502232195  0.01917993499999999  0.4963600102252952  1.0000
  Ga  Ga20      1.0  0.0018150149999999763  0.521279275  0.483167371349661  1.0000
  V   V9        1.0  0.687170505  0.839927565  0.5131254720797248  1.0000
  V   V10       1.0  0.8176513249999999  0.33967346500000006  0.5017865591907037  1.0000
  V   V11       1.0  0.17659301499999996  0.690854705  0.5158782395045551  1.0000
  V   V12       1.0  0.319317105  0.199882085  0.504723753329064  1.0000
  Ga  Ga21      1.0  0.563417555  0.28513326499999997  0.515780977448604  1.0000
  Ga  Ga22      1.0  0.706447435  0.567937655  0.5097612451190737  1.0000
  Ga  Ga23      1.0  0.795017925  0.06755524499999999  0.5214955350090706  1.0000
  Ga  Ga24      1.0  0.11833661499999999  0.9244547249999999  0.5255942372982993  1.0000
  Ga  Ga25      1.0  0.06402717499999998  0.21139290500000002  0.5178956304736482  1.0000
  Ga  Ga26      1.0  0.936821195  0.792035865  0.5032351121483104  1.0000
  Ga  Ga27      1.0  0.44420747499999996  0.715485735  0.50691233458758  1.0000
  Ga  Ga28      1.0  0.29363646499999996  0.439373985  0.5136707345756857  1.0000
  Ga  Ga29      1.0  0.47923396500000004  0.9808200650000001  0.5235505853353902  1.0000
  Ga  Ga30      1.0  0.998184985  0.4950164250000001  0.5126937933799917  1.0000
