data_image0
_chemical_formula_structural       COSi5Ag5Pt25
_chemical_formula_sum              "C1 O1 Si5 Ag5 Pt25"
_cell_length_a       8.197586112812095
_cell_length_b       8.921448701686726
_cell_length_c       106.46781976
_cell_angle_alpha    101.28627001510885
_cell_angle_beta     118.24044144369996
_cell_angle_gamma    77.4283468734215

_space_group_name_H-M_alt    "P 1"
_space_group_IT_number       1

loop_
  _space_group_symop_operation_xyz
  'x, y, z'

loop_
  _atom_site_type_symbol
  _atom_site_label
  _atom_site_symmetry_multiplicity
  _atom_site_fract_x
  _atom_site_fract_y
  _atom_site_fract_z
  _atom_site_occupancy
  C   C1        1.0  0.6490535350000001  0.7198956700000001  0.5396003693488126  1.0000
  O   O1        1.0  0.698621215  0.6978933800000001  0.551411204605567  1.0000
  Si  Si1       1.0  0.15159084499999997  0.41395437000000007  0.5011320360952454  1.0000
  Si  Si2       1.0  0.9505839749999999  0.8203578299999998  0.4844312890994386  1.0000
  Si  Si3       1.0  0.333624255  0.023821050000000024  0.5175440179456967  1.0000
  Si  Si4       1.0  0.7505839750000001  0.2203578300000001  0.4673050720686936  1.0000
  Si  Si5       1.0  0.5505839749999999  0.62035783  0.45017885503794863  1.0000
  Ag  Ag1       1.0  0.5505839749999999  0.62035783  0.492994397614811  1.0000
  Ag  Ag2       1.0  0.350583975  0.020357830000000025  0.47586818058406605  1.0000
  Ag  Ag3       1.0  0.7629959649999999  0.21753439000000002  0.5123104378347318  1.0000
  Ag  Ag4       1.0  0.15058397499999995  0.42035783000000004  0.4587419635533211  1.0000
  Ag  Ag5       1.0  0.9533300849999999  0.8181912199999999  0.5274478626370513  1.0000
  Pt  Pt1       1.0  0.9284370049999999  0.66107349  0.4999674464866679  1.0000
  Pt  Pt2       1.0  0.7284370050000001  0.06107349000000003  0.482841229455923  1.0000
  Pt  Pt3       1.0  0.12453383499999998  0.25728526000000007  0.5171455148520951  1.0000
  Pt  Pt4       1.0  0.528437005  0.4610734900000001  0.46571501242517793  1.0000
  Pt  Pt5       1.0  0.32843700499999995  0.8610734900000001  0.44858879539443286  1.0000
  Pt  Pt6       1.0  0.172730945  0.5796421700000001  0.48602134531771085  1.0000
  Pt  Pt7       1.0  0.972730945  0.9796421700000001  0.4688951282869659  1.0000
  Pt  Pt8       1.0  0.37412776500000006  0.18144627  0.5026703334604073  1.0000
  Pt  Pt9       1.0  0.772730945  0.37964217000000006  0.45176891125622093  1.0000
  Pt  Pt10      1.0  0.565170225  0.7688094100000001  0.5211618182604093  1.0000
  Pt  Pt11      1.0  0.828437005  0.36107349  0.4914043379712954  1.0000
  Pt  Pt12      1.0  0.628437005  0.7610734900000001  0.4742781209405504  1.0000
  Pt  Pt13      1.0  0.02726905499999998  0.96044582  0.5087793098791685  1.0000
  Pt  Pt14      1.0  0.428437005  0.16107349000000004  0.4571519039098054  1.0000
  Pt  Pt15      1.0  0.214122445  0.54785983  0.5236954365555035  1.0000
  Pt  Pt16      1.0  0.07273094499999998  0.2796421700000001  0.47745823680233834  1.0000
  Pt  Pt17      1.0  0.8727309449999999  0.6796421700000002  0.4603320197715933  1.0000
  Pt  Pt18      1.0  0.272730945  0.8796421700000001  0.49458445383308336  1.0000
  Pt  Pt19      1.0  0.6449066549999999  0.06405476000000002  0.5271015602529594  1.0000
  Pt  Pt20      1.0  0.47952169499999997  0.47698234000000006  0.5113577098065549  1.0000
  Pt  Pt21      1.0  0.8540426649999999  0.5147360300000001  0.5183683507247943  1.0000
  Pt  Pt22      1.0  0.6530007649999999  0.91789909  0.5017755160224983  1.0000
  Pt  Pt23      1.0  0.050583974999999975  0.12035783  0.4501788550379487  1.0000
  Pt  Pt24      1.0  0.45058397499999997  0.32035783000000007  0.4844312890994386  1.0000
  Pt  Pt25      1.0  0.25058397499999996  0.7203578300000001  0.4673050720686936  1.0000
