data_image0
_chemical_formula_structural       COPt3Rh9Pt3Rh9Pt3Rh9Pt3Rh9
_chemical_formula_sum              "C1 O1 Pt12 Rh36"
_cell_length_a       8.68204760948731
_cell_length_b       7.76545946
_cell_length_c       102.94605426
_cell_angle_alpha    90.0
_cell_angle_beta     108.43494882292202
_cell_angle_gamma    90.0

_space_group_name_H-M_alt    "P 1"
_space_group_IT_number       1

loop_
  _space_group_symop_operation_xyz
  'x, y, z'

loop_
  _atom_site_type_symbol
  _atom_site_label
  _atom_site_symmetry_multiplicity
  _atom_site_fract_x
  _atom_site_fract_y
  _atom_site_fract_z
  _atom_site_occupancy
  C   C1        1.0  0.5290899050000001  0.376236705  0.5472754891356153  1.0000
  O   O1        1.0  0.5869425750000001  0.37585726499999994  0.5596209656362423  1.0000
  Pt  Pt1       1.0  0.912060825  0.375975145  0.5367355608114438  1.0000
  Pt  Pt2       1.0  0.584668045  0.37597494499999995  0.5026075201162656  1.0000
  Pt  Pt3       1.0  0.241838985  0.37596865500000004  0.5201633867812707  1.0000
  Rh  Rh1       1.0  0.07870666500000002  0.12716150499999998  0.5287190385352194  1.0000
  Rh  Rh2       1.0  0.751334715  0.12597494499999998  0.49371773552295817  1.0000
  Rh  Rh3       1.0  0.415621985  0.12401512499999999  0.5114610994645521  1.0000
  Rh  Rh4       1.0  0.7477848750000001  0.12431972499999998  0.5209328946527086  1.0000
  Rh  Rh5       1.0  0.41622035500000004  0.141883105  0.5371875199131505  1.0000
  Rh  Rh6       1.0  0.08466804500000003  0.12597494499999998  0.5026075201162656  1.0000
  Rh  Rh7       1.0  0.914031055  0.375958735  0.5111296260929392  1.0000
  Rh  Rh8       1.0  0.584997075  0.375947255  0.5292142595923927  1.0000
  Rh  Rh9       1.0  0.25133471500000004  0.37597494499999995  0.49371773552295817  1.0000
  Pt  Pt4       1.0  0.9180013750000001  0.37597494499999995  0.4848279509296507  1.0000
  Pt  Pt5       1.0  0.584668045  0.37597494499999995  0.44926881575674305  1.0000
  Pt  Pt6       1.0  0.25133471500000004  0.37597494499999995  0.467048384943358  1.0000
  Rh  Rh10      1.0  0.08466804500000003  0.12597494499999998  0.47593816953666535  1.0000
  Rh  Rh11      1.0  0.751334715  0.12597494499999998  0.44037903436375775  1.0000
  Rh  Rh12      1.0  0.418001375  0.12597494499999998  0.4581586003500505  1.0000
  Rh  Rh13      1.0  0.751334715  0.12597494499999998  0.46704838494335793  1.0000
  Rh  Rh14      1.0  0.418001375  0.12597494499999998  0.4848279509296507  1.0000
  Rh  Rh15      1.0  0.08466804500000003  0.12597494499999998  0.449268815756743  1.0000
  Rh  Rh16      1.0  0.9180013750000001  0.37597494499999995  0.45815860035005046  1.0000
  Rh  Rh17      1.0  0.584668045  0.37597494499999995  0.4759381695366654  1.0000
  Rh  Rh18      1.0  0.25133471500000004  0.37597494499999995  0.4403790343637577  1.0000
  Pt  Pt7       1.0  0.912112145  0.875984875  0.5368048989921762  1.0000
  Pt  Pt8       1.0  0.584668045  0.8759749450000001  0.5026075201162656  1.0000
  Pt  Pt9       1.0  0.251661275  0.875958655  0.5217042779129544  1.0000
  Rh  Rh19      1.0  0.07868338500000002  0.6247580149999999  0.5287195441861265  1.0000
  Rh  Rh20      1.0  0.751334715  0.625974945  0.49371773552295817  1.0000
  Rh  Rh21      1.0  0.41562283499999997  0.628015765  0.511457486300791  1.0000
  Rh  Rh22      1.0  0.7477919450000001  0.6276386249999999  0.5209338259464681  1.0000
  Rh  Rh23      1.0  0.416224185  0.609955705  0.5371895169142018  1.0000
  Rh  Rh24      1.0  0.08466804500000003  0.625974945  0.5026075201162656  1.0000
  Rh  Rh25      1.0  0.921316615  0.875967675  0.5113398360561641  1.0000
  Rh  Rh26      1.0  0.5774386450000001  0.8759683149999999  0.5288736429002615  1.0000
  Rh  Rh27      1.0  0.25133471500000004  0.8759749450000001  0.49371773552295817  1.0000
  Pt  Pt10      1.0  0.9180013750000001  0.8759749450000001  0.4848279509296507  1.0000
  Pt  Pt11      1.0  0.584668045  0.8759749450000001  0.44926881575674305  1.0000
  Pt  Pt12      1.0  0.25133471500000004  0.8759749450000001  0.467048384943358  1.0000
  Rh  Rh28      1.0  0.08466804500000003  0.625974945  0.47593816953666535  1.0000
  Rh  Rh29      1.0  0.751334715  0.625974945  0.44037903436375775  1.0000
  Rh  Rh30      1.0  0.418001375  0.625974945  0.4581586003500505  1.0000
  Rh  Rh31      1.0  0.751334715  0.625974945  0.46704838494335793  1.0000
  Rh  Rh32      1.0  0.418001375  0.625974945  0.4848279509296507  1.0000
  Rh  Rh33      1.0  0.08466804500000003  0.625974945  0.449268815756743  1.0000
  Rh  Rh34      1.0  0.9180013750000001  0.8759749450000001  0.45815860035005046  1.0000
  Rh  Rh35      1.0  0.584668045  0.8759749450000001  0.4759381695366654  1.0000
  Rh  Rh36      1.0  0.25133471500000004  0.8759749450000001  0.4403790343637577  1.0000
