data_image0
_chemical_formula_structural       COV3Pt9V3Pt9
_chemical_formula_sum              "C1 O1 V6 Pt18"
_cell_length_a       5.55655887
_cell_length_b       5.556558873328133
_cell_length_c       104.02683492
_cell_angle_alpha    90.0
_cell_angle_beta     90.0
_cell_angle_gamma    59.999999960280526

_space_group_name_H-M_alt    "P 1"
_space_group_IT_number       1

loop_
  _space_group_symop_operation_xyz
  'x, y, z'

loop_
  _atom_site_type_symbol
  _atom_site_label
  _atom_site_symmetry_multiplicity
  _atom_site_fract_x
  _atom_site_fract_y
  _atom_site_fract_z
  _atom_site_occupancy
  C   C1        1.0  0.24054555000000002  0.610433505  0.556570874648664  1.0000
  O   O1        1.0  0.23237838  0.626759175  0.5679883192416703  1.0000
  V   V1        1.0  0.66872725  0.7540413750000001  0.43201168075832974  1.0000
  V   V2        1.0  0.0020605799999999725  0.08737470500000002  0.4756245769211445  1.0000
  V   V3        1.0  0.33539391  0.420708035  0.4538181288397371  1.0000
  Pt  Pt1       1.0  0.8353939100000001  0.420708035  0.4538181288397371  1.0000
  Pt  Pt2       1.0  0.1687272499999999  0.7540413750000001  0.43201168075832974  1.0000
  Pt  Pt3       1.0  0.50206058  0.08737470500000002  0.4756245769211445  1.0000
  Pt  Pt4       1.0  0.33539390999999996  0.920708035  0.4538181288397371  1.0000
  Pt  Pt5       1.0  0.66872725  0.254041375  0.43201168075832974  1.0000
  Pt  Pt6       1.0  0.0020605799999999677  0.587374705  0.4756245769211445  1.0000
  Pt  Pt7       1.0  0.8353939100000002  0.920708035  0.4538181288397371  1.0000
  Pt  Pt8       1.0  0.16872724999999994  0.254041375  0.43201168075832974  1.0000
  Pt  Pt9       1.0  0.50206058  0.587374705  0.4756245769211445  1.0000
  V   V4        1.0  0.66872725  0.7540413750000001  0.4974310217315849  1.0000
  V   V5        1.0  0.99793942  0.09565399500000002  0.5400290447611122  1.0000
  V   V6        1.0  0.34275882999999996  0.40599508500000003  0.5206998668449765  1.0000
  Pt  Pt10      1.0  0.8409192499999998  0.40968661500000003  0.5197965925654554  1.0000
  Pt  Pt11      1.0  0.1687272499999999  0.7540413750000001  0.4974310217315849  1.0000
  Pt  Pt12      1.0  0.5061028  0.07929196500000002  0.5407617348380785  1.0000
  Pt  Pt13      1.0  0.3405175099999998  0.9085928350000001  0.5190346992946785  1.0000
  Pt  Pt14      1.0  0.66872725  0.254041375  0.4974310217315849  1.0000
  Pt  Pt15      1.0  0.00859931999999996  0.576514445  0.5421965576178426  1.0000
  Pt  Pt16      1.0  0.84239145  0.9086041350000001  0.5190346469592058  1.0000
  Pt  Pt17      1.0  0.16872724999999994  0.254041375  0.4974310217315849  1.0000
  Pt  Pt18      1.0  0.5064377799999998  0.5764831650000001  0.5421972216241535  1.0000
