data_image0
_chemical_formula_structural       COV6Pd18V6Pd18
_chemical_formula_sum              "C1 O1 V12 Pd36"
_cell_length_a       8.70985513920161
_cell_length_b       8.784606569171986
_cell_length_c       108.56017249
_cell_angle_alpha    108.27250842700306
_cell_angle_beta     71.56505119788031
_cell_angle_gamma    78.56254426318418

_space_group_name_H-M_alt    "P 1"
_space_group_IT_number       1

loop_
  _space_group_symop_operation_xyz
  'x, y, z'

loop_
  _atom_site_type_symbol
  _atom_site_label
  _atom_site_symmetry_multiplicity
  _atom_site_fract_x
  _atom_site_fract_y
  _atom_site_fract_z
  _atom_site_occupancy
  C   C1        1.0  0.476542405  0.99828996  0.5447004004585679  1.0000
  O   O1        1.0  0.4433056449999999  0.08204938999999999  0.5567355809058915  1.0000
  V   V1        1.0  0.04166666499999999  0.005617299999999991  0.48554969422248806  1.0000
  V   V2        1.0  0.374999995  0.005617299999999991  0.45172147269899926  1.0000
  V   V3        1.0  0.708333335  0.005617299999999991  0.46863558346074363  1.0000
  V   V4        1.0  0.874999995  0.5056172999999999  0.47709263706563426  1.0000
  V   V5        1.0  0.20833333500000004  0.5056172999999999  0.44326441909410863  1.0000
  V   V6        1.0  0.541666665  0.5056172999999999  0.460178529855853  1.0000
  Pd  Pd1       1.0  0.12499999500000003  0.25561729999999994  0.45172147269899926  1.0000
  Pd  Pd2       1.0  0.458333335  0.25561729999999994  0.46863558346074363  1.0000
  Pd  Pd3       1.0  0.791666665  0.25561729999999994  0.485549694222488  1.0000
  Pd  Pd4       1.0  0.791666665  0.25561729999999994  0.46017852985585295  1.0000
  Pd  Pd5       1.0  0.12499999500000003  0.25561729999999994  0.47709263706563426  1.0000
  Pd  Pd6       1.0  0.458333335  0.25561729999999994  0.44326441909410863  1.0000
  Pd  Pd7       1.0  0.04166666499999999  0.005617299999999991  0.460178529855853  1.0000
  Pd  Pd8       1.0  0.374999995  0.005617299999999991  0.47709263706563426  1.0000
  Pd  Pd9       1.0  0.708333335  0.005617299999999991  0.44326441909410863  1.0000
  Pd  Pd10      1.0  0.624999995  0.7556172999999999  0.47709263706563426  1.0000
  Pd  Pd11      1.0  0.9583333349999998  0.7556172999999999  0.44326441909410863  1.0000
  Pd  Pd12      1.0  0.29166666499999994  0.7556172999999999  0.46017852985585295  1.0000
  Pd  Pd13      1.0  0.9583333349999998  0.7556172999999999  0.4686355834607436  1.0000
  Pd  Pd14      1.0  0.29166666499999994  0.7556172999999999  0.485549694222488  1.0000
  Pd  Pd15      1.0  0.624999995  0.7556172999999999  0.45172147269899926  1.0000
  Pd  Pd16      1.0  0.874999995  0.5056172999999999  0.45172147269899926  1.0000
  Pd  Pd17      1.0  0.20833333500000004  0.5056172999999999  0.4686355834607437  1.0000
  Pd  Pd18      1.0  0.541666665  0.5056172999999999  0.48554969422248806  1.0000
  V   V7        1.0  0.07796532500000003  0.9852424799999999  0.5325858620520582  1.0000
  V   V8        1.0  0.374999995  0.005617299999999991  0.5024638049842324  1.0000
  V   V9        1.0  0.7145334949999999  0.9979231399999999  0.5178438122348128  1.0000
  V   V10       1.0  0.8804826749999998  0.49152698999999994  0.5250622892089555  1.0000
  V   V11       1.0  0.20833333500000004  0.5056172999999999  0.49400674782737863  1.0000
  V   V12       1.0  0.5386023649999999  0.50111394  0.5117099556035757  1.0000
  Pd  Pd19      1.0  0.12499999500000003  0.25561729999999994  0.5024638049842324  1.0000
  Pd  Pd20      1.0  0.4601410449999999  0.24774385999999995  0.5194915004214248  1.0000
  Pd  Pd21      1.0  0.7915499049999999  0.21697904999999995  0.5355245005650675  1.0000
  Pd  Pd22      1.0  0.794153025  0.24959526999999995  0.5105443469504288  1.0000
  Pd  Pd23      1.0  0.128073235  0.24022114999999997  0.5276880352940391  1.0000
  Pd  Pd24      1.0  0.458333335  0.25561729999999994  0.49400674782737863  1.0000
  Pd  Pd25      1.0  0.044592304999999936  0.0017100400000000793  0.510458623873399  1.0000
  Pd  Pd26      1.0  0.37301244499999997  0.01597732999999999  0.5302529113877802  1.0000
  Pd  Pd27      1.0  0.708333335  0.005617299999999991  0.49400674782737863  1.0000
  Pd  Pd28      1.0  0.6323345749999999  0.76848933  0.5290807564666725  1.0000
  Pd  Pd29      1.0  0.9583333349999998  0.7556172999999999  0.49400674782737863  1.0000
  Pd  Pd30      1.0  0.29675139500000003  0.74855526  0.5104959514534316  1.0000
  Pd  Pd31      1.0  0.9573054649999999  0.7653421300000001  0.5206152278778674  1.0000
  Pd  Pd32      1.0  0.29711835500000006  0.74538127  0.5354245767396344  1.0000
  Pd  Pd33      1.0  0.624999995  0.7556172999999999  0.5024638049842324  1.0000
  Pd  Pd34      1.0  0.874999995  0.5056172999999999  0.5024638049842324  1.0000
  Pd  Pd35      1.0  0.193476455  0.50758871  0.5206249389449346  1.0000
  Pd  Pd36      1.0  0.563772665  0.5041712899999999  0.5356912012964493  1.0000
