data_image0
_chemical_formula_structural       COCo16Sb32
_chemical_formula_sum              "C1 O1 Co16 Sb32"
_cell_length_a       11.27118712516202
_cell_length_b       14.660672337234766
_cell_length_c       107.74178607
_cell_angle_alpha    87.89343319078118
_cell_angle_beta     90.30493533311737
_cell_angle_gamma    40.05927868944134

_space_group_name_H-M_alt    "P 1"
_space_group_IT_number       1

loop_
  _space_group_symop_operation_xyz
  'x, y, z'

loop_
  _atom_site_type_symbol
  _atom_site_label
  _atom_site_symmetry_multiplicity
  _atom_site_fract_x
  _atom_site_fract_y
  _atom_site_fract_z
  _atom_site_occupancy
  C   C1        1.0  0.29115704999999986  0.7935926800000003  0.5437622959585472  1.0000
  O   O1        1.0  0.2952181899999997  0.7843675600000003  0.554590870322332  1.0000
  Co  Co1       1.0  0.8895684999999998  0.20607075000000025  0.5000780727782338  1.0000
  Co  Co2       1.0  0.6395685000000002  0.9560707500000001  0.4781844165152641  1.0000
  Co  Co3       1.0  0.12690690999999996  0.4658737900000002  0.5199049363631141  1.0000
  Co  Co4       1.0  0.3895685  0.7060707500000001  0.4562907602522943  1.0000
  Co  Co5       1.0  0.4758551999999999  0.35767421000000016  0.4695673746668694  1.0000
  Co  Co6       1.0  0.22585519999999998  0.10767421000000015  0.4476737184038996  1.0000
  Co  Co7       1.0  0.7258551999999999  0.6076742100000001  0.4914610309298391  1.0000
  Co  Co8       1.0  0.9897967500000002  0.8490211999999999  0.5136037634383964  1.0000
  Co  Co9       1.0  0.59341815  0.48452073  0.5220908095133642  1.0000
  Co  Co10      1.0  0.35258763000000004  0.23439806000000013  0.502581722715932  1.0000
  Co  Co11      1.0  0.8515996999999996  0.7319297100000002  0.45868574759522823  1.0000
  Co  Co12      1.0  0.10159969999999992  0.9819297100000001  0.48057940385819786  1.0000
  Co  Co13      1.0  0.015312999999999941  0.33032625000000015  0.4673027859406378  1.0000
  Co  Co14      1.0  0.7653129999999999  0.08032625000000028  0.44540912967766816  1.0000
  Co  Co15      1.0  0.2653129999999999  0.5803262500000003  0.4891964422036076  1.0000
  Co  Co16      1.0  0.5118202899999998  0.8373400400000002  0.5117106802835749  1.0000
  Sb  Sb1       1.0  0.46103588  0.5374513000000001  0.4727323741610193  1.0000
  Sb  Sb2       1.0  0.21103587999999998  0.28745130000000013  0.45083871789804963  1.0000
  Sb  Sb3       1.0  0.7110358800000001  0.7874513  0.49462603042398906  1.0000
  Sb  Sb4       1.0  0.9532342099999997  0.03938852000000031  0.5170198218676452  1.0000
  Sb  Sb5       1.0  0.7607513  0.16993016000000016  0.48433415890132714  1.0000
  Sb  Sb6       1.0  0.5107513000000002  0.91993016  0.46244050263835745  1.0000
  Sb  Sb7       1.0  0.010203250000000053  0.41629993000000004  0.50643568930029  1.0000
  Sb  Sb8       1.0  0.2736329300000001  0.6625181500000001  0.5279524734188266  1.0000
  Sb  Sb9       1.0  0.030132319999999966  0.15054915000000016  0.46413778994947286  1.0000
  Sb  Sb10      1.0  0.7967456500000002  0.88553239  0.5308567982840471  1.0000
  Sb  Sb11      1.0  0.28013231999999993  0.40054915000000024  0.4860314462124426  1.0000
  Sb  Sb12      1.0  0.5242676  0.6596264200000002  0.5085307825942111  1.0000
  Sb  Sb13      1.0  0.7304168999999998  0.5180702900000002  0.45253600170618  1.0000
  Sb  Sb14      1.0  0.46906116999999997  0.2777480100000002  0.5196706672351304  1.0000
  Sb  Sb15      1.0  0.9804169  0.76807029  0.4744296579691498  1.0000
  Sb  Sb16      1.0  0.23041689999999995  0.01807029000000016  0.4963233142321196  1.0000
  Sb  Sb17      1.0  0.8066270799999999  0.3945502100000001  0.4851486519560997  1.0000
  Sb  Sb18      1.0  0.5566270799999998  0.14455021000000026  0.46325499569312995  1.0000
  Sb  Sb19      1.0  0.06381763999999987  0.6445468500000002  0.5072422060582128  1.0000
  Sb  Sb20      1.0  0.2659487199999999  0.9652516000000002  0.5288517457166192  1.0000
  Sb  Sb21      1.0  0.19984061  0.5281507600000003  0.4530613583788813  1.0000
  Sb  Sb22      1.0  0.9361107700000002  0.27942179000000006  0.5192052571447696  1.0000
  Sb  Sb23      1.0  0.4498406099999999  0.7781507600000002  0.47495501464185097  1.0000
  Sb  Sb24      1.0  0.69984061  0.028150760000000167  0.49684867090482077  1.0000
  Sb  Sb25      1.0  0.6845411199999999  0.2934502500000002  0.45172151215439255  1.0000
  Sb  Sb26      1.0  0.4600816299999999  0.03795400000000018  0.5169955076487456  1.0000
  Sb  Sb27      1.0  0.9345411199999999  0.5434502500000004  0.47361516841736223  1.0000
  Sb  Sb28      1.0  0.18454111999999995  0.7934502500000001  0.49550882468033197  1.0000
  Sb  Sb29      1.0  0.29132758999999997  0.15984970000000012  0.48380880573161095  1.0000
  Sb  Sb30      1.0  0.04132758999999995  0.9098497000000001  0.4619151494686412  1.0000
  Sb  Sb31      1.0  0.5394418  0.4074754600000001  0.5053250013486671  1.0000
  Sb  Sb32      1.0  0.8084711499999999  0.6771841100000001  0.5270088463249375  1.0000
