data_image0
_chemical_formula_structural       COSiSnPt5SiSnPt5SiSnPt5SiSnPt5
_chemical_formula_sum              "C1 O1 Si4 Sn4 Pt20"
_cell_length_a       8.06131862
_cell_length_b       8.195989133926147
_cell_length_c       102.24527448
_cell_angle_alpha    119.45793031270446
_cell_angle_beta     90.0
_cell_angle_gamma    90.0

_space_group_name_H-M_alt    "P 1"
_space_group_IT_number       1

loop_
  _space_group_symop_operation_xyz
  'x, y, z'

loop_
  _atom_site_type_symbol
  _atom_site_label
  _atom_site_symmetry_multiplicity
  _atom_site_fract_x
  _atom_site_fract_y
  _atom_site_fract_z
  _atom_site_occupancy
  C   C1        1.0  0.37641109  0.790804015  0.5355048312407207  1.0000
  O   O1        1.0  0.37641997000000005  0.826849655  0.5480392858957477  1.0000
  Si  Si1       1.0  0.12640008000000003  0.5028469050000001  0.46362986427692343  1.0000
  Sn  Sn1       1.0  0.37640008  0.002846905000000039  0.46362986427692343  1.0000
  Pt  Pt1       1.0  0.37640008  0.298856885  0.45558827803415064  1.0000
  Pt  Pt2       1.0  0.37640008  0.7068369250000001  0.4716714505196962  1.0000
  Pt  Pt3       1.0  0.12640008000000003  0.298856885  0.4752990144495946  1.0000
  Pt  Pt4       1.0  0.12640008000000003  0.7068369250000001  0.4519607141042523  1.0000
  Pt  Pt5       1.0  0.12640008000000003  0.002846905000000039  0.48334060069236745  1.0000
  Si  Si2       1.0  0.12401734000000002  0.5103008849999999  0.5037672594378807  1.0000
  Sn  Sn2       1.0  0.37638626000000003  0.007503455000000038  0.5038545354250106  1.0000
  Pt  Pt6       1.0  0.37640248000000004  0.31709360500000006  0.4948568838545538  1.0000
  Pt  Pt7       1.0  0.37637258  0.7186115850000001  0.514936024971615  1.0000
  Pt  Pt8       1.0  0.13109654000000004  0.28345000500000006  0.5129674333059998  1.0000
  Pt  Pt9       1.0  0.12640008000000003  0.7068369250000001  0.49138218693514024  1.0000
  Pt  Pt10      1.0  0.12359992000000002  0.9971458950000001  0.5208639737584977  1.0000
  Si  Si3       1.0  0.62640008  0.5028469050000001  0.46362986427692343  1.0000
  Sn  Sn3       1.0  0.8764000799999999  0.002846905000000039  0.46362986427692343  1.0000
  Pt  Pt11      1.0  0.8764000799999999  0.298856885  0.45558827803415064  1.0000
  Pt  Pt12      1.0  0.8764000799999999  0.7068369250000001  0.4716714505196962  1.0000
  Pt  Pt13      1.0  0.62640008  0.298856885  0.4752990144495946  1.0000
  Pt  Pt14      1.0  0.62640008  0.7068369250000001  0.4519607141042523  1.0000
  Pt  Pt15      1.0  0.62640008  0.002846905000000039  0.48334060069236745  1.0000
  Si  Si4       1.0  0.62876379  0.510334575  0.5037684578506548  1.0000
  Sn  Sn4       1.0  0.8763693100000001  0.018720365000000037  0.5043225881487905  1.0000
  Pt  Pt16      1.0  0.8763875600000001  0.30687384500000003  0.4949526054980229  1.0000
  Pt  Pt17      1.0  0.87639798  0.7052266949999999  0.5106699404082623  1.0000
  Pt  Pt18      1.0  0.62168694  0.283459195  0.5129682280428922  1.0000
  Pt  Pt19      1.0  0.62640008  0.7068369250000001  0.49138218693514024  1.0000
  Pt  Pt20      1.0  0.62916309  0.9971530949999999  0.5208657240718914  1.0000
