data_image0
_chemical_formula_structural       COV6Ga2V6Ga2
_chemical_formula_sum              "C1 O1 V12 Ga4"
_cell_length_a       4.80262871
_cell_length_b       4.80262871
_cell_length_c       103.61840097000001
_cell_angle_alpha    90.0
_cell_angle_beta     90.0
_cell_angle_gamma    90.0

_space_group_name_H-M_alt    "P 1"
_space_group_IT_number       1

loop_
  _space_group_symop_operation_xyz
  'x, y, z'

loop_
  _atom_site_type_symbol
  _atom_site_label
  _atom_site_symmetry_multiplicity
  _atom_site_fract_x
  _atom_site_fract_y
  _atom_site_fract_z
  _atom_site_occupancy
  C   C1        1.0  0.43596567  0.12049164999999995  0.5374505860198958  1.0000
  O   O1        1.0  0.5638464000000001  0.12222913999999996  0.5482957244432667  1.0000
  V   V1        1.0  0.37168324  0.36458417  0.5209110346056548  1.0000
  V   V2        1.0  0.37171424  0.87950835  0.5209485501016263  1.0000
  V   V3        1.0  0.8502612600000001  0.12153231999999997  0.5331437272690689  1.0000
  V   V4        1.0  0.8740251400000001  0.12183897999999996  0.5104769509052889  1.0000
  V   V5        1.0  0.625  0.62169922  0.49805346551887053  1.0000
  V   V6        1.0  0.12500000000000006  0.62169922  0.49805346551887053  1.0000
  Ga  Ga1       1.0  0.87356528  0.62177461  0.521928907261552  1.0000
  Ga  Ga2       1.0  0.37500000000000006  0.12169921999999996  0.49805346551887053  1.0000
  V   V7        1.0  0.37500000000000006  0.37169921999999994  0.4748788689155803  1.0000
  V   V8        1.0  0.37500000000000006  0.87169922  0.4748788689155803  1.0000
  V   V9        1.0  0.875  0.12169921999999996  0.48646616721722546  1.0000
  V   V10       1.0  0.875  0.12169921999999996  0.4632915738583784  1.0000
  V   V11       1.0  0.625  0.62169922  0.4517042755567333  1.0000
  V   V12       1.0  0.12500000000000006  0.62169922  0.4517042755567333  1.0000
  Ga  Ga3       1.0  0.875  0.62169922  0.4748788689155803  1.0000
  Ga  Ga4       1.0  0.37500000000000006  0.12169921999999996  0.4517042755567333  1.0000
