data_image0
_chemical_formula_structural       COPd9Au3Pd9Au3Pd9Au3Pd9Au3
_chemical_formula_sum              "C1 O1 Pd36 Au12"
_cell_length_a       8.06501036
_cell_length_b       9.016955699102567
_cell_length_c       104.2169411
_cell_angle_alpha    71.56505115698417
_cell_angle_beta     90.0
_cell_angle_gamma    90.0

_space_group_name_H-M_alt    "P 1"
_space_group_IT_number       1

loop_
  _space_group_symop_operation_xyz
  'x, y, z'

loop_
  _atom_site_type_symbol
  _atom_site_label
  _atom_site_symmetry_multiplicity
  _atom_site_fract_x
  _atom_site_fract_y
  _atom_site_fract_z
  _atom_site_occupancy
  C   C1        1.0  0.62364454  0.46836733  0.5483412956737733  1.0000
  O   O1        1.0  0.62364196  0.40399404  0.5603943551756411  1.0000
  Pd  Pd1       1.0  0.1236457  0.7512962200000001  0.43960564482435893  1.0000
  Pd  Pd2       1.0  0.1236457  0.41796288000000004  0.4760861082336387  1.0000
  Pd  Pd3       1.0  0.1236457  0.08462955000000004  0.45784587817061967  1.0000
  Pd  Pd4       1.0  0.37364569999999997  0.91796288  0.44872576149748933  1.0000
  Pd  Pd5       1.0  0.37364569999999997  0.58462955  0.4852062249067691  1.0000
  Pd  Pd6       1.0  0.37364569999999997  0.25129622  0.46696599484375007  1.0000
  Pd  Pd7       1.0  0.37364569999999997  0.58462955  0.45784587817061967  1.0000
  Pd  Pd8       1.0  0.37364569999999997  0.25129622  0.439605644824359  1.0000
  Pd  Pd9       1.0  0.37364569999999997  0.91796288  0.4760861082336388  1.0000
  Au  Au1       1.0  0.1236457  0.7512962200000001  0.46696599484375007  1.0000
  Au  Au2       1.0  0.1236457  0.41796288000000004  0.44872576149748933  1.0000
  Au  Au3       1.0  0.1236457  0.08462955000000004  0.4852062249067691  1.0000
  Pd  Pd10      1.0  0.1236457  0.7512962200000001  0.4943263415798996  1.0000
  Pd  Pd11      1.0  0.12362697  0.42110755  0.5309268764228408  1.0000
  Pd  Pd12      1.0  0.12363361  0.08278980000000005  0.5123083184141598  1.0000
  Pd  Pd13      1.0  0.37364569999999997  0.91796288  0.5034464582530299  1.0000
  Pd  Pd14      1.0  0.40290489  0.5840297700000001  0.5395647866649079  1.0000
  Pd  Pd15      1.0  0.37226675  0.25369528  0.5219640270290404  1.0000
  Pd  Pd16      1.0  0.37154713000000006  0.58742075  0.5124753500544237  1.0000
  Pd  Pd17      1.0  0.37364569999999997  0.25129622  0.4943263415798996  1.0000
  Pd  Pd18      1.0  0.37091859  0.92154113  0.5306501024274285  1.0000
  Au  Au4       1.0  0.12364442  0.74464167  0.5236344058132719  1.0000
  Au  Au5       1.0  0.1236457  0.41796288000000004  0.5034464582530299  1.0000
  Au  Au6       1.0  0.12364976000000001  0.08947848000000004  0.5391629441419065  1.0000
  Pd  Pd19      1.0  0.6236457  0.7512962200000001  0.43960564482435893  1.0000
  Pd  Pd20      1.0  0.6236457  0.41796288000000004  0.4760861082336387  1.0000
  Pd  Pd21      1.0  0.6236457  0.08462955000000004  0.45784587817061967  1.0000
  Pd  Pd22      1.0  0.8736457  0.91796288  0.44872576149748933  1.0000
  Pd  Pd23      1.0  0.8736457  0.58462955  0.4852062249067691  1.0000
  Pd  Pd24      1.0  0.8736457  0.25129622  0.46696599484375007  1.0000
  Pd  Pd25      1.0  0.8736457  0.58462955  0.45784587817061967  1.0000
  Pd  Pd26      1.0  0.8736457  0.25129622  0.439605644824359  1.0000
  Pd  Pd27      1.0  0.8736457  0.91796288  0.4760861082336388  1.0000
  Au  Au7       1.0  0.6236457  0.7512962200000001  0.46696599484375007  1.0000
  Au  Au8       1.0  0.6236457  0.41796288000000004  0.44872576149748933  1.0000
  Au  Au9       1.0  0.6236457  0.08462955000000004  0.4852062249067691  1.0000
  Pd  Pd28      1.0  0.6236457  0.7512962200000001  0.4943263415798996  1.0000
  Pd  Pd29      1.0  0.62364287  0.40561276  0.5310573360333665  1.0000
  Pd  Pd30      1.0  0.62364147  0.08944874000000004  0.5121940550351359  1.0000
  Pd  Pd31      1.0  0.8736457  0.91796288  0.5034464582530299  1.0000
  Pd  Pd32      1.0  0.84437946  0.5840418700000001  0.539563952721506  1.0000
  Pd  Pd33      1.0  0.8750250900000001  0.25368803000000006  0.5219634590282195  1.0000
  Pd  Pd34      1.0  0.87573826  0.58741719  0.5124735836703677  1.0000
  Pd  Pd35      1.0  0.8736457  0.25129622  0.4943263415798996  1.0000
  Pd  Pd36      1.0  0.87637303  0.92155005  0.5306512055966531  1.0000
  Au  Au10      1.0  0.6236392099999999  0.76218076  0.521295345600131  1.0000
  Au  Au11      1.0  0.6236457  0.41796288000000004  0.5034464582530299  1.0000
  Au  Au12      1.0  0.6236424899999999  0.07844995000000005  0.5391961738315537  1.0000
