data_image0
_chemical_formula_structural       COIr6Rh2Ir6Rh2Ir6Rh2Ir6Rh2
_chemical_formula_sum              "C1 O1 Ir24 Rh8"
_cell_length_a       7.75066148
_cell_length_b       7.74749988
_cell_length_c       101.00264591999999
_cell_angle_alpha    90.0
_cell_angle_beta     90.0
_cell_angle_gamma    90.0

_space_group_name_H-M_alt    "P 1"
_space_group_IT_number       1

loop_
  _space_group_symop_operation_xyz
  'x, y, z'

loop_
  _atom_site_type_symbol
  _atom_site_label
  _atom_site_symmetry_multiplicity
  _atom_site_fract_x
  _atom_site_fract_y
  _atom_site_fract_z
  _atom_site_occupancy
  C   C1        1.0  0.37511781000000005  0.623717145  0.5285800042691073  1.0000
  O   O1        1.0  0.37511409  0.6237304550000001  0.5406527537185517  1.0000
  Ir  Ir1       1.0  0.12510425000000003  0.37373398500000005  0.45934724628144824  1.0000
  Ir  Ir2       1.0  0.3751042500000001  0.37373398500000005  0.47853154934945646  1.0000
  Ir  Ir3       1.0  0.3751042500000001  0.123733985  0.45934724628144824  1.0000
  Ir  Ir4       1.0  0.3751042500000001  0.8737339850000001  0.47853154934945646  1.0000
  Ir  Ir5       1.0  0.12510425000000003  0.8737339850000001  0.45934724628144824  1.0000
  Ir  Ir6       1.0  0.12510425000000003  0.623733985  0.47853154934945646  1.0000
  Rh  Rh1       1.0  0.12510425000000003  0.123733985  0.47853154934945646  1.0000
  Rh  Rh2       1.0  0.3751042500000001  0.623733985  0.45934724628144824  1.0000
  Ir  Ir7       1.0  0.12496947000000003  0.371201335  0.4977765423439064  1.0000
  Ir  Ir8       1.0  0.37510465000000004  0.381040775  0.5163848712440432  1.0000
  Ir  Ir9       1.0  0.37508097  0.123732545  0.4980159133343792  1.0000
  Ir  Ir10      1.0  0.37510021000000004  0.8664276550000001  0.5163845182528667  1.0000
  Ir  Ir11      1.0  0.12496835000000002  0.8762674550000001  0.4977771101992772  1.0000
  Ir  Ir12      1.0  0.12488568000000003  0.6237343150000001  0.5162955245730505  1.0000
  Rh  Rh3       1.0  0.12552854000000002  0.123742375  0.516544260572909  1.0000
  Rh  Rh4       1.0  0.37509479000000007  0.623735415  0.49723237728526587  1.0000
  Ir  Ir13      1.0  0.62510425  0.37373398500000005  0.45934724628144824  1.0000
  Ir  Ir14      1.0  0.8751042500000001  0.37373398500000005  0.47853154934945646  1.0000
  Ir  Ir15      1.0  0.8751042500000001  0.123733985  0.45934724628144824  1.0000
  Ir  Ir16      1.0  0.8751042500000001  0.8737339850000001  0.47853154934945646  1.0000
  Ir  Ir17      1.0  0.62510425  0.8737339850000001  0.45934724628144824  1.0000
  Ir  Ir18      1.0  0.62510425  0.623733985  0.47853154934945646  1.0000
  Rh  Rh5       1.0  0.62510425  0.123733985  0.47853154934945646  1.0000
  Rh  Rh6       1.0  0.8751042500000001  0.623733985  0.45934724628144824  1.0000
  Ir  Ir19      1.0  0.6252437200000001  0.371206185  0.4977765515523718  1.0000
  Ir  Ir20      1.0  0.87510929  0.380215535  0.5159995337978748  1.0000
  Ir  Ir21      1.0  0.8751013200000001  0.12373319499999999  0.49827856639505547  1.0000
  Ir  Ir22      1.0  0.87511103  0.8672529250000001  0.5159994171573122  1.0000
  Ir  Ir23      1.0  0.62524544  0.8762620450000002  0.4977764257033437  1.0000
  Ir  Ir24      1.0  0.62531044  0.6237368249999999  0.5162953404037411  1.0000
  Rh  Rh7       1.0  0.6246918400000001  0.12373295499999999  0.5165451936974103  1.0000
  Rh  Rh8       1.0  0.87511432  0.6237341949999999  0.4975033118258905  1.0000
