data_image0
_chemical_formula_structural       COPd6Au18Pd6Au18
_chemical_formula_sum              "C1 O1 Pd12 Au36"
_cell_length_a       8.31849596
_cell_length_b       11.67684178887235
_cell_length_c       106.75880364
_cell_angle_alpha    72.34046625975255
_cell_angle_beta     90.0
_cell_angle_gamma    90.0

_space_group_name_H-M_alt    "P 1"
_space_group_IT_number       1

loop_
  _space_group_symop_operation_xyz
  'x, y, z'

loop_
  _atom_site_type_symbol
  _atom_site_label
  _atom_site_symmetry_multiplicity
  _atom_site_fract_x
  _atom_site_fract_y
  _atom_site_fract_z
  _atom_site_occupancy
  C   C1        1.0  0.547659875  0.45958729500000006  0.5407470894749613  1.0000
  O   O1        1.0  0.47360573499999997  0.41421177500000006  0.5501504418218307  1.0000
  Pd  Pd1       1.0  0.12556650500000002  0.708834245  0.4641960747055316  1.0000
  Pd  Pd2       1.0  0.12429186500000004  0.04218224500000002  0.5204861577099532  1.0000
  Pd  Pd3       1.0  0.12556650500000002  0.375500905  0.4928891043170924  1.0000
  Pd  Pd4       1.0  0.37594154500000004  0.705963585  0.5074917715640913  1.0000
  Pd  Pd5       1.0  0.37556650500000005  0.04216757500000002  0.4785425912328938  1.0000
  Pd  Pd6       1.0  0.37556650500000005  0.375500905  0.4498495581781694  1.0000
  Au  Au1       1.0  0.12556650500000002  0.625500905  0.4928891043170924  1.0000
  Au  Au2       1.0  0.12556650500000002  0.958834245  0.4641960747055316  1.0000
  Au  Au3       1.0  0.12373600500000004  0.2930140950000001  0.5206776251564886  1.0000
  Au  Au4       1.0  0.37556650500000005  0.7921675750000001  0.4785425912328938  1.0000
  Au  Au5       1.0  0.37556650500000005  0.12550090500000002  0.4498495581781694  1.0000
  Au  Au6       1.0  0.376833405  0.45490558500000006  0.5076775818926822  1.0000
  Au  Au7       1.0  0.37556650500000005  0.542167575  0.4785425912328938  1.0000
  Au  Au8       1.0  0.37556650500000005  0.875500905  0.4498495581781694  1.0000
  Au  Au9       1.0  0.373444235  0.20345990500000002  0.5079543950376294  1.0000
  Au  Au10      1.0  0.372985425  0.9525444150000001  0.5080734699675592  1.0000
  Au  Au11      1.0  0.37556650500000005  0.29216757500000007  0.4785425912328939  1.0000
  Au  Au12      1.0  0.37556650500000005  0.625500905  0.4498495581781694  1.0000
  Au  Au13      1.0  0.12408928500000002  0.7882906950000002  0.5210689510394748  1.0000
  Au  Au14      1.0  0.12556650500000002  0.12550090500000002  0.4928891043170924  1.0000
  Au  Au15      1.0  0.12556650500000002  0.4588342450000001  0.4641960747055316  1.0000
  Au  Au16      1.0  0.12556650500000002  0.875500905  0.4928891043170924  1.0000
  Au  Au17      1.0  0.12556650500000002  0.20883424500000003  0.46419607470553165  1.0000
  Au  Au18      1.0  0.12320989500000001  0.545187715  0.520844346585576  1.0000
  Pd  Pd7       1.0  0.625566505  0.708834245  0.4641960747055316  1.0000
  Pd  Pd8       1.0  0.6245532850000001  0.04116575500000002  0.5203037733292349  1.0000
  Pd  Pd9       1.0  0.625566505  0.375500905  0.4928891043170924  1.0000
  Pd  Pd10      1.0  0.870286215  0.705104935  0.5075978141194503  1.0000
  Pd  Pd11      1.0  0.875566505  0.04216757500000002  0.4785425912328938  1.0000
  Pd  Pd12      1.0  0.875566505  0.375500905  0.4498495581781694  1.0000
  Au  Au19      1.0  0.625566505  0.625500905  0.4928891043170924  1.0000
  Au  Au20      1.0  0.625566505  0.958834245  0.4641960747055316  1.0000
  Au  Au21      1.0  0.625871265  0.286528435  0.5205597794359965  1.0000
  Au  Au22      1.0  0.875566505  0.7921675750000001  0.4785425912328938  1.0000
  Au  Au23      1.0  0.875566505  0.12550090500000002  0.4498495581781694  1.0000
  Au  Au24      1.0  0.8710393950000002  0.4560045650000001  0.5078370864506732  1.0000
  Au  Au25      1.0  0.875566505  0.542167575  0.4785425912328938  1.0000
  Au  Au26      1.0  0.875566505  0.875500905  0.4498495581781694  1.0000
  Au  Au27      1.0  0.876790105  0.20420545500000004  0.5077948353890195  1.0000
  Au  Au28      1.0  0.876531545  0.9522051550000001  0.5080454667172594  1.0000
  Au  Au29      1.0  0.875566505  0.29216757500000007  0.4785425912328939  1.0000
  Au  Au30      1.0  0.875566505  0.625500905  0.4498495581781694  1.0000
  Au  Au31      1.0  0.624419285  0.792491645  0.5207632497511592  1.0000
  Au  Au32      1.0  0.625566505  0.12550090500000002  0.4928891043170924  1.0000
  Au  Au33      1.0  0.625566505  0.4588342450000001  0.4641960747055316  1.0000
  Au  Au34      1.0  0.625566505  0.875500905  0.4928891043170924  1.0000
  Au  Au35      1.0  0.625566505  0.20883424500000003  0.46419607470553165  1.0000
  Au  Au36      1.0  0.626866025  0.5409119950000001  0.5224805896190488  1.0000
