data_image0
_chemical_formula_structural       COIr8Sn32
_chemical_formula_sum              "C1 O1 Ir8 Sn32"
_cell_length_a       9.12405718
_cell_length_b       12.527973223288987
_cell_length_c       103.99898741999999
_cell_angle_alpha    91.28430047263369
_cell_angle_beta     90.0
_cell_angle_gamma    90.0

_space_group_name_H-M_alt    "P 1"
_space_group_IT_number       1

loop_
  _space_group_symop_operation_xyz
  'x, y, z'

loop_
  _atom_site_type_symbol
  _atom_site_label
  _atom_site_symmetry_multiplicity
  _atom_site_fract_x
  _atom_site_fract_y
  _atom_site_fract_z
  _atom_site_occupancy
  C   C1        1.0  0.463315455  0.2086835850000001  0.5439360589686169  1.0000
  O   O1        1.0  0.44140155500000006  0.21843544500000006  0.554803006129625  1.0000
  Ir  Ir1       1.0  0.789929545  0.547373945  0.4708083698874098  1.0000
  Ir  Ir2       1.0  0.290895065  0.45004542500000005  0.5096781005118773  1.0000
  Ir  Ir3       1.0  0.03992954500000001  0.047373945000000035  0.4708083698874098  1.0000
  Ir  Ir4       1.0  0.538323585  0.9388474950000002  0.5099642276607834  1.0000
  Ir  Ir5       1.0  0.036672655000000005  0.9500936450000002  0.5095522147661542  1.0000
  Ir  Ir6       1.0  0.539929545  0.047373945000000035  0.4708083698874098  1.0000
  Ir  Ir7       1.0  0.289929545  0.547373945  0.4708083698874098  1.0000
  Ir  Ir8       1.0  0.793073035  0.44012968500000005  0.5100217061239539  1.0000
  Sn  Sn1       1.0  0.791791855  0.8196402550000002  0.512611816702557  1.0000
  Sn  Sn2       1.0  0.28955159500000005  0.9179890450000001  0.4719207981645784  1.0000
  Sn  Sn3       1.0  0.286322685  0.0002659150000000287  0.5222144338237293  1.0000
  Sn  Sn4       1.0  0.790307485  0.13845774500000005  0.4822172040703578  1.0000
  Sn  Sn5       1.0  0.783009155  0.06488585500000003  0.5126190709802145  1.0000
  Sn  Sn6       1.0  0.28955159500000005  0.176758845  0.46969594161024136  1.0000
  Sn  Sn7       1.0  0.366531745  0.7202027750000001  0.4554934030453196  1.0000
  Sn  Sn8       1.0  0.8605206650000001  0.610924435  0.4961523151115203  1.0000
  Sn  Sn9       1.0  0.04184345500000001  0.506605505  0.5221465790301015  1.0000
  Sn  Sn10      1.0  0.539551595  0.6384577450000001  0.48221720407035773  1.0000
  Sn  Sn11      1.0  0.9633273450000001  0.22020277500000005  0.4554934030453196  1.0000
  Sn  Sn12      1.0  0.46704208500000005  0.10956897500000004  0.49608997213047956  1.0000
  Sn  Sn13      1.0  0.117390995  0.11204686500000004  0.4953362301246189  1.0000
  Sn  Sn14      1.0  0.616531745  0.2200138050000001  0.45555518046077476  1.0000
  Sn  Sn15      1.0  0.11653174500000002  0.999734085  0.4451969938703751  1.0000
  Sn  Sn16      1.0  0.616531745  0.8747340850000002  0.486061559314045  1.0000
  Sn  Sn17      1.0  0.9633273450000001  0.8745451150000002  0.48612333672950014  1.0000
  Sn  Sn18      1.0  0.463327345  0.9995451150000001  0.4452587712858301  1.0000
  Sn  Sn19      1.0  0.040307485000000004  0.41798904500000006  0.4719207981645784  1.0000
  Sn  Sn20      1.0  0.5395044050000001  0.31962985500000013  0.5121870442560136  1.0000
  Sn  Sn21      1.0  0.04248709500000001  0.3362184650000001  0.5016436692625188  1.0000
  Sn  Sn22      1.0  0.539551595  0.456290145  0.459399535704462  1.0000
  Sn  Sn23      1.0  0.040307485000000004  0.6767588450000002  0.46969594161024136  1.0000
  Sn  Sn24      1.0  0.543193345  0.5658383650000001  0.5126838298743644  1.0000
  Sn  Sn25      1.0  0.286182595  0.8350491050000002  0.5013208980404882  1.0000
  Sn  Sn26      1.0  0.790307485  0.9562901450000002  0.459399535704462  1.0000
  Sn  Sn27      1.0  0.866531745  0.49954511500000004  0.4452587712858301  1.0000
  Sn  Sn28      1.0  0.366531745  0.374545115  0.48612333672950014  1.0000
  Sn  Sn29      1.0  0.213327345  0.49973408500000005  0.4451969938703751  1.0000
  Sn  Sn30      1.0  0.7133273450000001  0.37473408500000005  0.486061559314045  1.0000
  Sn  Sn31      1.0  0.7133273450000001  0.7200138050000001  0.45555518046077476  1.0000
  Sn  Sn32      1.0  0.208917335  0.612863715  0.4955029281291419  1.0000
