data_image0
_chemical_formula_structural       COSn16Rh32
_chemical_formula_sum              "C1 O1 Sn16 Rh32"
_cell_length_a       7.082150392990433
_cell_length_b       11.863387674199526
_cell_length_c       102.3439247
_cell_angle_alpha    77.01022116313976
_cell_angle_beta     80.32910481632977
_cell_angle_gamma    63.62084590231804

_space_group_name_H-M_alt    "P 1"
_space_group_IT_number       1

loop_
  _space_group_symop_operation_xyz
  'x, y, z'

loop_
  _atom_site_type_symbol
  _atom_site_label
  _atom_site_symmetry_multiplicity
  _atom_site_fract_x
  _atom_site_fract_y
  _atom_site_fract_z
  _atom_site_occupancy
  C   C1        1.0  0.6172319449999999  0.23184667999999997  0.5515365774547255  1.0000
  O   O1        1.0  0.6690683949999999  0.16992440999999997  0.5621198723698126  1.0000
  Sn  Sn1       1.0  0.715677395  0.81000075  0.44552586679218026  1.0000
  Sn  Sn2       1.0  0.46567739499999994  0.56000075  0.471861840895392  1.0000
  Sn  Sn3       1.0  0.943268335  0.05861597999999998  0.525680285749578  1.0000
  Sn  Sn4       1.0  0.21567739500000002  0.31000074999999994  0.49819781499860377  1.0000
  Sn  Sn5       1.0  0.501091545  0.7759664899999998  0.5229159469722843  1.0000
  Sn  Sn6       1.0  0.2377542649999999  0.53792388  0.44320020213931477  1.0000
  Sn  Sn7       1.0  0.737754265  0.03792387999999998  0.49587215350605524  1.0000
  Sn  Sn8       1.0  0.9877542650000003  0.28792387999999997  0.46953617624252664  1.0000
  Sn  Sn9       1.0  0.7815281550000002  0.68999925  0.47985194084102145  1.0000
  Sn  Sn10      1.0  0.531528155  0.43999924999999995  0.5061879149442332  1.0000
  Sn  Sn11      1.0  0.03152815500000002  0.9399992499999998  0.4535159635774927  1.0000
  Sn  Sn12      1.0  0.30695928499999997  0.18145593999999998  0.5328325730122561  1.0000
  Sn  Sn13      1.0  0.012245735000000132  0.7123209099999999  0.5081413795808437  1.0000
  Sn  Sn14      1.0  0.768653245  0.4630090599999999  0.5350737497499409  1.0000
  Sn  Sn15      1.0  0.25945128499999986  0.96207612  0.4821776023335698  1.0000
  Sn  Sn16      1.0  0.5094512849999999  0.21207611999999995  0.4558416282303581  1.0000
  Rh  Rh1       1.0  0.6000158650000001  0.86050272  0.49665372834765725  1.0000
  Rh  Rh2       1.0  0.34904093500000005  0.5968442899999999  0.5238322714109337  1.0000
  Rh  Rh3       1.0  0.8500158649999999  0.11050271999999998  0.4703177542444455  1.0000
  Rh  Rh4       1.0  0.100015865  0.36050271999999994  0.4439817801412338  1.0000
  Rh  Rh5       1.0  0.770654295  0.58136563  0.5092333070346426  1.0000
  Rh  Rh6       1.0  0.525976145  0.34234082999999993  0.5356083173736705  1.0000
  Rh  Rh7       1.0  0.017235134999999905  0.83609426  0.4827907196368018  1.0000
  Rh  Rh8       1.0  0.267235135  0.08609425999999998  0.45645474553359006  1.0000
  Rh  Rh9       1.0  0.167184825  0.42672139  0.5204613255834667  1.0000
  Rh  Rh10      1.0  0.919150285  0.18417910999999998  0.44045140896143653  1.0000
  Rh  Rh11      1.0  0.41915028499999996  0.6841791099999999  0.493123360328177  1.0000
  Rh  Rh12      1.0  0.669150285  0.93417911  0.46678738622496535  1.0000
  Rh  Rh13      1.0  0.9038160450000001  0.6469118999999999  0.5327995097756053  1.0000
  Rh  Rh14      1.0  0.647189685  0.38949728  0.45506005022843915  1.0000
  Rh  Rh15      1.0  0.1471896850000001  0.8894972799999998  0.5077320015951797  1.0000
  Rh  Rh16      1.0  0.397189685  0.13949727999999997  0.4813960274919679  1.0000
  Rh  Rh17      1.0  0.2951004549999998  0.95667859  0.537360008409899  1.0000
  Rh  Rh18      1.0  0.08926842499999987  0.69741854  0.4611617027394858  1.0000
  Rh  Rh19      1.0  0.592301445  0.19972860999999992  0.5133106627237365  1.0000
  Rh  Rh20      1.0  0.8392684250000001  0.44741854  0.48749767684269757  1.0000
  Rh  Rh21      1.0  0.157937125  0.55258146  0.49055207899692765  1.0000
  Rh  Rh22      1.0  0.9153816050000001  0.29546628999999996  0.5172402388287143  1.0000
  Rh  Rh23      1.0  0.40793712499999996  0.80258146  0.46421610173339894  1.0000
  Rh  Rh24      1.0  0.657937125  0.052581459999999976  0.4378801276301872  1.0000
  Rh  Rh25      1.0  0.330173655  0.06482000999999997  0.5109787280019058  1.0000
  Rh  Rh26      1.0  0.09595020499999996  0.80089524  0.5344660207872259  1.0000
  Rh  Rh27      1.0  0.5780552649999999  0.31582088999999997  0.48492639551144806  1.0000
  Rh  Rh28      1.0  0.8280552650000002  0.56582089  0.45859042140823647  1.0000
  Rh  Rh29      1.0  0.734870295  0.91657057  0.5218829562705689  1.0000
  Rh  Rh30      1.0  0.47997041499999993  0.66390574  0.44258708483608294  1.0000
  Rh  Rh31      1.0  0.9799704149999999  0.16390573999999997  0.4952590362028234  1.0000
  Rh  Rh32      1.0  0.22997041500000004  0.41390573999999997  0.46892306209961165  1.0000
