data_image0
_chemical_formula_structural       Fe10Sb20CO
_chemical_formula_sum              "Fe10 Sb20 C1 O1"
_cell_length_a       8.757413158294014
_cell_length_b       9.265057096948762
_cell_length_c       107.31979097
_cell_angle_alpha    75.84490188652403
_cell_angle_beta     81.56142617873712
_cell_angle_gamma    57.884934877221646

_space_group_name_H-M_alt    "P 1"
_space_group_IT_number       1

loop_
  _space_group_symop_operation_xyz
  'x, y, z'

loop_
  _atom_site_type_symbol
  _atom_site_label
  _atom_site_symmetry_multiplicity
  _atom_site_fract_x
  _atom_site_fract_y
  _atom_site_fract_z
  _atom_site_occupancy
  Fe  Fe1       1.0  0.81209379  0.8327400650000001  0.4556113518245563  1.0000
  Fe  Fe2       1.0  0.61209379  0.632740065  0.47299854137863967  1.0000
  Fe  Fe3       1.0  0.41209379  0.432740065  0.49038573093272314  1.0000
  Fe  Fe4       1.0  0.021163249999999988  0.040566935  0.5235875604560499  1.0000
  Fe  Fe5       1.0  0.21209379  0.232740065  0.5077729204868066  1.0000
  Fe  Fe6       1.0  0.81209379  0.8327400650000001  0.4990793257097648  1.0000
  Fe  Fe7       1.0  0.6073857800000002  0.6290714449999999  0.5184877586623209  1.0000
  Fe  Fe8       1.0  0.40757125  0.455783875  0.5317484917262265  1.0000
  Fe  Fe9       1.0  0.01209378999999999  0.032740065  0.48169213615568135  1.0000
  Fe  Fe10      1.0  0.21209379  0.232740065  0.46430494660159793  1.0000
  Sb  Sb1       1.0  0.78790621  0.9672599350000001  0.4747950344874984  1.0000
  Sb  Sb2       1.0  0.58790621  0.767259935  0.4921822275190197  1.0000
  Sb  Sb3       1.0  0.38619285999999997  0.5731421950000001  0.5085784967983505  1.0000
  Sb  Sb4       1.0  0.9879062100000001  0.167259935  0.4574078449334149  1.0000
  Sb  Sb5       1.0  0.20074713000000002  0.365962155  0.5268880141643957  1.0000
  Sb  Sb6       1.0  0.03628137  0.8982201949999999  0.5059764239005099  1.0000
  Sb  Sb7       1.0  0.84637708  0.689864955  0.5236987063265555  1.0000
  Sb  Sb8       1.0  0.63628137  0.498220195  0.4538148552382597  1.0000
  Sb  Sb9       1.0  0.23628137000000005  0.098220195  0.48858923782386443  1.0000
  Sb  Sb10      1.0  0.43628137  0.29822019499999997  0.47120204826978107  1.0000
  Sb  Sb11      1.0  0.55213381  0.12444153499999999  0.5045982770046363  1.0000
  Sb  Sb12      1.0  0.34608759999999994  0.9230384449999999  0.5208017258292502  1.0000
  Sb  Sb13      1.0  0.12231639000000008  0.740512855  0.5365960088769638  1.0000
  Sb  Sb14      1.0  0.75213381  0.324441535  0.48721108745055286  1.0000
  Sb  Sb15      1.0  0.95213381  0.524441535  0.46982390137390734  1.0000
  Sb  Sb16      1.0  0.07205377000000002  0.541038595  0.49356037441489337  1.0000
  Sb  Sb17      1.0  0.8666138899999999  0.350132285  0.5109127235185483  1.0000
  Sb  Sb18      1.0  0.6783742300000001  0.15442201499999997  0.5278566788365191  1.0000
  Sb  Sb19      1.0  0.27205377  0.741038595  0.47617318138337195  1.0000
  Sb  Sb20      1.0  0.47205376999999993  0.9410385950000001  0.45878599530672654  1.0000
  C   C1        1.0  0.60360889  0.5246054649999999  0.534840153107531  1.0000
  O   O1        1.0  0.6218066000000001  0.46627742499999997  0.5461851447617402  1.0000
