data_image0
_chemical_formula_structural       COGa4Co8Ni4Ga4Co8Ni4
_chemical_formula_sum              "C1 O1 Ga8 Co16 Ni8"
_cell_length_a       4.97447382
_cell_length_b       7.972415649790531
_cell_length_c       107.38054006
_cell_angle_alpha    102.41310776645692
_cell_angle_beta     90.0
_cell_angle_gamma    51.39405592152191

_space_group_name_H-M_alt    "P 1"
_space_group_IT_number       1

loop_
  _space_group_symop_operation_xyz
  'x, y, z'

loop_
  _atom_site_type_symbol
  _atom_site_label
  _atom_site_symmetry_multiplicity
  _atom_site_fract_x
  _atom_site_fract_y
  _atom_site_fract_z
  _atom_site_occupancy
  C   C1        1.0  0.5572158599999998  0.522650145  0.5502495425596569  1.0000
  O   O1        1.0  0.5613212899999999  0.5184854849999999  0.5614480910162547  1.0000
  Ga  Ga1       1.0  0.8082664299999999  0.7712348649999999  0.44580425774463855  1.0000
  Ga  Ga2       1.0  0.5582664299999999  0.5212348649999999  0.4603089587475533  1.0000
  Ga  Ga3       1.0  0.058266429999999765  0.02123486499999999  0.4893183572722546  1.0000
  Ga  Ga4       1.0  0.30826642999999976  0.271234865  0.47481365975046796  1.0000
  Co  Co1       1.0  0.9332664300000001  0.8962348649999998  0.4675613075084466  1.0000
  Co  Co2       1.0  0.6832664299999999  0.6462348649999999  0.4820660085113613  1.0000
  Co  Co3       1.0  0.18326642999999976  0.146234865  0.45305660998665986  1.0000
  Co  Co4       1.0  0.4332664299999998  0.396234865  0.43855190898374524  1.0000
  Co  Co5       1.0  0.4332664300000001  0.8962348649999998  0.4675613075084466  1.0000
  Co  Co6       1.0  0.18326642999999992  0.6462348649999999  0.4820660085113613  1.0000
  Co  Co7       1.0  0.6832664299999998  0.146234865  0.45305660998665986  1.0000
  Co  Co8       1.0  0.9332664299999998  0.396234865  0.43855190898374524  1.0000
  Ni  Ni1       1.0  0.058266429999999834  0.5212348649999999  0.4603089587475533  1.0000
  Ni  Ni2       1.0  0.8082664299999998  0.271234865  0.47481365975046796  1.0000
  Ni  Ni3       1.0  0.3082664299999999  0.7712348649999999  0.44580425774463855  1.0000
  Ni  Ni4       1.0  0.5582664299999998  0.02123486499999999  0.4893183572722546  1.0000
  Ga  Ga5       1.0  0.8082664299999999  0.7712348649999999  0.5038230582751693  1.0000
  Ga  Ga6       1.0  0.5582664299999999  0.5212348649999999  0.5183277592780839  1.0000
  Ga  Ga7       1.0  0.10118500999999995  0.978765135  0.5466132781298116  1.0000
  Ga  Ga8       1.0  0.31897278999999984  0.26108082499999996  0.5328420159772549  1.0000
  Co  Co9       1.0  0.9417335700000002  0.8931550049999998  0.5251392022957958  1.0000
  Co  Co10      1.0  0.7099494399999997  0.6233563049999999  0.5396839049401241  1.0000
  Co  Co11      1.0  0.18326642999999976  0.146234865  0.5110754070360627  1.0000
  Co  Co12      1.0  0.4332664299999998  0.396234865  0.4965707095142759  1.0000
  Co  Co13      1.0  0.4316253999999998  0.8930958449999999  0.5251384817023075  1.0000
  Co  Co14      1.0  0.2030323799999999  0.623288745  0.5396820738668161  1.0000
  Co  Co15      1.0  0.6832664299999998  0.146234865  0.5110754070360627  1.0000
  Co  Co16      1.0  0.9332664299999998  0.396234865  0.4965707095142759  1.0000
  Ni  Ni5       1.0  0.058266429999999834  0.5212348649999999  0.5183277592780839  1.0000
  Ni  Ni6       1.0  0.8192148099999996  0.26085419499999996  0.5338526222359639  1.0000
  Ni  Ni7       1.0  0.3082664299999999  0.7712348649999999  0.5038230582751693  1.0000
  Ni  Ni8       1.0  0.6091373399999999  0.970765895  0.5451105065186775  1.0000
