data_image0
_chemical_formula_structural       COAl6Os4Al6Os4Al6Os4Al6Os4
_chemical_formula_sum              "C1 O1 Al24 Os16"
_cell_length_a       6.28390414
_cell_length_b       6.28390414
_cell_length_c       112.97554474
_cell_angle_alpha    90.0
_cell_angle_beta     90.0
_cell_angle_gamma    90.0

_space_group_name_H-M_alt    "P 1"
_space_group_IT_number       1

loop_
  _space_group_symop_operation_xyz
  'x, y, z'

loop_
  _atom_site_type_symbol
  _atom_site_label
  _atom_site_symmetry_multiplicity
  _atom_site_fract_x
  _atom_site_fract_y
  _atom_site_fract_z
  _atom_site_occupancy
  C   C1        1.0  0.38052322000000005  0.3865547350000001  0.5590245348554479  1.0000
  O   O1        1.0  0.38052335000000004  0.386557075  0.569648772457014  1.0000
  Al  Al1       1.0  0.13052360000000002  0.386557325  0.5072516788047972  1.0000
  Al  Al2       1.0  0.13052360000000002  0.386557325  0.48236614914825066  1.0000
  Al  Al3       1.0  0.3805236  0.13655732500000003  0.4687377271865627  1.0000
  Al  Al4       1.0  0.3805236  0.13655732500000003  0.4438521975300162  1.0000
  Al  Al5       1.0  0.38052437000000006  0.11344267500000005  0.5471151035708514  1.0000
  Al  Al6       1.0  0.13105693000000004  0.38655979500000004  0.5319694952809025  1.0000
  Os  Os1       1.0  0.13052360000000002  0.386557325  0.4573531675170464  1.0000
  Os  Os2       1.0  0.3805236  0.13655732500000003  0.49375070881776695  1.0000
  Os  Os3       1.0  0.38052279000000006  0.13419357500000004  0.521200497646637  1.0000
  Os  Os4       1.0  0.13052360000000002  0.386557325  0.43035122754298594  1.0000
  Al  Al7       1.0  0.13052360000000002  0.8865573250000001  0.5072516788047972  1.0000
  Al  Al8       1.0  0.13052360000000002  0.8865573250000001  0.48236614914825066  1.0000
  Al  Al9       1.0  0.3805236  0.636557325  0.4687377271865627  1.0000
  Al  Al10      1.0  0.3805236  0.636557325  0.4438521975300162  1.0000
  Al  Al11      1.0  0.38052410000000003  0.6596693849999999  0.5471152557296034  1.0000
  Al  Al12      1.0  0.11947640000000002  0.886555285  0.532044349778957  1.0000
  Os  Os5       1.0  0.13052360000000002  0.8865573250000001  0.4573531675170464  1.0000
  Os  Os6       1.0  0.3805236  0.636557325  0.49375070881776695  1.0000
  Os  Os7       1.0  0.38052432  0.6389202850000001  0.5211999917187866  1.0000
  Os  Os8       1.0  0.13052360000000002  0.8865573250000001  0.43035122754298594  1.0000
  Al  Al13      1.0  0.6305236  0.386557325  0.5072516788047972  1.0000
  Al  Al14      1.0  0.6305236  0.386557325  0.48236614914825066  1.0000
  Al  Al15      1.0  0.8805236  0.13655732500000003  0.4687377271865627  1.0000
  Al  Al16      1.0  0.8805236  0.13655732500000003  0.4438521975300162  1.0000
  Al  Al17      1.0  0.88052326  0.15080609500000006  0.5470403403680482  1.0000
  Al  Al18      1.0  0.62998704  0.386561685  0.5319693963777137  1.0000
  Os  Os9       1.0  0.6305236  0.386557325  0.4573531675170464  1.0000
  Os  Os10      1.0  0.8805236  0.13655732500000003  0.49375070881776695  1.0000
  Os  Os11      1.0  0.8805227  0.13900973500000005  0.5205359290813306  1.0000
  Os  Os12      1.0  0.6305236  0.386557325  0.43035122754298594  1.0000
  Al  Al19      1.0  0.6305236  0.8865573250000001  0.5072516788047972  1.0000
  Al  Al20      1.0  0.6305236  0.8865573250000001  0.48236614914825066  1.0000
  Al  Al21      1.0  0.8805236  0.636557325  0.4687377271865627  1.0000
  Al  Al22      1.0  0.8805236  0.636557325  0.4438521975300162  1.0000
  Al  Al23      1.0  0.8805229299999999  0.6223072450000001  0.547040610449833  1.0000
  Al  Al24      1.0  0.6415666400000001  0.8865538250000001  0.5320439845979522  1.0000
  Os  Os13      1.0  0.6305236  0.8865573250000001  0.4573531675170464  1.0000
  Os  Os14      1.0  0.8805236  0.636557325  0.49375070881776695  1.0000
  Os  Os15      1.0  0.8805216899999999  0.6341061050000001  0.5205364159893371  1.0000
  Os  Os16      1.0  0.6305236  0.8865573250000001  0.43035122754298594  1.0000
