data_image0
_chemical_formula_structural       COV5Rh5V5Rh5
_chemical_formula_sum              "C1 O1 V10 Rh10"
_cell_length_a       6.135930960818948
_cell_length_b       4.579458110654784
_cell_length_c       102.03200255
_cell_angle_alpha    76.00719355930842
_cell_angle_beta     76.7107275154449
_cell_angle_gamma    74.4561203405232

_space_group_name_H-M_alt    "P 1"
_space_group_IT_number       1

loop_
  _space_group_symop_operation_xyz
  'x, y, z'

loop_
  _atom_site_type_symbol
  _atom_site_label
  _atom_site_symmetry_multiplicity
  _atom_site_fract_x
  _atom_site_fract_y
  _atom_site_fract_z
  _atom_site_occupancy
  C   C1        1.0  0.48309690499999997  0.803676545  0.5454428344467672  1.0000
  O   O1        1.0  0.5894934249999999  0.673396955  0.5555736488090701  1.0000
  V   V1        1.0  0.40818486500000006  0.814394935  0.4758204253533995  1.0000
  V   V2        1.0  0.8081848650000001  0.614394935  0.48628511569442023  1.0000
  V   V3        1.0  0.008184865000000019  0.014394934999999977  0.4653557318729713  1.0000
  V   V4        1.0  0.20818486500000005  0.414394935  0.4444263511909299  1.0000
  V   V5        1.0  0.608184865  0.21439493499999998  0.4548910415319506  1.0000
  Rh  Rh1       1.0  0.40818486500000006  0.814394935  0.4496586947917365  1.0000
  Rh  Rh2       1.0  0.8081848650000001  0.614394935  0.4601233882721646  1.0000
  Rh  Rh3       1.0  0.008184865000000019  0.014394934999999977  0.49151746243463434  1.0000
  Rh  Rh4       1.0  0.20818486500000005  0.414394935  0.47058807861318547  1.0000
  Rh  Rh5       1.0  0.608184865  0.21439493499999998  0.48105276895420623  1.0000
  V   V6        1.0  0.406674155  0.794220715  0.5280539926847689  1.0000
  V   V7        1.0  0.821648275  0.575543315  0.5382062397815024  1.0000
  V   V8        1.0  0.9918151350000001  0.017638954999999974  0.5177809066571764  1.0000
  V   V9        1.0  0.20818486500000005  0.414394935  0.49674980603544117  1.0000
  V   V10       1.0  0.608184865  0.21439493499999998  0.5072144995158693  1.0000
  Rh  Rh6       1.0  0.40818486500000006  0.814394935  0.5019821527756552  1.0000
  Rh  Rh7       1.0  0.8081848650000001  0.614394935  0.5124468431166759  1.0000
  Rh  Rh8       1.0  0.031549795000000054  0.9856050649999999  0.5424105498903774  1.0000
  Rh  Rh9       1.0  0.20957463500000004  0.40910654499999993  0.5227343044908274  1.0000
  Rh  Rh10      1.0  0.609579895  0.19936567499999996  0.5328104084000873  1.0000
