data_image0
_chemical_formula_structural       COSi8Rh8Si8Rh8
_chemical_formula_sum              "C1 O1 Si16 Rh16"
_cell_length_a       4.73903357
_cell_length_b       6.70200555
_cell_length_c       103.51002774
_cell_angle_alpha    90.0
_cell_angle_beta     90.0
_cell_angle_gamma    90.0

_space_group_name_H-M_alt    "P 1"
_space_group_IT_number       1

loop_
  _space_group_symop_operation_xyz
  'x, y, z'

loop_
  _atom_site_type_symbol
  _atom_site_label
  _atom_site_symmetry_multiplicity
  _atom_site_fract_x
  _atom_site_fract_y
  _atom_site_fract_z
  _atom_site_occupancy
  C   C1        1.0  0.8584348000000003  0.7407321699999999  0.5627887671728358  1.0000
  O   O1        1.0  0.9166568700000001  0.7393093300000001  0.5739764516254576  1.0000
  Si  Si1       1.0  0.2758415900000001  0.44832596999999996  0.43197392541642715  1.0000
  Si  Si2       1.0  0.2758415900000001  0.9483259700000001  0.4643476272418885  1.0000
  Si  Si3       1.0  0.7758415900000001  0.38212875  0.48053447815461925  1.0000
  Si  Si4       1.0  0.7758415900000001  0.8821287499999999  0.4481607763291578  1.0000
  Si  Si5       1.0  0.59203881  0.7902273599999999  0.48648485519650414  1.0000
  Si  Si6       1.0  0.59203881  0.29022736  0.45411115337104274  1.0000
  Si  Si7       1.0  0.09203881000000004  0.5402273599999999  0.4583972502000036  1.0000
  Si  Si8       1.0  0.09203881000000004  0.04022736000000001  0.42602354837454215  1.0000
  Rh  Rh1       1.0  0.58625107  0.63791649  0.4643476272418885  1.0000
  Rh  Rh2       1.0  0.58625107  0.13791649  0.43197392541642715  1.0000
  Rh  Rh3       1.0  0.08625107000000003  0.69253823  0.48053447815461925  1.0000
  Rh  Rh4       1.0  0.08625107000000003  0.19253823  0.4481607763291578  1.0000
  Rh  Rh5       1.0  0.28162933000000007  0.29022736  0.4742093593272537  1.0000
  Rh  Rh6       1.0  0.28162933000000007  0.7902273599999999  0.44183565750179227  1.0000
  Rh  Rh7       1.0  0.78162933  0.5402273599999999  0.4382990442437926  1.0000
  Rh  Rh8       1.0  0.78162933  0.04022736000000001  0.4706727460692541  1.0000
  Si  Si9       1.0  0.2758415900000001  0.44832596999999996  0.49672132906735  1.0000
  Si  Si10      1.0  0.27229062000000004  0.9597726399999998  0.5303289189268168  1.0000
  Si  Si11      1.0  0.8033524400000001  0.38062622  0.5434792428657563  1.0000
  Si  Si12      1.0  0.7758415900000001  0.8821287499999999  0.5129081799800806  1.0000
  Si  Si13      1.0  0.5598625900000002  0.8032684899999999  0.5502504518800556  1.0000
  Si  Si14      1.0  0.59203881  0.29022736  0.5188585570219656  1.0000
  Si  Si15      1.0  0.09702667000000005  0.54419381  0.5230110054976804  1.0000
  Si  Si16      1.0  0.09203881000000004  0.04022736000000001  0.490770952025465  1.0000
  Rh  Rh9       1.0  0.59321308  0.64915665  0.5289778283800927  1.0000
  Rh  Rh10      1.0  0.58625107  0.13791649  0.49672132906735  1.0000
  Rh  Rh11      1.0  0.08334313000000003  0.69498264  0.5460007851777591  1.0000
  Rh  Rh12      1.0  0.08625107000000003  0.19253823  0.5129081799800806  1.0000
  Rh  Rh13      1.0  0.30333956000000006  0.30480881000000004  0.5379726024426824  1.0000
  Rh  Rh14      1.0  0.28162933000000007  0.7902273599999999  0.5065830611527151  1.0000
  Rh  Rh15      1.0  0.78162933  0.5402273599999999  0.5030464478947154  1.0000
  Rh  Rh16      1.0  0.78403043  0.04221017000000001  0.5358659064579818  1.0000
