data_image0
_chemical_formula_structural       COV12Si24
_chemical_formula_sum              "C1 O1 V12 Si24"
_cell_length_a       7.93758042
_cell_length_b       7.869113741595927
_cell_length_c       101.47645495
_cell_angle_alpha    71.23532724231268
_cell_angle_beta     90.0
_cell_angle_gamma    90.0

_space_group_name_H-M_alt    "P 1"
_space_group_IT_number       1

loop_
  _space_group_symop_operation_xyz
  'x, y, z'

loop_
  _atom_site_type_symbol
  _atom_site_label
  _atom_site_symmetry_multiplicity
  _atom_site_fract_x
  _atom_site_fract_y
  _atom_site_fract_z
  _atom_site_occupancy
  C   C1        1.0  0.779037875  0.173374495  0.5314628269958593  1.0000
  O   O1        1.0  0.7795340450000001  0.100878425  0.5437843912792335  1.0000
  V   V1        1.0  0.288390825  0.311067895  0.48228645283148686  1.0000
  V   V2        1.0  0.28236578500000004  0.8058234249999999  0.5197196084953795  1.0000
  V   V3        1.0  0.789410395  0.059032765  0.5018581496999741  1.0000
  V   V4        1.0  0.788390825  0.5610678950000001  0.46289990217454546  1.0000
  V   V5        1.0  0.28463982500000007  0.245796925  0.5131575650791191  1.0000
  V   V6        1.0  0.288390825  0.7277345550000001  0.4758242672112743  1.0000
  V   V7        1.0  0.788390825  0.9777345550000001  0.4564377165543329  1.0000
  V   V8        1.0  0.7886088450000001  0.472975465  0.49550513982751715  1.0000
  V   V9        1.0  0.050864395000000034  0.5228008949999999  0.5167880518512394  1.0000
  V   V10       1.0  0.03839082500000004  0.019401224999999998  0.47905536002138055  1.0000
  V   V11       1.0  0.538390825  0.269401225  0.4596688093644392  1.0000
  V   V12       1.0  0.5387895650000001  0.7673959750000001  0.4984471093757461  1.0000
  Si  Si1       1.0  0.37188932500000005  0.5158191049999999  0.5188556042149415  1.0000
  Si  Si2       1.0  0.3755431150000001  0.019401224999999998  0.47905536002138055  1.0000
  Si  Si3       1.0  0.875543115  0.269401225  0.4596688093644392  1.0000
  Si  Si4       1.0  0.8781698450000001  0.7703983150000001  0.49831833304981427  1.0000
  Si  Si5       1.0  0.45696696500000006  0.974870345  0.45665982748974754  1.0000
  Si  Si6       1.0  0.45586403500000006  0.47749693499999996  0.49541571975034304  1.0000
  Si  Si7       1.0  0.956966965  0.724870345  0.4760463781466889  1.0000
  Si  Si8       1.0  0.958556635  0.225921985  0.5152611516122583  1.0000
  Si  Si9       1.0  0.45696696500000006  0.563932105  0.46267779123913094  1.0000
  Si  Si10      1.0  0.459207315  0.059382334999999994  0.5025374482312972  1.0000
  Si  Si11      1.0  0.956966965  0.313932105  0.4820643418960723  1.0000
  Si  Si12      1.0  0.961609175  0.8166803349999999  0.5204364238795338  1.0000
  Si  Si13      1.0  0.20123853500000005  0.269401225  0.4596688093644392  1.0000
  Si  Si14      1.0  0.20016066500000004  0.7698331149999998  0.4979278320863175  1.0000
  Si  Si15      1.0  0.701238535  0.019401224999999998  0.47905536002138055  1.0000
  Si  Si16      1.0  0.727844795  0.539862255  0.5178175149133003  1.0000
  Si  Si17      1.0  0.11942541500000005  0.481946195  0.4945408062701193  1.0000
  Si  Si18      1.0  0.11981468500000003  0.980598775  0.4562156087207665  1.0000
  Si  Si19      1.0  0.6122410750000001  0.245715785  0.5151543084542777  1.0000
  Si  Si20      1.0  0.619814685  0.730598775  0.47560215937770794  1.0000
  Si  Si21      1.0  0.11981468500000003  0.558203675  0.463122010008112  1.0000
  Si  Si22      1.0  0.12033096500000003  0.05689243499999999  0.5025170411726136  1.0000
  Si  Si23      1.0  0.619814685  0.308203675  0.48250856066505327  1.0000
  Si  Si24      1.0  0.602097965  0.808997275  0.5218469272683707  1.0000
