data_image0
_chemical_formula_structural       COSn8Rh4Sn8Rh4
_chemical_formula_sum              "C1 O1 Sn16 Rh8"
_cell_length_a       5.81335313
_cell_length_b       6.52321565
_cell_length_c       109.1392939
_cell_angle_alpha    90.0
_cell_angle_beta     90.0
_cell_angle_gamma    90.0

_space_group_name_H-M_alt    "P 1"
_space_group_IT_number       1

loop_
  _space_group_symop_operation_xyz
  'x, y, z'

loop_
  _atom_site_type_symbol
  _atom_site_label
  _atom_site_symmetry_multiplicity
  _atom_site_fract_x
  _atom_site_fract_y
  _atom_site_fract_z
  _atom_site_occupancy
  C   C1        1.0  0.12466750999999995  0.58115586  0.5577057179972377  1.0000
  O   O1        1.0  0.12495538999999996  0.5811478000000001  0.5684418779501066  1.0000
  Sn  Sn1       1.0  0.37364982999999996  0.24302241000000002  0.5115289993661356  1.0000
  Sn  Sn2       1.0  0.38312081  0.41495888000000003  0.5409281139691332  1.0000
  Sn  Sn3       1.0  0.8763501700000002  0.2591822000000001  0.5317407131398836  1.0000
  Sn  Sn4       1.0  0.87364983  0.41899253000000003  0.501011327310306  1.0000
  Sn  Sn5       1.0  0.8666227700000001  0.7475946000000001  0.540887762293836  1.0000
  Sn  Sn6       1.0  0.87364983  0.91899253  0.5115289993661356  1.0000
  Sn  Sn7       1.0  0.37364982999999996  0.7430224100000001  0.501011327310306  1.0000
  Sn  Sn8       1.0  0.37296521999999993  0.90279732  0.5317297143318372  1.0000
  Rh  Rh1       1.0  0.12436986999999995  0.58082939  0.5213284137533802  1.0000
  Rh  Rh2       1.0  0.62436649  0.5807783700000001  0.519667916494415  1.0000
  Rh  Rh3       1.0  0.62364983  0.08100747000000004  0.4913277536460841  1.0000
  Rh  Rh4       1.0  0.12364982999999996  0.08100747000000004  0.4913277536460841  1.0000
  Sn  Sn9       1.0  0.37364982999999996  0.24302241000000002  0.4517593641837669  1.0000
  Sn  Sn10      1.0  0.37364982999999996  0.41899253000000003  0.48164418356804023  1.0000
  Sn  Sn11      1.0  0.87364983  0.24302241000000002  0.47112651151221063  1.0000
  Sn  Sn12      1.0  0.87364983  0.41899253000000003  0.44124169571411537  1.0000
  Sn  Sn13      1.0  0.87364983  0.7430224100000001  0.48164418356804023  1.0000
  Sn  Sn14      1.0  0.87364983  0.91899253  0.4517593641837669  1.0000
  Sn  Sn15      1.0  0.37364982999999996  0.7430224100000001  0.44124169571411537  1.0000
  Sn  Sn16      1.0  0.37364982999999996  0.91899253  0.47112651151221063  1.0000
  Rh  Rh5       1.0  0.12364982999999996  0.5810074700000001  0.4614429378479888  1.0000
  Rh  Rh6       1.0  0.62364983  0.5810074700000001  0.4614429378479888  1.0000
  Rh  Rh7       1.0  0.62364983  0.08100747000000004  0.43155812204989347  1.0000
  Rh  Rh8       1.0  0.12364982999999996  0.08100747000000004  0.43155812204989347  1.0000
