data_image0
_chemical_formula_structural       COSn4Pd8Sn4Pd8Sn4Pd8Sn4Pd8
_chemical_formula_sum              "C1 O1 Sn16 Pd32"
_cell_length_a       8.81640072
_cell_length_b       8.31665873
_cell_length_c       104.66170306000001
_cell_angle_alpha    90.0
_cell_angle_beta     90.0
_cell_angle_gamma    90.0

_space_group_name_H-M_alt    "P 1"
_space_group_IT_number       1

loop_
  _space_group_symop_operation_xyz
  'x, y, z'

loop_
  _atom_site_type_symbol
  _atom_site_label
  _atom_site_symmetry_multiplicity
  _atom_site_fract_x
  _atom_site_fract_y
  _atom_site_fract_z
  _atom_site_occupancy
  C   C1        1.0  0.12440317000000002  0.47770636999999994  0.5553675829586254  1.0000
  O   O1        1.0  0.12433737000000004  0.50059442  0.5663362802387536  1.0000
  Sn  Sn1       1.0  0.12437000000000002  0.38814357  0.45614635331323933  1.0000
  Sn  Sn2       1.0  0.37437000000000004  0.61185643  0.43366371976124635  1.0000
  Sn  Sn3       1.0  0.12437000000000002  0.11185642999999999  0.4837445583396289  1.0000
  Sn  Sn4       1.0  0.37437000000000004  0.8881435699999999  0.4612619280994207  1.0000
  Pd  Pd1       1.0  0.12437000000000002  0.79145449  0.47520529361159225  1.0000
  Pd  Pd2       1.0  0.37437000000000004  0.20854551  0.4698011928274574  1.0000
  Pd  Pd3       1.0  0.12437000000000002  0.70854551  0.44760708858520265  1.0000
  Pd  Pd4       1.0  0.37437000000000004  0.29145449  0.442202984489283  1.0000
  Pd  Pd5       1.0  0.12437000000000002  0.43966627  0.48199851919130576  1.0000
  Pd  Pd6       1.0  0.37437000000000004  0.56033373  0.46300796724774385  1.0000
  Pd  Pd7       1.0  0.12437000000000002  0.06033372999999998  0.45440031416491616  1.0000
  Pd  Pd8       1.0  0.37437000000000004  0.93966627  0.43540975890956946  1.0000
  Sn  Sn5       1.0  0.12423736000000005  0.39313769  0.5117592037376014  1.0000
  Sn  Sn6       1.0  0.37437000000000004  0.61185643  0.4888601331258103  1.0000
  Sn  Sn7       1.0  0.12435085000000004  0.09313324  0.5379431475222689  1.0000
  Sn  Sn8       1.0  0.37444427  0.88906069  0.5171817279802207  1.0000
  Pd  Pd9       1.0  0.12472648000000001  0.77491975  0.5294187825137578  1.0000
  Pd  Pd10      1.0  0.37277851  0.20991194999999999  0.5249140564867106  1.0000
  Pd  Pd11      1.0  0.12437000000000002  0.70854551  0.5028034986379819  1.0000
  Pd  Pd12      1.0  0.37437000000000004  0.29145449  0.49739939785384707  1.0000
  Pd  Pd13      1.0  0.12435313000000005  0.4331524299999999  0.537157734589719  1.0000
  Pd  Pd14      1.0  0.37615587  0.56325352  0.5190742010024147  1.0000
  Pd  Pd15      1.0  0.12447481000000003  0.06280161  0.5092527688786215  1.0000
  Pd  Pd16      1.0  0.37437000000000004  0.93966627  0.49060617227413345  1.0000
  Sn  Sn9       1.0  0.6243700000000001  0.38814357  0.45614635331323933  1.0000
  Sn  Sn10      1.0  0.87437  0.61185643  0.43366371976124635  1.0000
  Sn  Sn11      1.0  0.6243700000000001  0.11185642999999999  0.4837445583396289  1.0000
  Sn  Sn12      1.0  0.87437  0.8881435699999999  0.4612619280994207  1.0000
  Pd  Pd17      1.0  0.6243700000000001  0.79145449  0.47520529361159225  1.0000
  Pd  Pd18      1.0  0.87437  0.20854551  0.4698011928274574  1.0000
  Pd  Pd19      1.0  0.6243700000000001  0.70854551  0.44760708858520265  1.0000
  Pd  Pd20      1.0  0.87437  0.29145449  0.442202984489283  1.0000
  Pd  Pd21      1.0  0.6243700000000001  0.43966627  0.48199851919130576  1.0000
  Pd  Pd22      1.0  0.87437  0.56033373  0.46300796724774385  1.0000
  Pd  Pd23      1.0  0.6243700000000001  0.06033372999999998  0.45440031416491616  1.0000
  Pd  Pd24      1.0  0.87437  0.93966627  0.43540975890956946  1.0000
  Sn  Sn13      1.0  0.6243156599999999  0.39162926  0.5107412472162693  1.0000
  Sn  Sn14      1.0  0.87437  0.61185643  0.4888601331258103  1.0000
  Sn  Sn15      1.0  0.6242832400000001  0.0991561  0.5378934045155396  1.0000
  Sn  Sn16      1.0  0.87470673  0.88922418  0.5172048210551822  1.0000
  Pd  Pd25      1.0  0.62446583  0.77816502  0.5294893632700437  1.0000
  Pd  Pd26      1.0  0.8757626399999999  0.21008599999999997  0.524930989642064  1.0000
  Pd  Pd27      1.0  0.6243700000000001  0.70854551  0.5028034986379819  1.0000
  Pd  Pd28      1.0  0.87437  0.29145449  0.49739939785384707  1.0000
  Pd  Pd29      1.0  0.6242292100000001  0.4243542  0.535054661864401  1.0000
  Pd  Pd30      1.0  0.87242343  0.5633564  0.5190994500492393  1.0000
  Pd  Pd31      1.0  0.6245742000000001  0.06209366999999999  0.5092413167270057  1.0000
  Pd  Pd32      1.0  0.87437  0.93966627  0.49060617227413345  1.0000
