data_image0
_chemical_formula_structural       COAg18Sn6Ag18Sn6
_chemical_formula_sum              "C1 O1 Ag36 Sn12"
_cell_length_a       6.18133666
_cell_length_b       11.670400047999822
_cell_length_c       106.21397146000001
_cell_angle_alpha    68.27900855503161
_cell_angle_beta     90.0
_cell_angle_gamma    90.0

_space_group_name_H-M_alt    "P 1"
_space_group_IT_number       1

loop_
  _space_group_symop_operation_xyz
  'x, y, z'

loop_
  _atom_site_type_symbol
  _atom_site_label
  _atom_site_symmetry_multiplicity
  _atom_site_fract_x
  _atom_site_fract_y
  _atom_site_fract_z
  _atom_site_occupancy
  C   C1        1.0  0.499989385  0.40293987  0.5668121699589775  1.0000
  O   O1        1.0  0.500006845  0.37076890000000007  0.5786400815888463  1.0000
  Ag  Ag1       1.0  2.594999999962692e-06  0.60931467  0.42501788032919513  1.0000
  Ag  Ag2       1.0  2.594999999962692e-06  0.2759813400000001  0.47047828165921124  1.0000
  Ag  Ag3       1.0  2.594999999962692e-06  0.9426480099999999  0.4477480809942032  1.0000
  Ag  Ag4       1.0  0.500002595  0.55892909  0.4556773588073829  1.0000
  Ag  Ag5       1.0  0.500002595  0.22559576000000003  0.43294715814237483  1.0000
  Ag  Ag6       1.0  0.500002595  0.8922624299999999  0.478407559472391  1.0000
  Ag  Ag7       1.0  0.749507225  0.38900478000000005  0.44409011907616175  1.0000
  Ag  Ag8       1.0  0.749507225  0.05567144  0.4213599184111537  1.0000
  Ag  Ag9       1.0  0.749507225  0.72233811  0.46682031633163995  1.0000
  Ag  Ag10      1.0  0.7504979650000001  0.77923899  0.4366051234699461  1.0000
  Ag  Ag11      1.0  0.7504979650000001  0.44590566000000004  0.48206552139043235  1.0000
  Ag  Ag12      1.0  0.7504979650000001  0.11257232000000002  0.45933532072542427  1.0000
  Ag  Ag13      1.0  0.250497965  0.38900478000000005  0.44409011907616175  1.0000
  Ag  Ag14      1.0  0.250497965  0.05567144  0.4213599184111537  1.0000
  Ag  Ag15      1.0  0.250497965  0.72233811  0.46682031633163995  1.0000
  Ag  Ag16      1.0  0.24950722499999997  0.77923899  0.4366051234699461  1.0000
  Ag  Ag17      1.0  0.24950722499999997  0.44590566000000004  0.48206552139043235  1.0000
  Ag  Ag18      1.0  0.24950722499999997  0.11257232000000002  0.45933532072542427  1.0000
  Sn  Sn1       1.0  2.594999999962692e-06  0.55724854  0.45556276109693  1.0000
  Sn  Sn2       1.0  2.594999999962692e-06  0.22391520000000004  0.432832560431922  1.0000
  Sn  Sn3       1.0  2.594999999962692e-06  0.8905818699999999  0.4782929583524081  1.0000
  Sn  Sn4       1.0  0.500002595  0.61099523  0.4251324814491779  1.0000
  Sn  Sn5       1.0  0.500002595  0.2776619000000001  0.47059287936966404  1.0000
  Sn  Sn6       1.0  0.500002595  0.94432856  0.447862678704656  1.0000
  Ag  Ag19      1.0  2.594999999962692e-06  0.60931467  0.49320847891468933  1.0000
  Ag  Ag20      1.0  2.7144999999962692e-05  0.26924039000000005  0.5388802779193803  1.0000
  Ag  Ag21      1.0  2.594999999962692e-06  0.9426480099999999  0.5159386795796974  1.0000
  Ag  Ag22      1.0  0.500055015  0.55840429  0.5235575844738852  1.0000
  Ag  Ag23      1.0  0.500002595  0.22559576000000003  0.5011377567278691  1.0000
  Ag  Ag24      1.0  0.500005275  0.8796764299999998  0.545760170610928  1.0000
  Ag  Ag25      1.0  0.749507225  0.38900478000000005  0.512280717661656  1.0000
  Ag  Ag26      1.0  0.749507225  0.05567144  0.4895505169966479  1.0000
  Ag  Ag27      1.0  0.7496765550000001  0.71607761  0.5353849335313157  1.0000
  Ag  Ag28      1.0  0.7504979650000001  0.77923899  0.5047957220554404  1.0000
  Ag  Ag29      1.0  0.7538098650000001  0.43577915  0.5494531415822831  1.0000
  Ag  Ag30      1.0  0.754897755  0.10418076000000003  0.5286766493001684  1.0000
  Ag  Ag31      1.0  0.250497965  0.38900478000000005  0.512280717661656  1.0000
  Ag  Ag32      1.0  0.250497965  0.05567144  0.4895505169966479  1.0000
  Ag  Ag33      1.0  0.250338395  0.71607032  0.5353862291526887  1.0000
  Ag  Ag34      1.0  0.24950722499999997  0.77923899  0.5047957220554404  1.0000
  Ag  Ag35      1.0  0.24619200499999996  0.43578289000000003  0.5494553202719079  1.0000
  Ag  Ag36      1.0  0.24509794499999998  0.10419349000000001  0.5286778358165838  1.0000
  Sn  Sn7       1.0  6.70249999999627e-05  0.55387673  0.5243567169177685  1.0000
  Sn  Sn8       1.0  2.594999999962692e-06  0.22391520000000004  0.5010231590174161  1.0000
  Sn  Sn9       1.0  0.9999974050000001  0.8768351999999999  0.5460591625190158  1.0000
  Sn  Sn10      1.0  0.500002595  0.61099523  0.4933230800346721  1.0000
  Sn  Sn11      1.0  0.499993695  0.26770373  0.5384042495792448  1.0000
  Sn  Sn12      1.0  0.500002595  0.94432856  0.5160532772901503  1.0000
