data_image0
_chemical_formula_structural       COAl5Cu15Al5Cu15
_chemical_formula_sum              "C1 O1 Al10 Cu30"
_cell_length_a       8.332152351884455
_cell_length_b       5.26971585
_cell_length_c       108.72434473999999
_cell_angle_alpha    90.0
_cell_angle_beta     104.96321745849878
_cell_angle_gamma    71.56505120859681

_space_group_name_H-M_alt    "P 1"
_space_group_IT_number       1

loop_
  _space_group_symop_operation_xyz
  'x, y, z'

loop_
  _atom_site_type_symbol
  _atom_site_label
  _atom_site_symmetry_multiplicity
  _atom_site_fract_x
  _atom_site_fract_y
  _atom_site_fract_z
  _atom_site_occupancy
  C   C1        1.0  0.18604353  0.08730417499999994  0.5545954827294489  1.0000
  O   O1        1.0  0.20961700000000003  0.03780571499999992  0.5654902728130762  1.0000
  Al  Al1       1.0  0.45432322  0.2636176249999998  0.5415539744208885  1.0000
  Al  Al2       1.0  0.85696182  0.055077584999999867  0.5298005369383226  1.0000
  Al  Al3       1.0  0.05  0.4607529249999998  0.493871387182961  1.0000
  Al  Al4       1.0  0.25000000000000006  0.8607529249999999  0.5176160483320162  1.0000
  Al  Al5       1.0  0.65  0.6607529249999999  0.5057437177574886  1.0000
  Cu  Cu1       1.0  0.25000000000000006  0.3607529249999999  0.5176160483320162  1.0000
  Cu  Cu2       1.0  0.65  0.1607529249999999  0.5057437177574886  1.0000
  Cu  Cu3       1.0  0.8570435700000001  0.559284645  0.5297388732343852  1.0000
  Cu  Cu4       1.0  0.05  0.960752925  0.493871387182961  1.0000
  Cu  Cu5       1.0  0.45308085000000003  0.756099325  0.540653997060621  1.0000
  Cu  Cu6       1.0  0.5479726100000001  0.9621942849999999  0.5227657992676299  1.0000
  Cu  Cu7       1.0  0.9500000000000001  0.7607529249999999  0.5116798848256022  1.0000
  Cu  Cu8       1.0  0.15764679  0.15761908499999994  0.5369096856355655  1.0000
  Cu  Cu9       1.0  0.35000000000000003  0.5607529249999998  0.499807550689375  1.0000
  Cu  Cu10      1.0  0.73751475  0.366470725  0.545755925056665  1.0000
  Cu  Cu11      1.0  0.5497234100000001  0.46069534499999976  0.5226905156246954  1.0000
  Cu  Cu12      1.0  0.9500000000000001  0.2607529249999998  0.5116798848256022  1.0000
  Cu  Cu13      1.0  0.15377975000000002  0.6542390249999999  0.5349537747777747  1.0000
  Cu  Cu14      1.0  0.35000000000000003  0.0607529249999999  0.499807550689375  1.0000
  Cu  Cu15      1.0  0.73698966  0.8683484549999999  0.5457433023935359  1.0000
  Al  Al6       1.0  0.45  0.26075292499999986  0.48199905304673385  1.0000
  Al  Al7       1.0  0.8500000000000001  0.06075292499999984  0.47012672247220627  1.0000
  Al  Al8       1.0  0.05  0.4607529249999998  0.43450972718692377  1.0000
  Al  Al9       1.0  0.25000000000000006  0.8607529249999999  0.4582543918976786  1.0000
  Al  Al10      1.0  0.65  0.6607529249999999  0.44638205776145146  1.0000
  Cu  Cu16      1.0  0.25000000000000006  0.3607529249999999  0.4582543918976786  1.0000
  Cu  Cu17      1.0  0.65  0.1607529249999999  0.44638205776145146  1.0000
  Cu  Cu18      1.0  0.8500000000000001  0.560752925  0.47012672247220627  1.0000
  Cu  Cu19      1.0  0.05  0.960752925  0.43450972718692377  1.0000
  Cu  Cu20      1.0  0.45  0.7607529249999999  0.48199905304673385  1.0000
  Cu  Cu21      1.0  0.55  0.960752925  0.4641905554040927  1.0000
  Cu  Cu22      1.0  0.9500000000000001  0.7607529249999999  0.45231822482956496  1.0000
  Cu  Cu23      1.0  0.15000000000000002  0.16075292499999994  0.4760628895403198  1.0000
  Cu  Cu24      1.0  0.35000000000000003  0.5607529249999998  0.44044589425503733  1.0000
  Cu  Cu25      1.0  0.7500000000000001  0.36075292499999995  0.4879352201148474  1.0000
  Cu  Cu26      1.0  0.55  0.4607529249999998  0.4641905554040927  1.0000
  Cu  Cu27      1.0  0.9500000000000001  0.2607529249999998  0.45231822482956496  1.0000
  Cu  Cu28      1.0  0.15000000000000002  0.6607529249999999  0.4760628895403198  1.0000
  Cu  Cu29      1.0  0.35000000000000003  0.0607529249999999  0.44044589425503733  1.0000
  Cu  Cu30      1.0  0.7500000000000001  0.8607529249999999  0.4879352201148474  1.0000
