data_image0
_chemical_formula_structural       COGa12Os6
_chemical_formula_sum              "C1 O1 Ga12 Os6"
_cell_length_a       4.832094000829435
_cell_length_b       5.02818102688301
_cell_length_c       103.99479353000001
_cell_angle_alpha    91.6826480365065
_cell_angle_beta     92.35621955769753
_cell_angle_gamma    103.75301871317095

_space_group_name_H-M_alt    "P 1"
_space_group_IT_number       1

loop_
  _space_group_symop_operation_xyz
  'x, y, z'

loop_
  _atom_site_type_symbol
  _atom_site_label
  _atom_site_symmetry_multiplicity
  _atom_site_fract_x
  _atom_site_fract_y
  _atom_site_fract_z
  _atom_site_occupancy
  C   C1        1.0  0.48633244500000017  0.24733957500000006  0.548079635247117  1.0000
  O   O1        1.0  0.5031190350000002  0.2876893850000001  0.5593803906928532  1.0000
  Ga  Ga1       1.0  0.6629980650000002  0.3749999950000001  0.4528408329433015  1.0000
  Ga  Ga2       1.0  0.10744251500000013  0.04166666500000005  0.4891618780175188  1.0000
  Ga  Ga3       1.0  0.557835945  0.692233245  0.5277326967506412  1.0000
  Ga  Ga4       1.0  0.1864080550000001  0.48715928500000005  0.44061960930714683  1.0000
  Ga  Ga5       1.0  0.6308524950000001  0.15382594500000005  0.47694065111247036  1.0000
  Ga  Ga6       1.0  0.08564493500000013  0.814374885  0.513137929329815  1.0000
  Ga  Ga7       1.0  0.019741385000000135  0.737159285  0.4678603898439159  1.0000
  Ga  Ga8       1.0  0.4641858350000001  0.4038259450000001  0.5041814316492396  1.0000
  Ga  Ga9       1.0  0.9424337150000001  0.07721645500000004  0.5397747425112014  1.0000
  Ga  Ga10      1.0  0.05188695500000008  0.9583333349999998  0.443760574943641  1.0000
  Ga  Ga11      1.0  0.49633139500000006  0.624999995  0.4800816167489645  1.0000
  Ga  Ga12      1.0  0.9339240750000001  0.28425365500000005  0.5159120041334209  1.0000
  Os  Os1       1.0  0.043990485000000114  0.604866195  0.5351849475734942  1.0000
  Os  Os2       1.0  0.14692528500000013  0.26441297500000005  0.4648907436623328  1.0000
  Os  Os3       1.0  0.5913697250000001  0.931079645  0.5012117854676563  1.0000
  Os  Os4       1.0  0.5358141750000001  0.847746305  0.4558104823937785  1.0000
  Os  Os5       1.0  0.9802586149999999  0.5144129750000002  0.492131524199102  1.0000
  Os  Os6       1.0  0.4443076050000001  0.17064720500000002  0.530045082801299  1.0000
