data_image0
_chemical_formula_structural       V3Os3V3Os3V3Os3V3Os3CO
_chemical_formula_sum              "V12 Os12 C1 O1"
_cell_length_a       6.04986392
_cell_length_b       6.763953484989389
_cell_length_c       40.05470138
_cell_angle_alpha    108.43494882292202
_cell_angle_beta     90.0
_cell_angle_gamma    90.0

_space_group_name_H-M_alt    "P 1"
_space_group_IT_number       1

loop_
  _space_group_symop_operation_xyz
  'x, y, z'

loop_
  _atom_site_type_symbol
  _atom_site_label
  _atom_site_symmetry_multiplicity
  _atom_site_fract_x
  _atom_site_fract_y
  _atom_site_fract_z
  _atom_site_occupancy
  V   V1        1.0  0.12429902500000002  0.8406891200000002  0.5152775428762156  1.0000
  V   V2        1.0  0.132754475  0.48879305  0.551284134068385  1.0000
  V   V3        1.0  0.12570097500000002  0.15710882999999998  0.4763291060077597  1.0000
  Os  Os1       1.0  0.371134865  0.8089573700000002  0.5595236120771434  1.0000
  Os  Os2       1.0  0.373654715  0.49528537000000006  0.49467062788145777  1.0000
  Os  Os3       1.0  0.372692045  0.16448566  0.5274074641388715  1.0000
  V   V4        1.0  0.12570097500000002  0.8237755000000001  0.40512814964580685  1.0000
  V   V5        1.0  0.12570097500000002  0.49044216  0.44072862408873276  1.0000
  V   V6        1.0  0.12570097500000002  0.15710882999999998  0.3695276677267799  1.0000
  Os  Os4       1.0  0.37570097500000005  0.8237755000000001  0.4585288687862967  1.0000
  Os  Os5       1.0  0.37570097500000005  0.49044216  0.387327904948243  1.0000
  Os  Os6       1.0  0.37570097500000005  0.15710882999999998  0.42292838686726986  1.0000
  V   V7        1.0  0.6278331450000001  0.8428911700000001  0.515694073833914  1.0000
  V   V8        1.0  0.6335483850000001  0.48954039  0.5484333173957946  1.0000
  V   V9        1.0  0.6257009750000001  0.15710882999999998  0.4763291060077597  1.0000
  Os  Os7       1.0  0.871043555  0.8059449  0.559315499858361  1.0000
  Os  Os8       1.0  0.875310715  0.49496799  0.4943196025192248  1.0000
  Os  Os9       1.0  0.873535425  0.16891846  0.5274344977194699  1.0000
  V   V10       1.0  0.6257009750000001  0.8237755000000001  0.40512814964580685  1.0000
  V   V11       1.0  0.6257009750000001  0.49044216  0.44072862408873276  1.0000
  V   V12       1.0  0.6257009750000001  0.15710882999999998  0.3695276677267799  1.0000
  Os  Os10      1.0  0.875700975  0.8237755000000001  0.4585288687862967  1.0000
  Os  Os11      1.0  0.875700975  0.49044216  0.387327904948243  1.0000
  Os  Os12      1.0  0.875700975  0.15710882999999998  0.42292838686726986  1.0000
  C   C1        1.0  0.23199341500000004  0.62235446  0.6002256282038925  1.0000
  O   O1        1.0  0.27942599500000004  0.6900157400000001  0.6304723322732202  1.0000
