data_image0
_chemical_formula_structural       Pd8V24CO
_chemical_formula_sum              "Pd8 V24 C1 O1"
_cell_length_a       6.82176537
_cell_length_b       8.354922142398644
_cell_length_c       101.63122474
_cell_angle_alpha    95.0511525469124
_cell_angle_beta     90.0
_cell_angle_gamma    90.0

_space_group_name_H-M_alt    "P 1"
_space_group_IT_number       1

loop_
  _space_group_symop_operation_xyz
  'x, y, z'

loop_
  _atom_site_type_symbol
  _atom_site_label
  _atom_site_symmetry_multiplicity
  _atom_site_fract_x
  _atom_site_fract_y
  _atom_site_fract_z
  _atom_site_occupancy
  Pd  Pd1       1.0  0.07260604500000001  0.53268806  0.4944850069636864  1.0000
  Pd  Pd2       1.0  0.583011715  0.22044217000000002  0.5147658180772055  1.0000
  Pd  Pd3       1.0  0.055988495  0.93096007  0.5337368981375502  1.0000
  Pd  Pd4       1.0  0.572606045  0.84518806  0.47503280070219955  1.0000
  Pd  Pd5       1.0  0.051785015000000004  0.42795883  0.533722995256691  1.0000
  Pd  Pd6       1.0  0.572606045  0.34518806  0.47503280070219955  1.0000
  Pd  Pd7       1.0  0.07260604500000001  0.03268806000000003  0.4944850069636864  1.0000
  Pd  Pd8       1.0  0.576578925  0.71110124  0.5119703212850727  1.0000
  V   V1        1.0  0.947606045  0.76706306  0.47989585226757125  1.0000
  V   V2        1.0  0.44760604499999995  0.45456306  0.4993480585290581  1.0000
  V   V3        1.0  0.941368205  0.14106203000000003  0.517989499945919  1.0000
  V   V4        1.0  0.44760604499999995  0.07956306000000003  0.46044364600608445  1.0000
  V   V5        1.0  0.6976060450000001  0.61081306  0.4896219553983147  1.0000
  V   V6        1.0  0.19348906500000002  0.29539894  0.5097553063389597  1.0000
  V   V7        1.0  0.6662280850000001  0.96731194  0.5274837888003796  1.0000
  V   V8        1.0  0.197606045  0.92331306  0.4701697491368279  1.0000
  V   V9        1.0  0.322606045  0.59518806  0.4750328007021996  1.0000
  V   V10       1.0  0.822606045  0.28268806  0.4944850069636864  1.0000
  V   V11       1.0  0.328568495  0.96517427  0.5153179806232615  1.0000
  V   V12       1.0  0.816467515  0.67297224  0.5318507250725524  1.0000
  V   V13       1.0  0.322606045  0.78268806  0.4944850069636864  1.0000
  V   V14       1.0  0.8183236550000001  0.4706789  0.5137447422031866  1.0000
  V   V15       1.0  0.30115087500000004  0.17174993000000005  0.5307652950755144  1.0000
  V   V16       1.0  0.822606045  0.09518806000000003  0.4750328007021996  1.0000
  V   V17       1.0  0.947606045  0.42331306  0.4701697491368279  1.0000
  V   V18       1.0  0.44760604499999995  0.11081306000000003  0.4896219553983147  1.0000
  V   V19       1.0  0.9482149850000001  0.7974472100000001  0.5098459536201382  1.0000
  V   V20       1.0  0.430261365  0.48836291000000004  0.5268583334534833  1.0000
  V   V21       1.0  0.197606045  0.26706306  0.4798958522675713  1.0000
  V   V22       1.0  0.6976060450000001  0.95456306  0.49934805852905806  1.0000
  V   V23       1.0  0.204956975  0.65135876  0.5194459379825411  1.0000
  V   V24       1.0  0.6976060450000001  0.57956306  0.46044364600608445  1.0000
  C   C1        1.0  0.427009165  0.7888681200000001  0.5297882870076485  1.0000
  O   O1        1.0  0.5743423950000001  0.79552511  0.5395563539939157  1.0000
