data_image0
_chemical_formula_structural       COPd24Sb12
_chemical_formula_sum              "C1 O1 Pd24 Sb12"
_cell_length_a       7.896601393304508
_cell_length_b       9.1107241097621
_cell_length_c       38.93537547
_cell_angle_alpha    96.97015213925391
_cell_angle_beta     92.13650380832264
_cell_angle_gamma    85.15012412666945

_space_group_name_H-M_alt    "P 1"
_space_group_IT_number       1

loop_
  _space_group_symop_operation_xyz
  'x, y, z'

loop_
  _atom_site_type_symbol
  _atom_site_label
  _atom_site_symmetry_multiplicity
  _atom_site_fract_x
  _atom_site_fract_y
  _atom_site_fract_z
  _atom_site_occupancy
  C   C1        1.0  0.6727473100000001  0.45412561999999995  0.6204298255498021  1.0000
  O   O1        1.0  0.72783202  0.45688294999999995  0.6485903801228452  1.0000
  Pd  Pd1       1.0  0.8415772100000001  0.33007738  0.397432037635837  1.0000
  Pd  Pd2       1.0  0.22621125999999997  0.42605387999999994  0.3514096198771545  1.0000
  Pd  Pd3       1.0  0.8814486500000001  0.7251805799999999  0.3721749422888189  1.0000
  Pd  Pd4       1.0  0.35143463  0.010313829999999946  0.3602015857887088  1.0000
  Pd  Pd5       1.0  0.7282969100000001  0.03540726999999995  0.37196626438478586  1.0000
  Pd  Pd6       1.0  0.26038053  0.7306128699999999  0.38476524497922787  1.0000
  Pd  Pd7       1.0  0.57505326  0.5359634799999999  0.36164373321236004  1.0000
  Pd  Pd8       1.0  0.20983569999999999  0.25553022  0.4154118790347027  1.0000
  Pd  Pd9       1.0  0.04157721000000001  0.4300773799999999  0.47721712807097494  1.0000
  Pd  Pd10      1.0  0.4262112599999999  0.52605388  0.43119471031229234  1.0000
  Pd  Pd11      1.0  0.08144865  0.8251805799999999  0.4519600327239568  1.0000
  Pd  Pd12      1.0  0.55143463  0.11031382999999995  0.4399866762238467  1.0000
  Pd  Pd13      1.0  0.92829691  0.13540726999999997  0.45175135481992373  1.0000
  Pd  Pd14      1.0  0.4603805300000001  0.83061287  0.4645503354143658  1.0000
  Pd  Pd15      1.0  0.7750532600000001  0.6359634799999999  0.44142882364749786  1.0000
  Pd  Pd16      1.0  0.4061636800000001  0.35098863999999996  0.49311736310913984  1.0000
  Pd  Pd17      1.0  0.23845687000000002  0.5182706399999999  0.5516327138338641  1.0000
  Pd  Pd18      1.0  0.6184563300000001  0.6202275199999999  0.5123300517039184  1.0000
  Pd  Pd19      1.0  0.24935331000000005  0.9242935399999997  0.5293409510505036  1.0000
  Pd  Pd20      1.0  0.7328137899999999  0.20767757999999995  0.5191594799179672  1.0000
  Pd  Pd21      1.0  0.10163602999999999  0.22432777999999992  0.5298068959786449  1.0000
  Pd  Pd22      1.0  0.61498091  0.9343601999999999  0.5399651097573196  1.0000
  Pd  Pd23      1.0  0.95842279  0.7333008999999999  0.5194038297359338  1.0000
  Pd  Pd24      1.0  0.5965308100000001  0.4693052  0.5730662204209049  1.0000
  Sb  Sb1       1.0  0.07781111  0.5418186099999999  0.4142289773054024  1.0000
  Sb  Sb2       1.0  0.5005828600000001  0.27548695999999995  0.38342065876416065  1.0000
  Sb  Sb3       1.0  0.5729357100000001  0.8213990299999999  0.39987672461335105  1.0000
  Sb  Sb4       1.0  0.05522127000000001  0.9896861699999999  0.39280998362631186  1.0000
  Sb  Sb5       1.0  0.27148938  0.6445004799999999  0.49384642330851797  1.0000
  Sb  Sb6       1.0  0.70058286  0.37548696  0.46320574919929863  1.0000
  Sb  Sb7       1.0  0.7729357099999999  0.9213990299999998  0.47966181504848887  1.0000
  Sb  Sb8       1.0  0.25522127  0.08968616999999995  0.4725950740614498  1.0000
  Sb  Sb9       1.0  0.43474691  0.7483899999999999  0.5711251528912356  1.0000
  Sb  Sb10      1.0  0.9004433700000001  0.47349283  0.5439381998197543  1.0000
  Sb  Sb11      1.0  0.9398830800000001  0.015940539999999944  0.5585197947542615  1.0000
  Sb  Sb12      1.0  0.4299372900000001  0.21073213999999993  0.5525920736967834  1.0000
