data_image0
_chemical_formula_structural       COIn6Sb6
_chemical_formula_sum              "C1 O1 In6 Sb6"
_cell_length_a       4.740214476660405
_cell_length_b       12.28392853920692
_cell_length_c       106.54826954
_cell_angle_alpha    81.76463856633579
_cell_angle_beta     105.03415130161791
_cell_angle_gamma    67.30115156440772

_space_group_name_H-M_alt    "P 1"
_space_group_IT_number       1

loop_
  _space_group_symop_operation_xyz
  'x, y, z'

loop_
  _atom_site_type_symbol
  _atom_site_label
  _atom_site_symmetry_multiplicity
  _atom_site_fract_x
  _atom_site_fract_y
  _atom_site_fract_z
  _atom_site_occupancy
  C   C1        1.0  0.38249886000000016  0.42761438  0.5399272112360259  1.0000
  O   O1        1.0  0.5084454000000002  0.4271000800000001  0.5507724989449208  1.0000
  In  In1       1.0  0.3183285399999999  0.6320797400000001  0.4945335987009316  1.0000
  In  In2       1.0  0.3183285400000001  0.96541308  0.46594853218471693  1.0000
  In  In3       1.0  0.38326205  0.26260174000000003  0.5230829704757416  1.0000
  In  In4       1.0  0.6708794500000002  0.8628471100000001  0.5081316864086496  1.0000
  In  In5       1.0  0.6516618800000001  0.24319086  0.4850052431955267  1.0000
  In  In6       1.0  0.65166188  0.57652419  0.45642017667931206  1.0000
  Sb  Sb1       1.0  0.3669057  0.7271011200000002  0.5186168743426157  1.0000
  Sb  Sb2       1.0  0.31832854  0.09014248000000001  0.48734091964649123  1.0000
  Sb  Sb3       1.0  0.31832854  0.42347581000000006  0.45875585656048423  1.0000
  Sb  Sb4       1.0  0.6516618800000002  0.70125359  0.47781256414108625  1.0000
  Sb  Sb5       1.0  0.65166188  0.034586920000000014  0.44922750105507936  1.0000
  Sb  Sb6       1.0  0.68167146  0.36592946000000004  0.5062818028336408  1.0000
