data_image0
_chemical_formula_structural       COIn16Pd32
_chemical_formula_sum              "C1 O1 In16 Pd32"
_cell_length_a       10.22301613729948
_cell_length_b       11.09255771034609
_cell_length_c       101.82317019999999
_cell_angle_alpha    94.09914752956219
_cell_angle_beta     96.73256650473212
_cell_angle_gamma    109.65363620848296

_space_group_name_H-M_alt    "P 1"
_space_group_IT_number       1

loop_
  _space_group_symop_operation_xyz
  'x, y, z'

loop_
  _atom_site_type_symbol
  _atom_site_label
  _atom_site_symmetry_multiplicity
  _atom_site_fract_x
  _atom_site_fract_y
  _atom_site_fract_z
  _atom_site_occupancy
  C   C1        1.0  0.55292532  0.475545265  0.5368192882455651  1.0000
  O   O1        1.0  0.5588939200000002  0.461999605  0.5482361873694724  1.0000
  In  In1       1.0  0.7172846100000001  0.12722278500000006  0.48387813914529804  1.0000
  In  In2       1.0  0.21728461000000002  0.6897227850000001  0.4643447840789283  1.0000
  In  In3       1.0  0.29504067000000006  0.995619525  0.4556785251354152  1.0000
  In  In4       1.0  0.7950406699999999  0.433119525  0.47521188020178495  1.0000
  In  In5       1.0  0.11707879000000004  0.21490287500000005  0.4877928516501857  1.0000
  In  In6       1.0  0.61707879  0.7774028750000002  0.468259496583816  1.0000
  In  In7       1.0  0.8952464900000002  0.9079394350000001  0.4517638126305275  1.0000
  In  In8       1.0  0.3952464900000001  0.3454394350000001  0.4712971676968972  1.0000
  In  In9       1.0  0.7062333700000001  0.9857854850000001  0.5225343675413308  1.0000
  In  In10      1.0  0.22088137000000002  0.569299835  0.5040408151571908  1.0000
  In  In11      1.0  0.2950406700000001  0.8706195250000001  0.4947452352681546  1.0000
  In  In12      1.0  0.79886395  0.30518616500000006  0.5147161312373374  1.0000
  In  In13      1.0  0.12112507000000004  0.09129398500000006  0.5261585393602929  1.0000
  In  In14      1.0  0.6292788700000002  0.656889835  0.5080829288918266  1.0000
  In  In15      1.0  0.8952464900000002  0.7829394350000001  0.49083052276326694  1.0000
  In  In16      1.0  0.3926493000000001  0.22463802500000002  0.5106115232678367  1.0000
  Pd  Pd1       1.0  0.10706628000000004  0.883088645  0.4729781175991415  1.0000
  Pd  Pd2       1.0  0.60706628  0.44558864500000006  0.4534447625327717  1.0000
  Pd  Pd3       1.0  0.905259  0.23975366500000006  0.46657854668157167  1.0000
  Pd  Pd4       1.0  0.40525900000000004  0.6772536650000001  0.48611190174794144  1.0000
  Pd  Pd5       1.0  0.3380683400000001  0.11846183500000004  0.4834869813660913  1.0000
  Pd  Pd6       1.0  0.8380683400000002  0.680961835  0.4639536262997216  1.0000
  Pd  Pd7       1.0  0.6742569400000001  0.00438047500000005  0.45606968291462185  1.0000
  Pd  Pd8       1.0  0.17425694000000005  0.44188047500000005  0.47560303798099157  1.0000
  Pd  Pd9       1.0  0.04973741999999999  0.631486025  0.4840684815330752  1.0000
  Pd  Pd10      1.0  0.5497374200000001  0.19398602500000006  0.46453512646670536  1.0000
  Pd  Pd11      1.0  0.96258786  0.491356285  0.455488182747638  1.0000
  Pd  Pd12      1.0  0.4625878600000001  0.9288562850000002  0.4750215378140078  1.0000
  Pd  Pd13      1.0  0.12195106000000006  0.13079908500000004  0.46171397868786385  1.0000
  Pd  Pd14      1.0  0.62195106  0.568299085  0.4812473337542336  1.0000
  Pd  Pd15      1.0  0.8903742200000001  0.9920432250000001  0.4778426855928493  1.0000
  Pd  Pd16      1.0  0.39037422000000005  0.554543225  0.4583093305264796  1.0000
  Pd  Pd17      1.0  0.10457548000000001  0.759901265  0.5114688750377361  1.0000
  Pd  Pd18      1.0  0.60706628  0.32058864500000006  0.4925114726655113  1.0000
  Pd  Pd19      1.0  0.90353981  0.11748227500000005  0.5067434220361425  1.0000
  Pd  Pd20      1.0  0.4289573300000001  0.544749775  0.5243573233722393  1.0000
  Pd  Pd21      1.0  0.33341221000000004  0.9945000350000001  0.5206135417881979  1.0000
  Pd  Pd22      1.0  0.8373812999999999  0.557370455  0.5029289047040665  1.0000
  Pd  Pd23      1.0  0.6742569400000001  0.8793804750000003  0.49513639304736135  1.0000
  Pd  Pd24      1.0  0.17293058000000006  0.3193270550000001  0.5143534390258019  1.0000
  Pd  Pd25      1.0  0.03741214000000002  0.509107155  0.5211963577219789  1.0000
  Pd  Pd26      1.0  0.55513574  0.07730924500000004  0.504363890599315  1.0000
  Pd  Pd27      1.0  0.96258786  0.36635628500000006  0.4945548928803776  1.0000
  Pd  Pd28      1.0  0.45563191000000003  0.796907265  0.5136174409589219  1.0000
  Pd  Pd29      1.0  0.11878460000000003  0.00496936500000005  0.5001019031693785  1.0000
  Pd  Pd30      1.0  0.6252424800000002  0.436550615  0.5196114775479563  1.0000
  Pd  Pd31      1.0  0.8920741499999999  0.871917105  0.5164302065844375  1.0000
  Pd  Pd32      1.0  0.39005416000000004  0.433512205  0.4969161348461893  1.0000
