data_image0
_chemical_formula_structural       COSn14Sb11Pt8
_chemical_formula_sum              "C1 O1 Sn14 Sb11 Pt8"
_cell_length_a       9.50132567976983
_cell_length_b       9.580672626178258
_cell_length_c       108.0858415
_cell_angle_alpha    90.2691453445734
_cell_angle_beta     90.22596332994131
_cell_angle_gamma    90.29449543637014

_space_group_name_H-M_alt    "P 1"
_space_group_IT_number       1

loop_
  _space_group_symop_operation_xyz
  'x, y, z'

loop_
  _atom_site_type_symbol
  _atom_site_label
  _atom_site_symmetry_multiplicity
  _atom_site_fract_x
  _atom_site_fract_y
  _atom_site_fract_z
  _atom_site_occupancy
  C   C1        1.0  0.8537001149999999  0.746873405  0.5397799843930734  1.0000
  O   O1        1.0  0.8701701049999999  0.705356735  0.549813077429206  1.0000
  Sn  Sn1       1.0  0.926120515  0.06376163499999998  0.47072665412951253  1.0000
  Sn  Sn2       1.0  0.4288640949999999  0.5667558549999999  0.4859997874912606  1.0000
  Sn  Sn3       1.0  0.7263409249999999  0.5669679049999999  0.5141658389098501  1.0000
  Sn  Sn4       1.0  0.742863395  0.213251995  0.5004454054890219  1.0000
  Sn  Sn5       1.0  0.41658750499999997  0.910232415  0.5004588658935034  1.0000
  Sn  Sn6       1.0  0.5739696950000001  0.24916269499999996  0.5296796351421933  1.0000
  Sn  Sn7       1.0  0.566175395  0.936238365  0.5288517533169328  1.0000
  Sn  Sn8       1.0  0.9261180249999998  0.408564955  0.45648579636850845  1.0000
  Sn  Sn9       1.0  0.41072118499999993  0.575926855  0.5161742087791255  1.0000
  Sn  Sn10      1.0  0.24000224499999992  0.4083109149999999  0.45660843051959893  1.0000
  Sn  Sn11      1.0  0.5597768349999999  0.5034264150000001  0.450186922570794  1.0000
  Sn  Sn12      1.0  0.23343357499999998  0.06468545499999999  0.47052774317847235  1.0000
  Sn  Sn13      1.0  0.07387948499999995  0.7324677150000001  0.5142154204154673  1.0000
  Sn  Sn14      1.0  0.08166495499999996  0.7266410649999999  0.4866851334993284  1.0000
  Sb  Sb1       1.0  0.07493562499999995  0.42508309499999997  0.51460170935842  1.0000
  Sb  Sb2       1.0  0.9230068749999999  0.08277527499999998  0.530800478090225  1.0000
  Sb  Sb3       1.0  0.23367730499999995  0.7180132349999999  0.45631351728581127  1.0000
  Sb  Sb4       1.0  0.5818244149999999  0.219999605  0.4699440373189034  1.0000
  Sb  Sb5       1.0  0.21848198499999993  0.07461980499999998  0.5295156930534759  1.0000
  Sb  Sb6       1.0  0.42836705499999983  0.217232455  0.5005061288268302  1.0000
  Sb  Sb7       1.0  0.7328763349999999  0.9072903449999999  0.5005208471801075  1.0000
  Sb  Sb8       1.0  0.5797874949999999  0.9082313249999999  0.4698076256333831  1.0000
  Sb  Sb9       1.0  0.920544125  0.7162914450000001  0.4563676055603634  1.0000
  Sb  Sb10      1.0  0.7360886249999999  0.5627012250000001  0.4867054650526942  1.0000
  Sb  Sb11      1.0  0.08340102499999995  0.412228495  0.48645047495575844  1.0000
  Pt  Pt1       1.0  0.827942065  0.813000745  0.4783309158396312  1.0000
  Pt  Pt2       1.0  0.828423865  0.319753055  0.5216640805545144  1.0000
  Pt  Pt3       1.0  0.8310668349999999  0.313911025  0.47850300112069327  1.0000
  Pt  Pt4       1.0  0.822557255  0.8193115249999999  0.5235674804108318  1.0000
  Pt  Pt5       1.0  0.333645595  0.312927915  0.47866587553858414  1.0000
  Pt  Pt6       1.0  0.318887025  0.830355455  0.5223033088207361  1.0000
  Pt  Pt7       1.0  0.33187971499999996  0.815326805  0.4780378490068772  1.0000
  Pt  Pt8       1.0  0.32020812499999995  0.316025395  0.5213125067699256  1.0000
