data_image0
_chemical_formula_structural       COIn4Au12
_chemical_formula_sum              "C1 O1 In4 Au12"
_cell_length_a       7.870509229196753
_cell_length_b       5.1919482
_cell_length_c       101.4820369
_cell_angle_alpha    90.0
_cell_angle_beta     104.29750216267756
_cell_angle_gamma    90.0

_space_group_name_H-M_alt    "P 1"
_space_group_IT_number       1

loop_
  _space_group_symop_operation_xyz
  'x, y, z'

loop_
  _atom_site_type_symbol
  _atom_site_label
  _atom_site_symmetry_multiplicity
  _atom_site_fract_x
  _atom_site_fract_y
  _atom_site_fract_z
  _atom_site_occupancy
  C   C1        1.0  0.44394967  0.42728445000000004  0.5347039338220205  1.0000
  O   O1        1.0  0.5073793799999999  0.42788319999999996  0.5464989131261352  1.0000
  In  In1       1.0  0.08697271999999999  0.80005605  0.5032423551509116  1.0000
  In  In2       1.0  0.5630398200000001  0.8265987499999999  0.46330460051970146  1.0000
  In  In3       1.0  0.06303981999999998  0.16515236999999997  0.46330460051970146  1.0000
  In  In4       1.0  0.5611249500000001  0.18929465999999995  0.5039107890152704  1.0000
  Au  Au1       1.0  0.29112798  0.16565959999999993  0.5203725298555472  1.0000
  Au  Au2       1.0  0.8130398200000001  0.16299854999999996  0.48269352260242326  1.0000
  Au  Au3       1.0  0.82006299  0.8370014500000001  0.5181232690892573  1.0000
  Au  Au4       1.0  0.31303982  0.82875257  0.4826935226024233  1.0000
  Au  Au5       1.0  0.47878050000000005  0.6991624  0.519442283498521  1.0000
  Au  Au6       1.0  0.93663374  0.6638136099999999  0.47310811106331074  1.0000
  Au  Au7       1.0  0.19396731999999997  0.3332755499999999  0.4917317849648166  1.0000
  Au  Au8       1.0  0.68944591  0.32793750999999993  0.45350108687386476  1.0000
  Au  Au9       1.0  0.18944590999999997  0.6638136099999999  0.45350108687386476  1.0000
  Au  Au10      1.0  0.6787789900000001  0.65470007  0.4913953856155676  1.0000
  Au  Au11      1.0  0.93696018  0.33937087999999993  0.5126080824472583  1.0000
  Au  Au12      1.0  0.43663374000000005  0.32793750999999993  0.47310811106331074  1.0000
