data_image0
_chemical_formula_structural       COIn12Ni24
_chemical_formula_sum              "C1 O1 In12 Ni24"
_cell_length_a       9.23006493192551
_cell_length_b       6.86479682026501
_cell_length_c       99.09583072
_cell_angle_alpha    84.39890096854047
_cell_angle_beta     90.09822381494388
_cell_angle_gamma    89.58368360551596

_space_group_name_H-M_alt    "P 1"
_space_group_IT_number       1

loop_
  _space_group_symop_operation_xyz
  'x, y, z'

loop_
  _atom_site_type_symbol
  _atom_site_label
  _atom_site_symmetry_multiplicity
  _atom_site_fract_x
  _atom_site_fract_y
  _atom_site_fract_z
  _atom_site_occupancy
  C   C1        1.0  0.8741745449999998  0.221666555  0.5368037445776472  1.0000
  O   O1        1.0  0.875385545  0.24700859500000003  0.5485571343461701  1.0000
  In  In1       1.0  0.875468365  0.6765386950000001  0.51700850138713  1.0000
  In  In2       1.0  0.559661475  0.287177935  0.5003783776905373  1.0000
  In  In3       1.0  0.23477280499999997  0.07659844500000001  0.5266424334916975  1.0000
  In  In4       1.0  0.9401900749999998  0.16393234500000003  0.5014365856068314  1.0000
  In  In5       1.0  0.552198385  0.870374525  0.5324587820824325  1.0000
  In  In6       1.0  0.30512224499999996  0.5438918450000001  0.5189292064942133  1.0000
  In  In7       1.0  0.892994815  0.5252731650000001  0.47241522711638123  1.0000
  In  In8       1.0  0.559661475  0.14432078500000003  0.45843365476543396  1.0000
  In  In9       1.0  0.22632814499999998  0.9062255550000001  0.48639680240345934  1.0000
  In  In10      1.0  0.9485503649999999  0.04114618500000001  0.46076391486650475  1.0000
  In  In11      1.0  0.6152170349999999  0.8030509450000002  0.4887270654406607  1.0000
  In  In12      1.0  0.281883695  0.4220985650000001  0.47474549015358275  1.0000
  Ni  Ni1       1.0  0.08743925499999998  0.545114435  0.4945527215655991  1.0000
  Ni  Ni2       1.0  0.766606495  0.3069614650000001  0.5210126789407572  1.0000
  Ni  Ni3       1.0  0.416950905  0.9142013550000002  0.5074614200275881  1.0000
  Ni  Ni4       1.0  0.9463268049999999  0.02889530500000001  0.5260550311911616  1.0000
  Ni  Ni5       1.0  0.589490625  0.6015668850000001  0.5146205463185217  1.0000
  Ni  Ni6       1.0  0.252228725  0.239297635  0.5002996952610174  1.0000
  Ni  Ni7       1.0  0.7013012049999999  0.9711046950000002  0.5107268553617612  1.0000
  Ni  Ni8       1.0  0.39299481499999994  0.5967017450000002  0.49338759151506356  1.0000
  Ni  Ni9       1.0  0.05144963499999999  0.37528208500000004  0.518821908535247  1.0000
  Ni  Ni10      1.0  0.12245809499999999  0.8307758050000001  0.5108750301318244  1.0000
  Ni  Ni11      1.0  0.781883695  0.493527135  0.4957178516161344  1.0000
  Ni  Ni12      1.0  0.49348161499999993  0.24313802500000006  0.5251078589281684  1.0000
  Ni  Ni13      1.0  0.08743925499999998  0.402257295  0.4526079986404957  1.0000
  Ni  Ni14      1.0  0.754105925  0.164162055  0.480571146278521  1.0000
  Ni  Ni15      1.0  0.420772585  0.7832096749999999  0.466589570991443  1.0000
  Ni  Ni16      1.0  0.9207725849999999  0.8546382450000002  0.48756193539012527  1.0000
  Ni  Ni17      1.0  0.5874392549999999  0.47368586500000004  0.4735803601030474  1.0000
  Ni  Ni18      1.0  0.25410592499999995  0.09273348500000002  0.45959878481596933  1.0000
  Ni  Ni19      1.0  0.726328145  0.834796975  0.4654244409409076  1.0000
  Ni  Ni20      1.0  0.39299481499999994  0.45384459499999996  0.4514428656538296  1.0000
  Ni  Ni21      1.0  0.059661474999999985  0.21574936500000003  0.4794060162279857  1.0000
  Ni  Ni22      1.0  0.11521703499999998  0.7316223750000002  0.46775470397810903  1.0000
  Ni  Ni23      1.0  0.781883695  0.350669995  0.45377312869103104  1.0000
  Ni  Ni24      1.0  0.44855036499999995  0.11257475500000004  0.4817362792651871  1.0000
