data_image0
_chemical_formula_structural       COAl18V6
_chemical_formula_sum              "C1 O1 Al18 V6"
_cell_length_a       4.965518064266292
_cell_length_b       7.30558996890711
_cell_length_c       104.90732315
_cell_angle_alpha    88.59793984859644
_cell_angle_beta     87.9369589153389
_cell_angle_gamma    85.06619305823406

_space_group_name_H-M_alt    "P 1"
_space_group_IT_number       1

loop_
  _space_group_symop_operation_xyz
  'x, y, z'

loop_
  _atom_site_type_symbol
  _atom_site_label
  _atom_site_symmetry_multiplicity
  _atom_site_fract_x
  _atom_site_fract_y
  _atom_site_fract_z
  _atom_site_occupancy
  C   C1        1.0  0.299884075  0.75240324  0.5454781671286935  1.0000
  O   O1        1.0  0.411157755  0.7601740799999999  0.555183043219268  1.0000
  Al  Al1       1.0  0.743350895  0.60714286  0.4448169567807321  1.0000
  Al  Al2       1.0  0.07668422500000001  0.17857143  0.46066192848084175  1.0000
  Al  Al3       1.0  0.41001755500000003  0.7499999999999999  0.47650689685350756  1.0000
  Al  Al4       1.0  0.576684225  0.25  0.4487781988738985  1.0000
  Al  Al5       1.0  0.910017555  0.8214285699999999  0.4646231705740082  1.0000
  Al  Al6       1.0  0.243350895  0.39285714  0.4804681422741179  1.0000
  Al  Al7       1.0  0.243350895  0.53571429  0.4567006830602314  1.0000
  Al  Al8       1.0  0.576684225  0.10714286000000002  0.4725456547603411  1.0000
  Al  Al9       1.0  0.910017555  0.67857143  0.4883906264604508  1.0000
  Al  Al10      1.0  0.7433508950000001  0.3214285700000001  0.49235186855361707  1.0000
  Al  Al11      1.0  0.07877795500000001  0.8951544199999999  0.5078557040511695  1.0000
  Al  Al12      1.0  0.42306372500000006  0.45671225  0.5252311136041208  1.0000
  Al  Al13      1.0  0.576684225  0.9642857099999999  0.4963131106467836  1.0000
  Al  Al14      1.0  0.9096551450000001  0.53591768  0.511640604927907  1.0000
  Al  Al15      1.0  0.237680675  0.09552928000000002  0.5281134386706314  1.0000
  Al  Al16      1.0  0.243350895  0.25  0.5042355981605604  1.0000
  Al  Al17      1.0  0.5808892750000001  0.8156681299999999  0.5209740584216315  1.0000
  Al  Al18      1.0  0.923315775  0.40963573  0.534900119849554  1.0000
  V   V1        1.0  0.07668422500000001  0.03571429000000004  0.48442938436728433  1.0000
  V   V2        1.0  0.410017555  0.89285714  0.45273944096706503  1.0000
  V   V3        1.0  0.7433508950000001  0.46428571  0.46858441266717465  1.0000
  V   V4        1.0  0.089222125  0.74293039  0.5301365511756982  1.0000
  V   V5        1.0  0.410017555  0.60714286  0.50027435273995  1.0000
  V   V6        1.0  0.749899465  0.17988920000000003  0.5161226984681647  1.0000
