data_image0
_chemical_formula_structural       COCo32Si16
_chemical_formula_sum              "C1 O1 Co32 Si16"
_cell_length_a       10.287914767863201
_cell_length_b       6.166956909728918
_cell_length_c       107.56271355999999
_cell_angle_alpha    100.1318399560212
_cell_angle_beta     103.35144507162855
_cell_angle_gamma    63.96850595748968

_space_group_name_H-M_alt    "P 1"
_space_group_IT_number       1

loop_
  _space_group_symop_operation_xyz
  'x, y, z'

loop_
  _atom_site_type_symbol
  _atom_site_label
  _atom_site_symmetry_multiplicity
  _atom_site_fract_x
  _atom_site_fract_y
  _atom_site_fract_z
  _atom_site_occupancy
  C   C1        1.0  0.13971731000000004  0.5231115399999999  0.5449750672554728  1.0000
  O   O1        1.0  0.19314451000000002  0.5233744699999999  0.555889707651113  1.0000
  Co  Co1       1.0  0.6987674500000001  0.28414211999999994  0.4840461218366464  1.0000
  Co  Co2       1.0  0.44876745000000007  0.03414211999999986  0.4622200678091935  1.0000
  Co  Co3       1.0  0.9501524899999999  0.52931573  0.5056869163175143  1.0000
  Co  Co4       1.0  0.18773821000000004  0.7945300999999999  0.5263263628691205  1.0000
  Co  Co5       1.0  0.8012325500000002  0.60527572  0.4817706422088035  1.0000
  Co  Co6       1.0  0.55123255  0.35527571999999985  0.4599445881813507  1.0000
  Co  Co7       1.0  0.049671690000000046  0.8620481299999999  0.5036201671017153  1.0000
  Co  Co8       1.0  0.28793160000000007  0.1127487399999999  0.5242013433273212  1.0000
  Co  Co9       1.0  0.38803190000000004  0.8448776699999999  0.48934858880026816  1.0000
  Co  Co10      1.0  0.13803190000000004  0.59487767  0.46752253477281536  1.0000
  Co  Co11      1.0  0.6435256400000001  0.09865027999999978  0.5119491988487102  1.0000
  Co  Co12      1.0  0.8880319  0.34487767  0.44569648074536244  1.0000
  Co  Co13      1.0  0.11196810000000004  0.044540169999999935  0.47646817175301304  1.0000
  Co  Co14      1.0  0.8619681000000001  0.79454017  0.45464211772556024  1.0000
  Co  Co15      1.0  0.3619681  0.29454017  0.49829422578046595  1.0000
  Co  Co16      1.0  0.60134408  0.5630372699999998  0.5193419103387703  1.0000
  Co  Co17      1.0  0.8125571600000001  0.2780645399999999  0.5082746202673464  1.0000
  Co  Co18      1.0  0.5694011000000001  0.018850799999999855  0.48614351832446845  1.0000
  Co  Co19      1.0  0.06402302000000004  0.5234319  0.5286832903462566  1.0000
  Co  Co20      1.0  0.31940110000000005  0.7688508000000001  0.4643174642970157  1.0000
  Co  Co21      1.0  0.6805989000000001  0.6205670499999999  0.4578471882013599  1.0000
  Co  Co22      1.0  0.43437463000000004  0.35488489999999984  0.5215707031640062  1.0000
  Co  Co23      1.0  0.9305989  0.8705670499999998  0.4796732422288127  1.0000
  Co  Co24      1.0  0.18059890000000003  0.12056704999999997  0.5014992962562657  1.0000
  Co  Co25      1.0  0.6620559100000001  0.67619599  0.49988041766911  1.0000
  Co  Co26      1.0  0.4120559100000001  0.42619599  0.4780543636416571  1.0000
  Co  Co27      1.0  0.9096959  0.9177287499999999  0.5201866833946921  1.0000
  Co  Co28      1.0  0.16205592000000005  0.1761959899999999  0.45622830961420424  1.0000
  Co  Co29      1.0  0.8379440800000001  0.21322185999999999  0.46593634637633985  1.0000
  Co  Co30      1.0  0.5879440900000001  0.9632218599999997  0.444110292348887  1.0000
  Co  Co31      1.0  0.08794408000000004  0.4632218599999999  0.48776240040379276  1.0000
  Co  Co32      1.0  0.33239964  0.71598901  0.5097832301373867  1.0000
  Si  Si1       1.0  0.9585866699999999  0.46254905  0.4667559234354924  1.0000
  Si  Si2       1.0  0.70858667  0.21254905000000007  0.44492986940803947  1.0000
  Si  Si3       1.0  0.20858667000000003  0.7125490499999999  0.48858197746294524  1.0000
  Si  Si4       1.0  0.4649533800000001  0.9554259799999999  0.5112704644431547  1.0000
  Si  Si5       1.0  0.54141333  0.4268687999999999  0.4990608371177889  1.0000
  Si  Si6       1.0  0.29141333  0.17686879999999996  0.477234783090336  1.0000
  Si  Si7       1.0  0.7981998600000001  0.6681005799999999  0.5212169325116547  1.0000
  Si  Si8       1.0  0.041413330000000054  0.9268688  0.45540872906288316  1.0000
  Si  Si9       1.0  0.93998653  0.2311491999999999  0.4902058498512623  1.0000
  Si  Si10      1.0  0.6899865300000001  0.9811492  0.46837979582380934  1.0000
  Si  Si11      1.0  0.19238664000000005  0.47736157999999984  0.5121173258159257  1.0000
  Si  Si12      1.0  0.43998653000000004  0.7311491999999998  0.4465537417963565  1.0000
  Si  Si13      1.0  0.5600134700000001  0.6582686499999999  0.475610910702019  1.0000
  Si  Si14      1.0  0.31001347000000007  0.4082686499999999  0.4537848566745661  1.0000
  Si  Si15      1.0  0.81001347  0.90826865  0.4974369647294719  1.0000
  Si  Si16      1.0  0.04234573000000005  0.17204867999999995  0.5202991836075712  1.0000
