data_image0
_chemical_formula_structural       COFe5Ni5Fe5Ni5Fe5Ni5Fe5Ni5
_chemical_formula_sum              "C1 O1 Fe20 Ni20"
_cell_length_a       5.5288056534588845
_cell_length_b       8.623975151488908
_cell_length_c       104.79413725
_cell_angle_alpha    72.72103531055197
_cell_angle_beta     77.14639740305218
_cell_angle_gamma    75.14113959018515

_space_group_name_H-M_alt    "P 1"
_space_group_IT_number       1

loop_
  _space_group_symop_operation_xyz
  'x, y, z'

loop_
  _atom_site_type_symbol
  _atom_site_label
  _atom_site_symmetry_multiplicity
  _atom_site_fract_x
  _atom_site_fract_y
  _atom_site_fract_z
  _atom_site_occupancy
  C   C1        1.0  0.7884271450000002  0.17585018500000005  0.5455215981530483  1.0000
  O   O1        1.0  0.6783900150000001  0.173875675  0.5566906961481357  1.0000
  Fe  Fe1       1.0  0.409742745  0.44806696500000004  0.4480525014718731  1.0000
  Fe  Fe2       1.0  0.809742745  0.348066965  0.4575388933916536  1.0000
  Fe  Fe3       1.0  0.009742744999999995  0.048066965000000024  0.4859980658307581  1.0000
  Fe  Fe4       1.0  0.209742745  0.24806696500000003  0.46702528531143417  1.0000
  Fe  Fe5       1.0  0.6097427449999999  0.14806696500000002  0.47651167391097765  1.0000
  Ni  Ni1       1.0  0.409742745  0.44806696500000004  0.4717684796112058  1.0000
  Ni  Ni2       1.0  0.809742745  0.348066965  0.4812548715309863  1.0000
  Ni  Ni3       1.0  0.009742744999999995  0.048066965000000024  0.46228208769142537  1.0000
  Ni  Ni4       1.0  0.209742745  0.24806696500000003  0.4433093038518644  1.0000
  Ni  Ni5       1.0  0.6097427449999999  0.14806696500000002  0.4527956957716449  1.0000
  Fe  Fe6       1.0  0.409742745  0.44806696500000004  0.4954844577505385  1.0000
  Fe  Fe7       1.0  0.8005280349999999  0.346953065  0.5052104977369318  1.0000
  Fe  Fe8       1.0  0.983257755  0.07522500500000003  0.5321162806916356  1.0000
  Fe  Fe9       1.0  0.205983565  0.246671615  0.5156944515449012  1.0000
  Fe  Fe10      1.0  0.6198243950000001  0.163666945  0.5226880493634876  1.0000
  Ni  Ni6       1.0  0.40148452500000004  0.452559185  0.5195576236667303  1.0000
  Ni  Ni7       1.0  0.8060949450000001  0.362919165  0.5291951129321757  1.0000
  Ni  Ni8       1.0  0.01564169499999999  0.047847665000000025  0.5088903960962713  1.0000
  Ni  Ni9       1.0  0.209742745  0.24806696500000003  0.49074126345076685  1.0000
  Ni  Ni10      1.0  0.6097427449999999  0.14806696500000002  0.5002276553705474  1.0000
  Fe  Fe11      1.0  0.409742745  0.948066965  0.44805250147187314  1.0000
  Fe  Fe12      1.0  0.809742745  0.8480669650000001  0.4575388933916536  1.0000
  Fe  Fe13      1.0  0.009742745000000011  0.548066965  0.48599806583075805  1.0000
  Fe  Fe14      1.0  0.20974274499999998  0.7480669649999999  0.46702528531143417  1.0000
  Fe  Fe15      1.0  0.609742745  0.6480669649999999  0.4765116739109776  1.0000
  Ni  Ni11      1.0  0.409742745  0.948066965  0.4717684796112059  1.0000
  Ni  Ni12      1.0  0.809742745  0.8480669650000001  0.4812548715309864  1.0000
  Ni  Ni13      1.0  0.009742745000000011  0.548066965  0.4622820876914253  1.0000
  Ni  Ni14      1.0  0.20974274499999998  0.7480669649999999  0.4433093038518644  1.0000
  Ni  Ni15      1.0  0.609742745  0.6480669649999999  0.45279569577164486  1.0000
  Fe  Fe16      1.0  0.409742745  0.948066965  0.4954844577505387  1.0000
  Fe  Fe17      1.0  0.7995203150000001  0.848197535  0.505204458225818  1.0000
  Fe  Fe18      1.0  0.9902572550000001  0.578175865  0.5314563570248146  1.0000
  Fe  Fe19      1.0  0.20690066499999998  0.7458400249999999  0.5160783838308427  1.0000
  Fe  Fe20      1.0  0.621702485  0.664531705  0.5228457274188983  1.0000
  Ni  Ni16      1.0  0.3936096750000001  0.952152335  0.5198097790661442  1.0000
  Ni  Ni17      1.0  0.8054772050000002  0.863843995  0.5281526282372967  1.0000
  Ni  Ni18      1.0  0.013177215000000006  0.545724945  0.5092859558522076  1.0000
  Ni  Ni19      1.0  0.20974274499999998  0.7480669649999999  0.49074126345076685  1.0000
  Ni  Ni20      1.0  0.609742745  0.6480669649999999  0.5002276553705473  1.0000
