data_image0
_chemical_formula_structural       CORe18
_chemical_formula_sum              "C1 O1 Re18"
_cell_length_a       5.289994610353588
_cell_length_b       6.592925486638432
_cell_length_c       99.63656585
_cell_angle_alpha    84.93169976465433
_cell_angle_beta     85.10020581526209
_cell_angle_gamma    75.67237685606662

_space_group_name_H-M_alt    "P 1"
_space_group_IT_number       1

loop_
  _space_group_symop_operation_xyz
  'x, y, z'

loop_
  _atom_site_type_symbol
  _atom_site_label
  _atom_site_symmetry_multiplicity
  _atom_site_fract_x
  _atom_site_fract_y
  _atom_site_fract_z
  _atom_site_occupancy
  C   C1        1.0  0.07786331999999997  0.38151949  0.5356904785680002  1.0000
  O   O1        1.0  0.09858001999999996  0.32849892  0.5473335946360368  1.0000
  Re  Re1       1.0  0.6572482999999999  0.8233839200000002  0.5227621102623229  1.0000
  Re  Re2       1.0  0.05787459999999998  0.47222008000000004  0.5163435945857004  1.0000
  Re  Re3       1.0  0.47803184  0.14294099000000002  0.507262618792267  1.0000
  Re  Re4       1.0  0.16218904999999992  0.8568414500000001  0.5168338848739172  1.0000
  Re  Re5       1.0  0.5593435499999999  0.5317518700000001  0.5083935646150405  1.0000
  Re  Re6       1.0  0.81213306  0.16041402000000005  0.5245803988507528  1.0000
  Re  Re7       1.0  0.8611568799999999  0.8041549100000001  0.49745026027754113  1.0000
  Re  Re8       1.0  0.25442878999999996  0.47222222  0.48872054819347643  1.0000
  Re  Re9       1.0  0.6483681899999999  0.13888889000000001  0.47970701248609815  1.0000
  Re  Re10      1.0  0.35543888999999995  0.8611111100000001  0.4902228026574728  1.0000
  Re  Re11      1.0  0.74937829  0.5277777800000001  0.4812092669500945  1.0000
  Re  Re12      1.0  0.95769242  0.19119458000000006  0.4990197317425816  1.0000
  Re  Re13      1.0  0.04230757999999998  0.80555556  0.4706934767787198  1.0000
  Re  Re14      1.0  0.43624696999999996  0.47222222  0.4616799410713416  1.0000
  Re  Re15      1.0  0.83018637  0.13888889000000001  0.45266640536396313  1.0000
  Re  Re16      1.0  0.53725708  0.8611111100000001  0.4631821955353378  1.0000
  Re  Re17      1.0  0.93119647  0.5277777800000001  0.4541686598279595  1.0000
  Re  Re18      1.0  0.14331768  0.19444444000000002  0.4721957312427161  1.0000
