data_image0
_chemical_formula_structural       COV18Ir6
_chemical_formula_sum              "C1 O1 V18 Ir6"
_cell_length_a       6.77364023
_cell_length_b       6.773640236590872
_cell_length_c       103.18392453
_cell_angle_alpha    90.0
_cell_angle_beta     90.0
_cell_angle_gamma    59.99999998335119

_space_group_name_H-M_alt    "P 1"
_space_group_IT_number       1

loop_
  _space_group_symop_operation_xyz
  'x, y, z'

loop_
  _atom_site_type_symbol
  _atom_site_label
  _atom_site_symmetry_multiplicity
  _atom_site_fract_x
  _atom_site_fract_y
  _atom_site_fract_z
  _atom_site_occupancy
  C   C1        1.0  0.040526404999999856  0.45846696500000006  0.5313796423370171  1.0000
  O   O1        1.0  0.9519321549999998  0.39366273500000004  0.5411910172162953  1.0000
  V   V1        1.0  0.7980678449999998  0.4780205050000001  0.49900895177251753  1.0000
  V   V2        1.0  0.13140117499999987  0.811353835  0.47220897351864155  1.0000
  V   V3        1.0  0.4685214349999999  0.128198785  0.5243829213504497  1.0000
  V   V4        1.0  0.13965847499999987  0.304963085  0.5121950207844785  1.0000
  V   V5        1.0  0.46473450499999985  0.644687165  0.4856089610375808  1.0000
  V   V6        1.0  0.7980678449999998  0.978020505  0.4588089827837048  1.0000
  V   V7        1.0  0.5480678449999999  0.978020505  0.49900895177251753  1.0000
  V   V8        1.0  0.881401175  0.311353835  0.47220897351864155  1.0000
  V   V9        1.0  0.19049311499999985  0.646689405  0.5256978237441036  1.0000
  V   V10       1.0  0.3829162949999998  0.8018236850000001  0.5122553979219022  1.0000
  V   V11       1.0  0.7147345049999998  0.144687165  0.4856089610375808  1.0000
  V   V12       1.0  0.04806784499999983  0.4780205050000001  0.4588089827837048  1.0000
  V   V13       1.0  0.04806784500000005  0.728020505  0.49900895177251753  1.0000
  V   V14       1.0  0.38140117499999987  0.06135383500000001  0.47220897351864155  1.0000
  V   V15       1.0  0.7512521149999998  0.40832524500000006  0.5261981139661681  1.0000
  V   V16       1.0  0.8821654649999999  0.06993177500000002  0.5125216310605237  1.0000
  V   V17       1.0  0.21473450499999983  0.394687165  0.4856089610375808  1.0000
  V   V18       1.0  0.5480678449999998  0.728020505  0.4588089827837048  1.0000
  Ir  Ir1       1.0  0.7942133349999999  0.740565845  0.518837001164701  1.0000
  Ir  Ir2       1.0  0.13140117499999987  0.06135383500000001  0.4923089580130479  1.0000
  Ir  Ir3       1.0  0.46473450499999974  0.394687165  0.46550897654317436  1.0000
  Ir  Ir4       1.0  0.7980678449999998  0.728020505  0.4789089672781111  1.0000
  Ir  Ir5       1.0  0.1395728449999999  0.021979495000000012  0.530799888032253  1.0000
  Ir  Ir6       1.0  0.46881800499999987  0.39527347500000004  0.5062628303527076  1.0000
