data_image0
_chemical_formula_structural       COCd12
_chemical_formula_sum              "C1 O1 Cd12"
_cell_length_a       5.31295531
_cell_length_b       6.7918272017534855
_cell_length_c       100.67436179
_cell_angle_alpha    103.05099502462716
_cell_angle_beta     90.0
_cell_angle_gamma    66.97525944644428

_space_group_name_H-M_alt    "P 1"
_space_group_IT_number       1

loop_
  _space_group_symop_operation_xyz
  'x, y, z'

loop_
  _atom_site_type_symbol
  _atom_site_label
  _atom_site_symmetry_multiplicity
  _atom_site_fract_x
  _atom_site_fract_y
  _atom_site_fract_z
  _atom_site_occupancy
  C   C1        1.0  0.703540205  0.5056529399999999  0.5501945001620505  1.0000
  O   O1        1.0  0.5694262550000001  0.45118435  0.556345300937929  1.0000
  Cd  Cd1       1.0  0.024416355000000098  0.27680306  0.4588891446769262  1.0000
  Cd  Cd2       1.0  0.5244163550000001  0.27680306  0.4436546990620711  1.0000
  Cd  Cd3       1.0  0.44108301499999997  0.77680306  0.46650636748435365  1.0000
  Cd  Cd4       1.0  0.941083015  0.77680306  0.4512719218694986  1.0000
  Cd  Cd5       1.0  0.024416355000000098  0.27680306  0.48935803590663635  1.0000
  Cd  Cd6       1.0  0.5244163550000001  0.27680306  0.4741235902917813  1.0000
  Cd  Cd7       1.0  0.459203745  0.75187366  0.49691625265930844  1.0000
  Cd  Cd8       1.0  0.941083015  0.77680306  0.4817408130992088  1.0000
  Cd  Cd9       1.0  0.044278115000000104  0.21374255  0.5205663248604853  1.0000
  Cd  Cd10      1.0  0.523213405  0.26809510999999997  0.5080208137406562  1.0000
  Cd  Cd11      1.0  0.4582243250000001  0.78625745  0.5287077558008526  1.0000
  Cd  Cd12      1.0  0.975583645  0.73475182  0.5142476039312617  1.0000
