data_image0
_chemical_formula_structural       COSn2Au6Sn2Au6
_chemical_formula_sum              "C1 O1 Sn4 Au12"
_cell_length_a       6.08549139
_cell_length_b       6.085491389014267
_cell_length_c       100.2294985
_cell_angle_alpha    90.0
_cell_angle_beta     90.0
_cell_angle_gamma    119.99999995099994

_space_group_name_H-M_alt    "P 1"
_space_group_IT_number       1

loop_
  _space_group_symop_operation_xyz
  'x, y, z'

loop_
  _atom_site_type_symbol
  _atom_site_label
  _atom_site_symmetry_multiplicity
  _atom_site_fract_x
  _atom_site_fract_y
  _atom_site_fract_z
  _atom_site_occupancy
  C   C1        1.0  0.8498932649999998  0.70178637  0.5431672446539607  1.0000
  O   O1        1.0  0.8242100749999999  0.6517101799999999  0.5544046999840533  1.0000
  Sn  Sn1       1.0  0.3324966749999999  0.66666667  0.47072886659998986  1.0000
  Sn  Sn2       1.0  0.6658300149999998  0.3333333299999999  0.4455953000159467  1.0000
  Au  Au1       1.0  0.16328054499999994  0.32823441  0.4455953000159467  1.0000
  Au  Au2       1.0  0.6709289349999998  0.8358827999999999  0.4455953000159467  1.0000
  Au  Au3       1.0  0.16328054499999986  0.8358827999999999  0.4455953000159467  1.0000
  Au  Au4       1.0  0.8350461449999999  0.6717655899999999  0.47072886659998986  1.0000
  Au  Au5       1.0  0.3273977549999999  0.1641172  0.47072886659998986  1.0000
  Au  Au6       1.0  0.8350461449999999  0.1641172  0.47072886659998986  1.0000
  Sn  Sn3       1.0  0.3363335849999999  0.6737304099999999  0.5193802833488791  1.0000
  Sn  Sn4       1.0  0.6625632349999999  0.32670458999999996  0.4952444248959203  1.0000
  Au  Au7       1.0  0.16258090499999994  0.32673257  0.49450848387662205  1.0000
  Au  Au8       1.0  0.6686294149999998  0.82026166  0.4963044441677724  1.0000
  Au  Au9       1.0  0.1501067349999999  0.82029762  0.49630865755904313  1.0000
  Au  Au10      1.0  0.8437728549999998  0.6890603799999999  0.522769771140416  1.0000
  Au  Au11      1.0  0.3475884949999999  0.18842742  0.5193850547053502  1.0000
  Au  Au12      1.0  0.8393076349999998  0.18841439  0.5193871056044655  1.0000
