data_image0
_chemical_formula_structural       CORh4V4Rh4V4Rh4V4Rh4V4
_chemical_formula_sum              "C1 O1 Rh16 V16"
_cell_length_a       5.60945288
_cell_length_b       8.906331858110097
_cell_length_c       105.28726883
_cell_angle_alpha    90.75512868004375
_cell_angle_beta     90.0
_cell_angle_gamma    90.0

_space_group_name_H-M_alt    "P 1"
_space_group_IT_number       1

loop_
  _space_group_symop_operation_xyz
  'x, y, z'

loop_
  _atom_site_type_symbol
  _atom_site_label
  _atom_site_symmetry_multiplicity
  _atom_site_fract_x
  _atom_site_fract_y
  _atom_site_fract_z
  _atom_site_occupancy
  C   C1        1.0  0.6243469349999999  0.029821875000000022  0.5343695300963135  1.0000
  O   O1        1.0  0.624347045  0.998326885  0.5453000426348636  1.0000
  Rh  Rh1       1.0  0.373039255  0.385104165  0.5194084325971093  1.0000
  Rh  Rh2       1.0  0.37434651499999994  0.429991615  0.47864869295275086  1.0000
  Rh  Rh3       1.0  0.37434651499999994  0.25154487500000006  0.4546999573651364  1.0000
  Rh  Rh4       1.0  0.37444245499999995  0.194033365  0.4964316453418009  1.0000
  V   V1        1.0  0.12434651499999996  0.17986337500000002  0.47520587796206204  1.0000
  V   V2        1.0  0.12434642499999997  0.132479065  0.5161735326785336  1.0000
  V   V3        1.0  0.12434651499999996  0.501673115  0.4581427723558251  1.0000
  V   V4        1.0  0.12434647499999997  0.449669305  0.5002107420816451  1.0000
  Rh  Rh5       1.0  0.37594121499999994  0.882700995  0.5199257837202731  1.0000
  Rh  Rh6       1.0  0.37434651499999994  0.929991615  0.47864869295275086  1.0000
  Rh  Rh7       1.0  0.37434651499999994  0.751544875  0.4546999573651364  1.0000
  Rh  Rh8       1.0  0.374937615  0.6964774149999999  0.4966833715207335  1.0000
  V   V5        1.0  0.12434651499999996  0.679863375  0.47520587796206204  1.0000
  V   V6        1.0  0.12434643499999996  0.631244585  0.5166938599539966  1.0000
  V   V7        1.0  0.12434651499999996  0.0016731150000000028  0.4581427723558251  1.0000
  V   V8        1.0  0.12434646499999996  0.947530895  0.5003231018855104  1.0000
  Rh  Rh9       1.0  0.8756535750000001  0.38510418500000004  0.5194084325971092  1.0000
  Rh  Rh10      1.0  0.874346515  0.429991615  0.47864869295275086  1.0000
  Rh  Rh11      1.0  0.874346515  0.25154487500000006  0.4546999573651364  1.0000
  Rh  Rh12      1.0  0.874250385  0.19403337500000004  0.4964316453418008  1.0000
  V   V9        1.0  0.6243465149999999  0.17986337500000002  0.47520587796206204  1.0000
  V   V10       1.0  0.624346415  0.13357844500000002  0.5176406986770391  1.0000
  V   V11       1.0  0.6243465149999999  0.501673115  0.4581427723558251  1.0000
  V   V12       1.0  0.624346495  0.448614325  0.5002136813671928  1.0000
  Rh  Rh13      1.0  0.872751555  0.882701025  0.5199257971263646  1.0000
  Rh  Rh14      1.0  0.874346515  0.929991615  0.47864869295275086  1.0000
  Rh  Rh15      1.0  0.874346515  0.751544875  0.4546999573651364  1.0000
  Rh  Rh16      1.0  0.8737552649999999  0.6964774650000001  0.4966833782237792  1.0000
  V   V13       1.0  0.6243465149999999  0.679863375  0.47520587796206204  1.0000
  V   V14       1.0  0.624346415  0.6291240249999999  0.516740824843827  1.0000
  V   V15       1.0  0.6243465149999999  0.0016731150000000028  0.4581427723558251  1.0000
  V   V16       1.0  0.624346465  0.950276795  0.5005199502291414  1.0000
