data_image0
_chemical_formula_structural       COSb8V12
_chemical_formula_sum              "C1 O1 Sb8 V12"
_cell_length_a       5.54414901
_cell_length_b       7.5795635703002056
_cell_length_c       37.26179305
_cell_angle_alpha    89.07049696625367
_cell_angle_beta     90.0
_cell_angle_gamma    111.45252086278487

_space_group_name_H-M_alt    "P 1"
_space_group_IT_number       1

loop_
  _space_group_symop_operation_xyz
  'x, y, z'

loop_
  _atom_site_type_symbol
  _atom_site_label
  _atom_site_symmetry_multiplicity
  _atom_site_fract_x
  _atom_site_fract_y
  _atom_site_fract_z
  _atom_site_occupancy
  C   C1        1.0  0.568866195  0.39489527500000005  0.6193851666511531  1.0000
  O   O1        1.0  0.609625385  0.47805296500000005  0.6462495704891171  1.0000
  Sb  Sb1       1.0  0.753139445  0.7626115049999999  0.4237862267033391  1.0000
  Sb  Sb2       1.0  0.4357054149999999  0.127743445  0.4516759741747542  1.0000
  Sb  Sb3       1.0  0.06714727500000005  0.390627165  0.39619750512324803  1.0000
  Sb  Sb4       1.0  0.550269015  0.356870645  0.3537504295108829  1.0000
  Sb  Sb5       1.0  0.32220024499999994  0.8986394849999999  0.5499742121222655  1.0000
  Sb  Sb6       1.0  0.018833095000000046  0.29232757500000006  0.5776327648209206  1.0000
  Sb  Sb7       1.0  0.6478019450000001  0.548703145  0.5268010963235185  1.0000
  Sb  Sb8       1.0  0.12169758500000001  0.499727795  0.4792647045408439  1.0000
  V   V1        1.0  0.45269795499999993  0.6901974849999999  0.3623230251985162  1.0000
  V   V2        1.0  0.25061322499999994  0.7575590649999999  0.4215069013893315  1.0000
  V   V3        1.0  0.9811669049999999  0.6901974849999999  0.3623230251985162  1.0000
  V   V4        1.0  0.6362493850000001  0.057300325  0.3876249094356148  1.0000
  V   V5        1.0  0.164718335  0.057300325  0.3876249094356148  1.0000
  V   V6        1.0  0.9382316350000002  0.132795895  0.4539553082747606  1.0000
  V   V7        1.0  0.02412653500000003  0.833054625  0.48783729144247845  1.0000
  V   V8        1.0  0.844482915  0.942699675  0.5414373139478085  1.0000
  V   V9        1.0  0.552595485  0.833054625  0.48783729144247845  1.0000
  V   V10       1.0  0.21561077499999998  0.20713118499999997  0.5132931151647762  1.0000
  V   V11       1.0  0.7362048549999999  0.206760535  0.5132562666857552  1.0000
  V   V12       1.0  0.503860375  0.262945365  0.5719758643413059  1.0000
