data_image0
_chemical_formula_structural       COV4Pt4V4Pt4V4Pt4V4Pt4
_chemical_formula_sum              "C1 O1 V16 Pt16"
_cell_length_a       7.66547698
_cell_length_b       8.307213363841377
_cell_length_c       100.66190792
_cell_angle_alpha    103.33754372193185
_cell_angle_beta     90.0
_cell_angle_gamma    76.66245627806816

_space_group_name_H-M_alt    "P 1"
_space_group_IT_number       1

loop_
  _space_group_symop_operation_xyz
  'x, y, z'

loop_
  _atom_site_type_symbol
  _atom_site_label
  _atom_site_symmetry_multiplicity
  _atom_site_fract_x
  _atom_site_fract_y
  _atom_site_fract_z
  _atom_site_occupancy
  C   C1        1.0  0.22229014999999994  0.6544433249999999  0.5345903643922096  1.0000
  O   O1        1.0  0.20382527999999991  0.6444049550000001  0.5461100283314441  1.0000
  V   V1        1.0  0.34374999999999994  0.7649258050000001  0.48244649247069005  1.0000
  V   V2        1.0  0.46874999999999983  0.264925805  0.47292765220331195  1.0000
  V   V3        1.0  0.2187499999999999  0.264925805  0.45388997166855577  1.0000
  V   V4        1.0  0.0937499999999999  0.7649258050000001  0.4634088119359339  1.0000
  Pt  Pt1       1.0  0.4062499999999998  0.5149258050000001  0.45864939180224484  1.0000
  Pt  Pt2       1.0  0.031249999999999917  0.014925805000000002  0.4872059126043791  1.0000
  Pt  Pt3       1.0  0.2812499999999999  0.014925805000000002  0.468168232069623  1.0000
  Pt  Pt4       1.0  0.15624999999999992  0.5149258050000001  0.477687072337001  1.0000
  V   V5        1.0  0.33113688999999996  0.7604390050000001  0.520822368657994  1.0000
  V   V6        1.0  0.4795030399999999  0.261701175  0.5099341465067365  1.0000
  V   V7        1.0  0.2187499999999999  0.264925805  0.49196533273806814  1.0000
  V   V8        1.0  0.09721897999999989  0.763949395  0.5014314767057261  1.0000
  Pt  Pt5       1.0  0.40457762999999997  0.511556915  0.49681748617514915  1.0000
  Pt  Pt6       1.0  0.03571410999999986  0.985074195  0.5249433472293272  1.0000
  Pt  Pt7       1.0  0.2814033299999999  0.023016025000000002  0.5066980088663698  1.0000
  Pt  Pt8       1.0  0.1472703599999999  0.5132849850000001  0.5159215823237261  1.0000
  V   V9        1.0  0.84375  0.7649258050000001  0.48244649247069005  1.0000
  V   V10       1.0  0.96875  0.264925805  0.47292765220331195  1.0000
  V   V11       1.0  0.71875  0.264925805  0.45388997166855577  1.0000
  V   V12       1.0  0.59375  0.7649258050000001  0.4634088119359339  1.0000
  Pt  Pt9       1.0  0.9062499999999999  0.5149258050000001  0.45864939180224484  1.0000
  Pt  Pt10      1.0  0.5312499999999999  0.014925805000000002  0.4872059126043791  1.0000
  Pt  Pt11      1.0  0.78125  0.014925805000000002  0.468168232069623  1.0000
  Pt  Pt12      1.0  0.6562499999999998  0.5149258050000001  0.477687072337001  1.0000
  V   V13       1.0  0.8501757399999998  0.766856435  0.5189195905639062  1.0000
  V   V14       1.0  0.9625538799999999  0.26152848500000003  0.5101371978382769  1.0000
  V   V15       1.0  0.71875  0.264925805  0.49196533273806814  1.0000
  V   V16       1.0  0.59547178  0.7607698250000001  0.5010876501032105  1.0000
  Pt  Pt13      1.0  0.90866054  0.511887355  0.49652116239310407  1.0000
  Pt  Pt14      1.0  0.5387303399999999  0.955869975  0.5248831424684042  1.0000
  Pt  Pt15      1.0  0.7769038699999999  0.015868255  0.5064216731258718  1.0000
  Pt  Pt16      1.0  0.6584566599999999  0.5142086150000001  0.5152756383922252  1.0000
