data_image0
_chemical_formula_structural       COSn32Pd8
_chemical_formula_sum              "C1 O1 Sn32 Pd8"
_cell_length_a       9.3186663173977
_cell_length_b       11.7303077
_cell_length_c       107.27466527
_cell_angle_alpha    90.0
_cell_angle_beta     89.72196534871779
_cell_angle_gamma    90.0

_space_group_name_H-M_alt    "P 1"
_space_group_IT_number       1

loop_
  _space_group_symop_operation_xyz
  'x, y, z'

loop_
  _atom_site_type_symbol
  _atom_site_label
  _atom_site_symmetry_multiplicity
  _atom_site_fract_x
  _atom_site_fract_y
  _atom_site_fract_z
  _atom_site_occupancy
  C   C1        1.0  0.782375395  0.06658280499999998  0.5364963441089052  1.0000
  O   O1        1.0  0.780095345  0.07014620499999999  0.547377390560572  1.0000
  Sn  Sn1       1.0  0.03499369499999996  0.191401105  0.5106633863975772  1.0000
  Sn  Sn2       1.0  0.536577175  0.18971111499999996  0.4674830945464074  1.0000
  Sn  Sn3       1.0  0.037136004999999965  0.18971111499999996  0.4812443497324655  1.0000
  Sn  Sn4       1.0  0.520005945  0.18632149499999998  0.5222651851837148  1.0000
  Sn  Sn5       1.0  0.957648155  0.4364083349999999  0.47433944792604965  1.0000
  Sn  Sn6       1.0  0.46226552499999995  0.44169243499999994  0.5177752861590592  1.0000
  Sn  Sn7       1.0  0.10469080499999997  0.43981450499999997  0.5183228875342555  1.0000
  Sn  Sn8       1.0  0.6160650249999999  0.4364083349999999  0.47438799287812905  1.0000
  Sn  Sn9       1.0  0.28657717499999996  0.4364083349999999  0.4891999330330291  1.0000
  Sn  Sn10      1.0  0.787225965  0.492894085  0.5308263590302751  1.0000
  Sn  Sn11      1.0  0.7871360049999999  0.4364083349999999  0.5029611882190872  1.0000
  Sn  Sn12      1.0  0.287136005  0.4364083349999999  0.4595275112458438  1.0000
  Sn  Sn13      1.0  0.707648155  0.18971111499999996  0.4960562864126714  1.0000
  Sn  Sn14      1.0  0.20764815499999997  0.18971111499999996  0.45262260943942795  1.0000
  Sn  Sn15      1.0  0.36606502499999993  0.18971111499999996  0.49610483136475086  1.0000
  Sn  Sn16      1.0  0.866065025  0.18971111499999996  0.4526711543915074  1.0000
  Sn  Sn17      1.0  0.786577175  0.6897111149999999  0.48919993303302917  1.0000
  Sn  Sn18      1.0  0.287289965  0.6390933449999999  0.5309975711102094  1.0000
  Sn  Sn19      1.0  0.287136005  0.6897111149999999  0.5029611882190873  1.0000
  Sn  Sn20      1.0  0.7871360049999999  0.6897111149999999  0.45952751124584373  1.0000
  Sn  Sn21      1.0  0.20764815499999997  0.936408335  0.4960562864126714  1.0000
  Sn  Sn22      1.0  0.707648155  0.936408335  0.45262260943942795  1.0000
  Sn  Sn23      1.0  0.866065025  0.936408335  0.4961048313647508  1.0000
  Sn  Sn24      1.0  0.36606502499999993  0.936408335  0.4526711543915074  1.0000
  Sn  Sn25      1.0  0.036577174999999955  0.936408335  0.46748309454640746  1.0000
  Sn  Sn26      1.0  0.5348542749999999  0.9345668449999999  0.5106777577326141  1.0000
  Sn  Sn27      1.0  0.04366458499999996  0.937550375  0.5221058009626938  1.0000
  Sn  Sn28      1.0  0.5371360049999999  0.936408335  0.48124434973246555  1.0000
  Sn  Sn29      1.0  0.9650063050000001  0.6851104949999999  0.517693901872494  1.0000
  Sn  Sn30      1.0  0.45764815499999995  0.6897111149999999  0.4743394479260496  1.0000
  Sn  Sn31      1.0  0.11606502499999997  0.6897111149999999  0.47438799287812905  1.0000
  Sn  Sn32      1.0  0.600187455  0.686831735  0.5183284122979666  1.0000
  Pd  Pd1       1.0  0.783640605  0.06457391499999998  0.5183041902049921  1.0000
  Pd  Pd2       1.0  0.286856595  0.06305972499999998  0.47436372213943645  1.0000
  Pd  Pd3       1.0  0.2830935649999999  0.06244962499999998  0.5161532537551464  1.0000
  Pd  Pd4       1.0  0.7868565949999999  0.06305972499999998  0.4743637221394364  1.0000
  Pd  Pd5       1.0  0.03685659499999996  0.5630597249999999  0.45264688365281475  1.0000
  Pd  Pd6       1.0  0.5368565949999999  0.5630597249999999  0.4960805606260582  1.0000
  Pd  Pd7       1.0  0.03685659499999996  0.5630597249999999  0.4960805606260582  1.0000
  Pd  Pd8       1.0  0.5368565949999999  0.5630597249999999  0.45264688365281475  1.0000
