data_image0
_chemical_formula_structural       COFe16Si16
_chemical_formula_sum              "C1 O1 Fe16 Si16"
_cell_length_a       6.32500714
_cell_length_b       7.746520056641753
_cell_length_c       40.6721484
_cell_angle_alpha    84.9488474755015
_cell_angle_beta     90.0
_cell_angle_gamma    90.0

_space_group_name_H-M_alt    "P 1"
_space_group_IT_number       1

loop_
  _space_group_symop_operation_xyz
  'x, y, z'

loop_
  _atom_site_type_symbol
  _atom_site_label
  _atom_site_symmetry_multiplicity
  _atom_site_fract_x
  _atom_site_fract_y
  _atom_site_fract_z
  _atom_site_occupancy
  C   C1        1.0  0.14027325  0.94903706  0.5804868193981816  1.0000
  O   O1        1.0  0.17517038999999998  0.88703149  0.6073157351615928  1.0000
  Fe  Fe1       1.0  0.9203143699999999  0.68339399  0.47460913304263325  1.0000
  Fe  Fe2       1.0  0.42031437  0.37089398999999995  0.4295416655714533  1.0000
  Fe  Fe3       1.0  0.9089737299999998  0.29650752999999996  0.5607254920455228  1.0000
  Fe  Fe4       1.0  0.41373341999999996  0.98706794  0.5197912016754962  1.0000
  Fe  Fe5       1.0  0.30661890999999997  0.52706273  0.4848570641302761  1.0000
  Fe  Fe6       1.0  0.80661891  0.21456272999999998  0.43978959665909634  1.0000
  Fe  Fe7       1.0  0.30661890999999997  0.9020627299999999  0.39472212918791644  1.0000
  Fe  Fe8       1.0  0.79773461  0.8478683499999999  0.5280607286275126  1.0000
  Fe  Fe9       1.0  0.9433810899999999  0.3445216199999999  0.49667867186326997  1.0000
  Fe  Fe10      1.0  0.4429234499999999  0.027143989999999993  0.4520753993070432  1.0000
  Fe  Fe11      1.0  0.9429234499999999  0.7146439899999999  0.4070079318358634  1.0000
  Fe  Fe12      1.0  0.45690946999999993  0.6537974599999999  0.5376193654190748  1.0000
  Fe  Fe13      1.0  0.056618909999999974  0.38793205999999997  0.39268426483840724  1.0000
  Fe  Fe14      1.0  0.5577672499999999  0.3294123199999999  0.525777178077735  1.0000
  Fe  Fe15      1.0  0.056618909999999974  0.012932059999999993  0.48281919978076693  1.0000
  Fe  Fe16      1.0  0.55661891  0.70043206  0.437751732309587  1.0000
  Si  Si1       1.0  0.21674044999999997  0.4187095399999999  0.5398552958800239  1.0000
  Si  Si2       1.0  0.71016499  0.10836736  0.4928865653559386  1.0000
  Si  Si3       1.0  0.21581741999999995  0.79420763  0.4479739857569637  1.0000
  Si  Si4       1.0  0.7158174199999999  0.48170762999999994  0.40290651828578383  1.0000
  Si  Si5       1.0  0.80665363  0.54997058  0.5317933028130133  1.0000
  Si  Si6       1.0  0.30661890999999997  0.23155968  0.4848570641302761  1.0000
  Si  Si7       1.0  0.80661891  0.9190596799999999  0.4397895966590962  1.0000
  Si  Si8       1.0  0.30661890999999997  0.60655968  0.39472212918791644  1.0000
  Si  Si9       1.0  0.14240087999999998  0.7594220899999999  0.5181548776449629  1.0000
  Si  Si10      1.0  0.6474204  0.4504576299999999  0.4705077194925536  1.0000
  Si  Si11      1.0  0.14742039999999995  0.13795763  0.4254402520213737  1.0000
  Si  Si12      1.0  0.66876434  0.07799492999999999  0.5564785502348826  1.0000
  Si  Si13      1.0  0.056618909999999974  0.4618078199999999  0.44595455940974627  1.0000
  Si  Si14      1.0  0.55661891  0.14930781999999998  0.40088709193856636  1.0000
  Si  Si15      1.0  0.06400828999999998  0.06757785  0.5393598205372482  1.0000
  Si  Si16      1.0  0.5588816  0.7766230399999999  0.4887214011690729  1.0000
