data_image0
_chemical_formula_structural       COV2Pt2V2Pt2V2Pt2V2Pt2
_chemical_formula_sum              "C1 O1 V8 Pt8"
_cell_length_a       5.42824988
_cell_length_b       4.81926357
_cell_length_c       100.90514112
_cell_angle_alpha    90.0
_cell_angle_beta     90.0
_cell_angle_gamma    90.0

_space_group_name_H-M_alt    "P 1"
_space_group_IT_number       1

loop_
  _space_group_symop_operation_xyz
  'x, y, z'

loop_
  _atom_site_type_symbol
  _atom_site_label
  _atom_site_symmetry_multiplicity
  _atom_site_fract_x
  _atom_site_fract_y
  _atom_site_fract_z
  _atom_site_occupancy
  C   C1        1.0  0.32195901499999996  0.27797587999999995  0.5354620600193842  1.0000
  O   O1        1.0  0.407462055  0.3196078299999999  0.5461444428658795  1.0000
  V   V1        1.0  0.12593030500000002  0.83383982  0.45385555713412035  1.0000
  V   V2        1.0  0.12593030500000002  0.17510657999999998  0.4757326390285359  1.0000
  Pt  Pt1       1.0  0.37593030499999996  0.3229475199999999  0.45385555713412035  1.0000
  Pt  Pt2       1.0  0.37593030499999996  0.68599888  0.4757326390285359  1.0000
  V   V3        1.0  0.122739505  0.8308322599999999  0.4980946159518398  1.0000
  V   V4        1.0  0.134595625  0.17447645999999994  0.5194761473656464  1.0000
  Pt  Pt3       1.0  0.373708585  0.32376541  0.4975184619866287  1.0000
  Pt  Pt4       1.0  0.373873285  0.69022003  0.5195764507253469  1.0000
  V   V5        1.0  0.625930305  0.83383982  0.45385555713412035  1.0000
  V   V6        1.0  0.625930305  0.17510657999999998  0.4757326390285359  1.0000
  Pt  Pt5       1.0  0.875930305  0.3229475199999999  0.45385555713412035  1.0000
  Pt  Pt6       1.0  0.875930305  0.68599888  0.4757326390285359  1.0000
  V   V7        1.0  0.629350175  0.83163568  0.4984771831158286  1.0000
  V   V8        1.0  0.617328965  0.16616017999999996  0.5183979436762073  1.0000
  Pt  Pt7       1.0  0.874857105  0.32099537999999994  0.49732296400349385  1.0000
  Pt  Pt8       1.0  0.877260495  0.6965834399999999  0.519276125639427  1.0000
