data_image0
_chemical_formula_structural       Co8Sb16CO
_chemical_formula_sum              "Co8 Sb16 C1 O1"
_cell_length_a       6.617924283341472
_cell_length_b       9.415460778152557
_cell_length_c       32.98995346
_cell_angle_alpha    102.18836821699298
_cell_angle_beta     109.43816355984536
_cell_angle_gamma    67.92323217328752

_space_group_name_H-M_alt    "P 1"
_space_group_IT_number       1

loop_
  _space_group_symop_operation_xyz
  'x, y, z'

loop_
  _atom_site_type_symbol
  _atom_site_label
  _atom_site_symmetry_multiplicity
  _atom_site_fract_x
  _atom_site_fract_y
  _atom_site_fract_z
  _atom_site_occupancy
  Co  Co1       1.0  0.774427535  0.7588313999999999  0.5678894168687112  1.0000
  Co  Co2       1.0  0.512589775  0.51065778  0.49567102444355954  1.0000
  Co  Co3       1.0  0.012589775000000048  0.010657780000000023  0.35543876182126477  1.0000
  Co  Co4       1.0  0.2625897750000001  0.26065778  0.42555489313241207  1.0000
  Co  Co5       1.0  0.7625897750000001  0.76065778  0.4255548931324121  1.0000
  Co  Co6       1.0  0.512589775  0.51065778  0.3554387618212647  1.0000
  Co  Co7       1.0  0.012589775000000048  0.010657780000000023  0.4956710244435594  1.0000
  Co  Co8       1.0  0.26674115500000006  0.24566167999999997  0.5620299632258823  1.0000
  Sb  Sb1       1.0  0.7349591050000001  0.8888153400000001  0.5016492828592821  1.0000
  Sb  Sb2       1.0  0.4849591049999999  0.6388153400000001  0.4315331515481347  1.0000
  Sb  Sb3       1.0  0.987410225  0.14267072000000003  0.5737225741576534  1.0000
  Sb  Sb4       1.0  0.23495910500000006  0.38881534  0.3614170202369874  1.0000
  Sb  Sb5       1.0  0.04022044500000006  0.88250022  0.41957663471668954  1.0000
  Sb  Sb6       1.0  0.790220445  0.63250022  0.34946050340554224  1.0000
  Sb  Sb7       1.0  0.2902204450000001  0.13250022  0.489692766027837  1.0000
  Sb  Sb8       1.0  0.5033615850000001  0.40660288  0.5619871306835869  1.0000
  Sb  Sb9       1.0  0.091801105  0.5319733400000001  0.46149854235431714  1.0000
  Sb  Sb10      1.0  0.841801105  0.28197334  0.39138241104316973  1.0000
  Sb  Sb11      1.0  0.34369548500000013  0.7865428200000001  0.5337672613338788  1.0000
  Sb  Sb12      1.0  0.642259125  0.05041562000000002  0.5979686426163998  1.0000
  Sb  Sb13      1.0  0.433378445  0.9893422199999999  0.38961124391050717  1.0000
  Sb  Sb14      1.0  0.20635465500000003  0.7264936099999999  0.6008736941688834  1.0000
  Sb  Sb15      1.0  0.6833784450000001  0.23934221999999997  0.45972737522165447  1.0000
  Sb  Sb16      1.0  0.936101325  0.48413437  0.5314564692360645  1.0000
  C   C1        1.0  0.803140855  0.6990007699999999  0.6169615095500864  1.0000
  O   O1        1.0  0.8308203950000002  0.6601257399999999  0.6505394965944582  1.0000
