data_image0
_chemical_formula_structural       COPt4W2Pt4W2Pt4W2Pt4W2
_chemical_formula_sum              "C1 O1 Pt16 W8"
_cell_length_a       5.61995682
_cell_length_b       7.94629896
_cell_length_c       103.51926584
_cell_angle_alpha    90.0
_cell_angle_beta     90.0
_cell_angle_gamma    90.0

_space_group_name_H-M_alt    "P 1"
_space_group_IT_number       1

loop_
  _space_group_symop_operation_xyz
  'x, y, z'

loop_
  _atom_site_type_symbol
  _atom_site_label
  _atom_site_symmetry_multiplicity
  _atom_site_fract_x
  _atom_site_fract_y
  _atom_site_fract_z
  _atom_site_occupancy
  C   C1        1.0  0.37839733  0.37610199  0.5369467999435835  1.0000
  O   O1        1.0  0.37839733999999997  0.376102  0.5481977417658083  1.0000
  Pt  Pt1       1.0  0.3783973199999999  0.37610196999999995  0.5186929078741682  1.0000
  Pt  Pt2       1.0  0.12839730999999996  0.12610195000000002  0.4518022582341917  1.0000
  Pt  Pt3       1.0  0.12839730999999996  0.12610195000000002  0.47819026075291643  1.0000
  Pt  Pt4       1.0  0.37839730999999993  0.37610196  0.49261764828152127  1.0000
  W   W1        1.0  0.12160271999999994  0.12389801000000002  0.5049597289511518  1.0000
  W   W2        1.0  0.37839730999999993  0.37610195  0.46499625949355405  1.0000
  Pt  Pt5       1.0  0.3783973199999999  0.87610195  0.5179156711474184  1.0000
  Pt  Pt6       1.0  0.12839730999999996  0.62610195  0.4518022582341917  1.0000
  Pt  Pt7       1.0  0.12839730999999996  0.62610195  0.47819026075291643  1.0000
  Pt  Pt8       1.0  0.37839730999999993  0.87610195  0.4916168845175619  1.0000
  W   W3        1.0  0.12160267999999995  0.6283059  0.5049597289511518  1.0000
  W   W4        1.0  0.37839730999999993  0.87610195  0.46499625949355405  1.0000
  Pt  Pt9       1.0  0.87839732  0.3761019400000001  0.5175809132382747  1.0000
  Pt  Pt10      1.0  0.62839731  0.12610195000000002  0.4518022582341917  1.0000
  Pt  Pt11      1.0  0.62839731  0.12610195000000002  0.47819026075291643  1.0000
  Pt  Pt12      1.0  0.87839731  0.37610195  0.4914719398636478  1.0000
  W   W5        1.0  0.6351919  0.12389801000000002  0.5049597289511518  1.0000
  W   W6        1.0  0.87839731  0.37610195  0.46499625949355405  1.0000
  Pt  Pt13      1.0  0.87839732  0.87610199  0.5179239085524662  1.0000
  Pt  Pt14      1.0  0.62839731  0.62610195  0.4518022582341917  1.0000
  Pt  Pt15      1.0  0.62839731  0.62610195  0.47819026075291643  1.0000
  Pt  Pt16      1.0  0.87839731  0.8761019600000001  0.49148706120074404  1.0000
  W   W7        1.0  0.63519195  0.6283059  0.5049597321891255  1.0000
  W   W8        1.0  0.87839731  0.87610195  0.46499625949355405  1.0000
