data_image0
_chemical_formula_structural       COAl18Co4
_chemical_formula_sum              "C1 O1 Al18 Co4"
_cell_length_a       6.235511083171294
_cell_length_b       6.31548311
_cell_length_c       104.44453693
_cell_angle_alpha    90.0
_cell_angle_beta     94.88066611518765
_cell_angle_gamma    90.0

_space_group_name_H-M_alt    "P 1"
_space_group_IT_number       1

loop_
  _space_group_symop_operation_xyz
  'x, y, z'

loop_
  _atom_site_type_symbol
  _atom_site_label
  _atom_site_symmetry_multiplicity
  _atom_site_fract_x
  _atom_site_fract_y
  _atom_site_fract_z
  _atom_site_occupancy
  C   C1        1.0  0.12063304000000002  0.053363464999999985  0.540120938370236  1.0000
  O   O1        1.0  0.029099300000000012  0.010286914999999983  0.5491150175343417  1.0000
  Al  Al1       1.0  0.54634164  0.9897130850000001  0.5151365819200336  1.0000
  Al  Al2       1.0  0.5652563  0.503826475  0.47320500944038973  1.0000
  Al  Al3       1.0  0.9709007000000001  0.969993795  0.454031174829547  1.0000
  Al  Al4       1.0  0.15961190000000003  0.469993795  0.4511553689096817  1.0000
  Al  Al5       1.0  0.15961190000000003  0.03765915499999998  0.49237884734911075  1.0000
  Al  Al6       1.0  0.9709007000000001  0.5376591549999999  0.495254653268976  1.0000
  Al  Al7       1.0  0.6529004500000001  0.293598875  0.45088498246565833  1.0000
  Al  Al8       1.0  0.47761215000000007  0.7935988750000001  0.45430156127357035  1.0000
  Al  Al9       1.0  0.47761215000000007  0.7140540750000001  0.4955250397129993  1.0000
  Al  Al10      1.0  0.6529004500000001  0.21405407499999995  0.49210846090508736  1.0000
  Al  Al11      1.0  0.9423642700000001  0.20648609499999998  0.5141756296588278  1.0000
  Al  Al12      1.0  0.17510114000000002  0.6955564650000001  0.473397668191346  1.0000
  Al  Al13      1.0  0.15677917000000005  0.8080015150000001  0.5156657330850387  1.0000
  Al  Al14      1.0  0.95541146  0.312096485  0.47301235398731184  1.0000
  Al  Al15      1.0  0.74795866  0.581038855  0.5160914792767264  1.0000
  Al  Al16      1.0  0.34931694  0.11787648499999999  0.46957782812582644  1.0000
  Al  Al17      1.0  0.34323512000000006  0.385577635  0.5104287485543895  1.0000
  Al  Al18      1.0  0.7811956600000001  0.8897764650000001  0.47683219405283134  1.0000
  Co  Co1       1.0  0.8289825000000001  0.622294445  0.45947874867533445  1.0000
  Co  Co2       1.0  0.25834151000000005  0.12207080499999999  0.5266707396977156  1.0000
  Co  Co3       1.0  0.3015301  0.385358505  0.4869312735033234  1.0000
  Co  Co4       1.0  0.8245899200000001  0.8863986850000001  0.5017895540714732  1.0000
