data_image0
_chemical_formula_structural       COIn8Pt12
_chemical_formula_sum              "C1 O1 In8 Pt12"
_cell_length_a       5.69937838
_cell_length_b       5.699378377523341
_cell_length_c       112.01474155
_cell_angle_alpha    90.0
_cell_angle_beta     90.0
_cell_angle_gamma    120.00000001437478

_space_group_name_H-M_alt    "P 1"
_space_group_IT_number       1

loop_
  _space_group_symop_operation_xyz
  'x, y, z'

loop_
  _atom_site_type_symbol
  _atom_site_label
  _atom_site_symmetry_multiplicity
  _atom_site_fract_x
  _atom_site_fract_y
  _atom_site_fract_z
  _atom_site_occupancy
  C   C1        1.0  0.41630401  0.74952756  0.5531968506083698  1.0000
  O   O1        1.0  0.41628388  0.7495479  0.5639321547675469  1.0000
  In  In1       1.0  0.08298442000000002  0.08284707000000005  0.4360678452324532  1.0000
  In  In2       1.0  0.08298442000000002  0.08284707000000005  0.4985815551973461  1.0000
  In  In3       1.0  0.41631774999999993  0.74951374  0.4360678452324532  1.0000
  In  In4       1.0  0.7496510899999999  0.41618039999999995  0.4985815551973461  1.0000
  In  In5       1.0  0.41632255999999995  0.74950784  0.5197338087032485  1.0000
  In  In6       1.0  0.41631774999999993  0.74951374  0.477975826539607  1.0000
  In  In7       1.0  0.7496516200000001  0.41617983  0.540796638849383  1.0000
  In  In8       1.0  0.7496510899999999  0.41618039999999995  0.45667357013936966  1.0000
  Pt  Pt1       1.0  0.24868467000000005  0.4142458400000001  0.541340643144811  1.0000
  Pt  Pt2       1.0  0.75158546  0.91714657  0.5413406356431659  1.0000
  Pt  Pt3       1.0  0.2486782499999999  0.9171529299999998  0.541340305570784  1.0000
  Pt  Pt4       1.0  0.75104674  0.9168782299999999  0.45613395430629344  1.0000
  Pt  Pt5       1.0  0.24895326000000004  0.41478475000000004  0.45613395430629344  1.0000
  Pt  Pt6       1.0  0.24895326  0.9168782299999999  0.45613395430629344  1.0000
  Pt  Pt7       1.0  0.91697141  0.75080645  0.518553072277982  1.0000
  Pt  Pt8       1.0  0.41502457  0.24885953000000008  0.518553072277982  1.0000
  Pt  Pt9       1.0  0.91696878  0.24886198000000007  0.5185532860748657  1.0000
  Pt  Pt10      1.0  0.41492210000000007  0.24881591000000003  0.47851544612350577  1.0000
  Pt  Pt11      1.0  0.9170155799999999  0.75090939  0.47851544612350577  1.0000
  Pt  Pt12      1.0  0.9170155799999999  0.24881591000000003  0.47851544612350577  1.0000
