data_image0
_chemical_formula_structural       COFeSi2FeSi2FeSi2FeSi2FeSi2FeSi2
_chemical_formula_sum              "C1 O1 Fe6 Si12"
_cell_length_a       5.43384568
_cell_length_b       5.832489186184125
_cell_length_c       102.60307408
_cell_angle_alpha    117.76366728200504
_cell_angle_beta     90.0
_cell_angle_gamma    90.0

_space_group_name_H-M_alt    "P 1"
_space_group_IT_number       1

loop_
  _space_group_symop_operation_xyz
  'x, y, z'

loop_
  _atom_site_type_symbol
  _atom_site_label
  _atom_site_symmetry_multiplicity
  _atom_site_fract_x
  _atom_site_fract_y
  _atom_site_fract_z
  _atom_site_occupancy
  C   C1        1.0  0.37495922000000004  0.776217245  0.5364877270657166  1.0000
  O   O1        1.0  0.37495985000000004  0.772395435  0.5477884020198646  1.0000
  Fe  Fe1       1.0  0.12496206  0.018125184999999985  0.458230018219453  1.0000
  Si  Si1       1.0  0.37496206  0.7454074049999999  0.46424843528117826  1.0000
  Si  Si2       1.0  0.37496206  0.290842965  0.4522115979801354  1.0000
  Fe  Fe2       1.0  0.12496206  0.018125184999999985  0.484709953208581  1.0000
  Si  Si3       1.0  0.3748732000000001  0.7418908649999999  0.49011647402649644  1.0000
  Si  Si4       1.0  0.37496206  0.290842965  0.4786915361468558  1.0000
  Fe  Fe3       1.0  0.12523072  0.981861495  0.5100224534875798  1.0000
  Si  Si5       1.0  0.37486981  0.745715575  0.517340721886835  1.0000
  Si  Si6       1.0  0.37485527  0.27502135499999997  0.5065336096382841  1.0000
  Fe  Fe4       1.0  0.62496206  0.018125184999999985  0.458230018219453  1.0000
  Si  Si7       1.0  0.8749620600000001  0.7454074049999999  0.46424843528117826  1.0000
  Si  Si8       1.0  0.8749620600000001  0.290842965  0.4522115979801354  1.0000
  Fe  Fe5       1.0  0.62496206  0.018125184999999985  0.484709953208581  1.0000
  Si  Si9       1.0  0.87502955  0.740263975  0.4902788966582297  1.0000
  Si  Si10      1.0  0.8749620600000001  0.290842965  0.4786915361468558  1.0000
  Fe  Fe6       1.0  0.62476967  0.9818748149999998  0.5100271912777375  1.0000
  Si  Si11      1.0  0.8750322700000001  0.7370224249999999  0.5164603222690876  1.0000
  Si  Si12      1.0  0.8750379400000001  0.278266655  0.5067210589871752  1.0000
