data_image0
_chemical_formula_structural       COCo32
_chemical_formula_sum              "C1 O1 Co32"
_cell_length_a       4.943025832203248
_cell_length_b       7.97224658
_cell_length_c       104.60118084999999
_cell_angle_alpha    90.0
_cell_angle_beta     59.99999994782255
_cell_angle_gamma    90.0

_space_group_name_H-M_alt    "P 1"
_space_group_IT_number       1

loop_
  _space_group_symop_operation_xyz
  'x, y, z'

loop_
  _atom_site_type_symbol
  _atom_site_label
  _atom_site_symmetry_multiplicity
  _atom_site_fract_x
  _atom_site_fract_y
  _atom_site_fract_z
  _atom_site_occupancy
  C   C1        1.0  0.05637129499999998  0.12425635500000001  0.5392877153657974  1.0000
  O   O1        1.0  0.943628705  0.124232775  0.5522734680229857  1.0000
  Co  Co1       1.0  0.213939375  0.124329395  0.4477265319770143  1.0000
  Co  Co2       1.0  0.38060603499999995  0.374329395  0.45560251866069323  1.0000
  Co  Co3       1.0  0.213939375  0.124329395  0.4713544953359661  1.0000
  Co  Co4       1.0  0.38060603499999995  0.374329395  0.47923048532756  1.0000
  Co  Co5       1.0  0.213939375  0.124329395  0.4949824586949178  1.0000
  Co  Co6       1.0  0.3833257949999999  0.372893515  0.5025780301215221  1.0000
  Co  Co7       1.0  0.19462361499999997  0.124334135  0.5203218512361805  1.0000
  Co  Co8       1.0  0.396355725  0.37967835499999997  0.5251987995406353  1.0000
  Co  Co9       1.0  0.213939375  0.6243293950000001  0.4477265319770143  1.0000
  Co  Co10      1.0  0.38060603499999995  0.874329395  0.45560251866069323  1.0000
  Co  Co11      1.0  0.213939375  0.6243293950000001  0.4713544953359661  1.0000
  Co  Co12      1.0  0.38060603499999995  0.874329395  0.47923048532756  1.0000
  Co  Co13      1.0  0.213939375  0.6243293950000001  0.4949824586949178  1.0000
  Co  Co14      1.0  0.383318615  0.875767225  0.5025779077286696  1.0000
  Co  Co15      1.0  0.21247629499999995  0.6243383849999999  0.5186608710645647  1.0000
  Co  Co16      1.0  0.39633524499999995  0.868998665  0.5251997224489027  1.0000
  Co  Co17      1.0  0.7139393749999999  0.124329395  0.4477265319770143  1.0000
  Co  Co18      1.0  0.880606035  0.374329395  0.45560251866069323  1.0000
  Co  Co19      1.0  0.7139393749999999  0.124329395  0.4713544953359661  1.0000
  Co  Co20      1.0  0.880606035  0.374329395  0.47923048532755996  1.0000
  Co  Co21      1.0  0.7139393749999999  0.124329395  0.4949824586949178  1.0000
  Co  Co22      1.0  0.8845856849999999  0.374516605  0.5024471822382974  1.0000
  Co  Co23      1.0  0.716105425  0.124329935  0.5185259742934579  1.0000
  Co  Co24      1.0  0.890634005  0.380142445  0.5251043718008606  1.0000
  Co  Co25      1.0  0.7139393749999999  0.6243293950000001  0.4477265319770143  1.0000
  Co  Co26      1.0  0.880606035  0.874329395  0.45560251866069323  1.0000
  Co  Co27      1.0  0.7139393749999999  0.6243293950000001  0.4713544953359661  1.0000
  Co  Co28      1.0  0.880606035  0.874329395  0.47923048532755996  1.0000
  Co  Co29      1.0  0.7139393749999999  0.6243293950000001  0.4949824586949178  1.0000
  Co  Co30      1.0  0.884586245  0.8741484250000001  0.502447314554895  1.0000
  Co  Co31      1.0  0.711431935  0.624340935  0.5186716085564483  1.0000
  Co  Co32      1.0  0.890620585  0.868528165  0.5251050135363582  1.0000
