data_image0
_chemical_formula_structural       COCu12Si4Cu12Si4
_chemical_formula_sum              "C1 O1 Cu24 Si8"
_cell_length_a       5.235018243848428
_cell_length_b       6.712711688325263
_cell_length_c       110.27627014000001
_cell_angle_alpha    84.96797078732928
_cell_angle_beta     67.04965733273856
_cell_angle_gamma    67.04965722792618

_space_group_name_H-M_alt    "P 1"
_space_group_IT_number       1

loop_
  _space_group_symop_operation_xyz
  'x, y, z'

loop_
  _atom_site_type_symbol
  _atom_site_label
  _atom_site_symmetry_multiplicity
  _atom_site_fract_x
  _atom_site_fract_y
  _atom_site_fract_z
  _atom_site_occupancy
  C   C1        1.0  0.7197472  0.42015955499999996  0.56251779016816  1.0000
  O   O1        1.0  0.53374865  0.5125013549999999  0.5724589694507434  1.0000
  Cu  Cu1       1.0  0.26013340000000007  0.032104974999999994  0.4377183752531485  1.0000
  Cu  Cu2       1.0  0.7601334000000001  0.532104975  0.4681542624050032  1.0000
  Cu  Cu3       1.0  0.5085537800000001  0.7836845849999999  0.4528401645646426  1.0000
  Cu  Cu4       1.0  0.008553780000000177  0.283684585  0.483276048064191  1.0000
  Cu  Cu5       1.0  0.7569741600000001  0.032104974999999994  0.4377183752531485  1.0000
  Cu  Cu6       1.0  0.25697416000000006  0.532104975  0.4681542624050032  1.0000
  Cu  Cu7       1.0  0.0069741600000001736  0.9498247149999999  0.4731628049858192  1.0000
  Cu  Cu8       1.0  0.5069741600000001  0.449824715  0.4427269214862709  1.0000
  Cu  Cu9       1.0  0.75855378  0.19824510499999998  0.45804101567432526  1.0000
  Cu  Cu10      1.0  0.2585537800000001  0.6982451049999999  0.4276051321747769  1.0000
  Cu  Cu11      1.0  0.5101334000000001  0.9498247149999999  0.4731628049858192  1.0000
  Cu  Cu12      1.0  0.010133399999999959  0.449824715  0.4427269214862709  1.0000
  Si  Si1       1.0  0.25855378  0.19929817500000002  0.45797691404880514  1.0000
  Si  Si2       1.0  0.7585537800000001  0.6992981749999999  0.42754103054925674  1.0000
  Si  Si3       1.0  0.008553780000000177  0.7826315149999999  0.4529042661901627  1.0000
  Si  Si4       1.0  0.5085537800000002  0.282631515  0.48334015334201724  1.0000
  Cu  Cu13      1.0  0.26013340000000007  0.032104974999999994  0.49859014590455153  1.0000
  Cu  Cu14      1.0  0.7521629200000002  0.5339775149999999  0.5290957957564836  1.0000
  Cu  Cu15      1.0  0.5085537800000001  0.7836845849999999  0.5137119352160455  1.0000
  Cu  Cu16      1.0  0.9898666  0.296507955  0.5453559248968898  1.0000
  Cu  Cu17      1.0  0.7569741600000001  0.032104974999999994  0.49859014590455153  1.0000
  Cu  Cu18      1.0  0.24768218000000017  0.545433945  0.5292383160476947  1.0000
  Cu  Cu19      1.0  0.9974013800000002  0.9678950249999999  0.5334948049612496  1.0000
  Cu  Cu20      1.0  0.5069741600000001  0.449824715  0.5035986884853677  1.0000
  Cu  Cu21      1.0  0.7646061300000001  0.201895265  0.5176400598914365  1.0000
  Cu  Cu22      1.0  0.2585537800000001  0.6982451049999999  0.4884769028261798  1.0000
  Cu  Cu23      1.0  0.5092415200000001  0.9543467049999999  0.5335737130359668  1.0000
  Cu  Cu24      1.0  0.010133399999999959  0.449824715  0.5035986884853677  1.0000
  Si  Si5       1.0  0.24561424000000007  0.21182800499999999  0.5202257976970313  1.0000
  Si  Si6       1.0  0.7585537800000001  0.6992981749999999  0.4884127975483536  1.0000
  Si  Si7       1.0  0.008553780000000177  0.7826315149999999  0.5137760368415656  1.0000
  Si  Si8       1.0  0.5130178900000001  0.280859675  0.5417431330312621  1.0000
