data_image0
_chemical_formula_structural       COSn2Au6Sn2Au6
_chemical_formula_sum              "C1 O1 Sn4 Au12"
_cell_length_a       6.085491389014267
_cell_length_b       5.03824975
_cell_length_c       33.48705166
_cell_angle_alpha    90.0
_cell_angle_beta     60.00000004900008
_cell_angle_gamma    90.0

_space_group_name_H-M_alt    "P 1"
_space_group_IT_number       1

loop_
  _space_group_symop_operation_xyz
  'x, y, z'

loop_
  _atom_site_type_symbol
  _atom_site_label
  _atom_site_symmetry_multiplicity
  _atom_site_fract_x
  _atom_site_fract_y
  _atom_site_fract_z
  _atom_site_occupancy
  C   C1        1.0  0.14016857  0.74999608  0.677158966658455  1.0000
  O   O1        1.0  0.05591919  0.75001042  0.7168275682572177  1.0000
  Sn  Sn1       1.0  0.78600975  0.75003296  0.6131177506811399  1.0000
  Sn  Sn2       1.0  0.45008185  0.24996704000000006  0.5524498256684737  1.0000
  Au  Au1       1.0  0.43643241999999993  0.25000581  0.4648991353504008  1.0000
  Au  Au2       1.0  0.9107739999999999  0.25003006000000005  0.5648576885985559  1.0000
  Au  Au3       1.0  0.9440808099999999  0.25000581  0.4648991353504007  1.0000
  Au  Au4       1.0  0.7891354500000001  0.75000129  0.5260920687992895  1.0000
  Au  Au5       1.0  0.2872512099999999  0.75000362  0.6091260074111433  1.0000
  Au  Au6       1.0  0.26622011  0.74999827  0.5257638703791382  1.0000
  Sn  Sn3       1.0  0.77486468  0.75000581  0.4341480446460173  1.0000
  Sn  Sn4       1.0  0.44153134  0.25000581  0.37357248404587906  1.0000
  Au  Au7       1.0  0.43643241999999993  0.25000581  0.2831724317427823  1.0000
  Au  Au8       1.0  0.9440808099999999  0.25000581  0.3726458632372504  1.0000
  Au  Au9       1.0  0.9440808099999999  0.25000581  0.28317243174278234  1.0000
  Au  Au10      1.0  0.7799635999999999  0.75000581  0.34282139334149564  1.0000
  Au  Au11      1.0  0.27231521  0.75000581  0.435074654551044  1.0000
  Au  Au12      1.0  0.27231522  0.75000581  0.34282139334149564  1.0000
