data_image0
_chemical_formula_structural       COIn2Sb2
_chemical_formula_sum              "C1 O1 In2 Sb2"
_cell_length_a       4.74021448
_cell_length_b       4.740214480808138
_cell_length_c       38.7548104
_cell_angle_alpha    90.0
_cell_angle_beta     90.0
_cell_angle_gamma    119.99999999436038

_space_group_name_H-M_alt    "P 1"
_space_group_IT_number       1

loop_
  _space_group_symop_operation_xyz
  'x, y, z'

loop_
  _atom_site_type_symbol
  _atom_site_label
  _atom_site_symmetry_multiplicity
  _atom_site_fract_x
  _atom_site_fract_y
  _atom_site_fract_z
  _atom_site_occupancy
  C   C1        1.0  0.19137264000000004  0.354144815  0.5949551842841005  1.0000
  O   O1        1.0  0.17477250000000005  0.320785065  0.6246268353796758  1.0000
  In  In1       1.0  0.8252275000000001  0.6219163050000001  0.5491070804892123  1.0000
  In  In2       1.0  0.35394331999999995  0.679214935  0.45079335042824603  1.0000
  Sb  Sb1       1.0  0.6816245200000001  0.334473435  0.479259288463571  1.0000
  Sb  Sb2       1.0  0.35394331999999995  0.679214935  0.37537316462032416  1.0000
