data_image0
_chemical_formula_structural       COSn4Pd4Sn4Pd4
_chemical_formula_sum              "C1 O1 Sn8 Pd8"
_cell_length_a       6.18785508
_cell_length_b       6.52737657
_cell_length_c       98.28153517
_cell_angle_alpha    90.0
_cell_angle_beta     90.0
_cell_angle_gamma    90.0

_space_group_name_H-M_alt    "P 1"
_space_group_IT_number       1

loop_
  _space_group_symop_operation_xyz
  'x, y, z'

loop_
  _atom_site_type_symbol
  _atom_site_label
  _atom_site_symmetry_multiplicity
  _atom_site_fract_x
  _atom_site_fract_y
  _atom_site_fract_z
  _atom_site_occupancy
  C   C1        1.0  0.74011932  0.188879535  0.5324377206373511  1.0000
  O   O1        1.0  0.71745008  0.172801045  0.5442820601038484  1.0000
  Sn  Sn1       1.0  0.80931415  0.5994461549999999  0.47627225471331003  1.0000
  Sn  Sn2       1.0  0.19068584999999996  0.410067555  0.45571793989615156  1.0000
  Sn  Sn3       1.0  0.30931415  0.9100675549999999  0.47627225471331003  1.0000
  Sn  Sn4       1.0  0.69068585  0.09944615499999998  0.45571793989615156  1.0000
  Pd  Pd1       1.0  0.98974025  0.194452105  0.47627225471331003  1.0000
  Pd  Pd2       1.0  0.010259749999999982  0.8150616049999999  0.45571793989615156  1.0000
  Pd  Pd3       1.0  0.48974024999999993  0.31506160499999997  0.47627225471331003  1.0000
  Pd  Pd4       1.0  0.51025975  0.6944521049999999  0.45571793989615156  1.0000
  Sn  Sn5       1.0  0.83092513  0.634645065  0.518374725364284  1.0000
  Sn  Sn6       1.0  0.19700437  0.40161928499999994  0.49830387393973113  1.0000
  Sn  Sn7       1.0  0.31324893  0.917922855  0.5181017903675764  1.0000
  Sn  Sn8       1.0  0.69342786  0.08207714499999996  0.49558312225380147  1.0000
  Pd  Pd5       1.0  0.96695956  0.17885277499999996  0.5172479102606892  1.0000
  Pd  Pd6       1.0  0.02311527999999998  0.812794485  0.4964253538191624  1.0000
  Pd  Pd7       1.0  0.53196753  0.30561416499999994  0.5167697589253113  1.0000
  Pd  Pd8       1.0  0.51481152  0.6908337949999999  0.4980867817288082  1.0000
