data_image0
_chemical_formula_structural       COSn2Pt2Sn2Pt2Sn2Pt2Sn2Pt2
_chemical_formula_sum              "C1 O1 Sn8 Pt8"
_cell_length_a       8.406040801690079
_cell_length_b       5.54184931
_cell_length_c       36.3758368
_cell_angle_alpha    90.0
_cell_angle_beta     60.00000000665085
_cell_angle_gamma    90.0

_space_group_name_H-M_alt    "P 1"
_space_group_IT_number       1

loop_
  _space_group_symop_operation_xyz
  'x, y, z'

loop_
  _atom_site_type_symbol
  _atom_site_label
  _atom_site_symmetry_multiplicity
  _atom_site_fract_x
  _atom_site_fract_y
  _atom_site_fract_z
  _atom_site_occupancy
  C   C1        1.0  0.26683659  0.8742919750000001  0.6138181089605107  1.0000
  O   O1        1.0  0.23100753  0.874408635  0.6487762663508805  1.0000
  Sn  Sn1       1.0  0.22765950999999998  0.875439755  0.5060217249393879  1.0000
  Sn  Sn2       1.0  0.32306192999999994  0.374519525  0.5425836556245416  1.0000
  Pt  Pt1       1.0  0.06203187999999999  0.624318955  0.4669066535745548  1.0000
  Pt  Pt2       1.0  0.062388499999999986  0.12456024500000001  0.4665372076255403  1.0000
  Sn  Sn3       1.0  0.23160611999999997  0.874573385  0.3897385015645216  1.0000
  Sn  Sn4       1.0  0.39827277999999994  0.374573385  0.4282532602363801  1.0000
  Pt  Pt3       1.0  0.06493945  0.624573385  0.35122373364911946  1.0000
  Pt  Pt4       1.0  0.06493945  0.12457338500000001  0.35122373364911946  1.0000
  Sn  Sn5       1.0  0.73207029  0.8747256650000002  0.5054603552954327  1.0000
  Sn  Sn6       1.0  0.93796812  0.372826855  0.543880302940994  1.0000
  Pt  Pt5       1.0  0.56595476  0.624700975  0.46753124905646193  1.0000
  Pt  Pt6       1.0  0.56648732  0.12468030499999999  0.4674372237313674  1.0000
  Sn  Sn7       1.0  0.7316061199999999  0.874573385  0.3897385015645216  1.0000
  Sn  Sn8       1.0  0.8982727799999999  0.374573385  0.42825326023638016  1.0000
  Pt  Pt7       1.0  0.5649394499999999  0.624573385  0.3512237336491195  1.0000
  Pt  Pt8       1.0  0.5649394499999999  0.12457338500000001  0.3512237336491195  1.0000
