data_image0
_chemical_formula_structural       COAu40
_chemical_formula_sum              "C1 O1 Au40"
_cell_length_a       5.9341629
_cell_length_b       8.901244342756161
_cell_length_c       104.98137435000001
_cell_angle_alpha    91.62013740054601
_cell_angle_beta     90.0
_cell_angle_gamma    90.0

_space_group_name_H-M_alt    "P 1"
_space_group_IT_number       1

loop_
  _space_group_symop_operation_xyz
  'x, y, z'

loop_
  _atom_site_type_symbol
  _atom_site_label
  _atom_site_symmetry_multiplicity
  _atom_site_fract_x
  _atom_site_fract_y
  _atom_site_fract_z
  _atom_site_occupancy
  C   C1        1.0  4.5000000008841594e-08  0.06554956000000002  0.5647917079957366  1.0000
  O   O1        1.0  2.250000000088416e-07  0.10696725000000003  0.5755360708091752  1.0000
  Au  Au1       1.0  0.999999955  0.7356374900000001  0.5438964317161902  1.0000
  Au  Au2       1.0  5.50000000088416e-08  0.20001737  0.5319515683695759  1.0000
  Au  Au3       1.0  9.50000000088416e-08  0.5078678700000001  0.4911069400422063  1.0000
  Au  Au4       1.0  9.50000000088416e-08  0.62786787  0.517764144382759  1.0000
  Au  Au5       1.0  9.50000000088416e-08  0.06786787000000002  0.5044355422124827  1.0000
  Au  Au6       1.0  0.24891421500000002  0.9164712200000001  0.5243982728447342  1.0000
  Au  Au7       1.0  0.25000009500000003  0.34786787  0.5110998432976208  1.0000
  Au  Au8       1.0  0.251664425  0.46884221  0.5380508766730172  1.0000
  Au  Au9       1.0  0.25000009500000003  0.78786787  0.49777124112734455  1.0000
  Au  Au10      1.0  0.25952223500000005  0.012132280000000018  0.5513516687148653  1.0000
  Au  Au11      1.0  9.50000000088416e-08  0.9478678700000002  0.47777833787193  1.0000
  Au  Au12      1.0  9.50000000088416e-08  0.38786787  0.4644497357016537  1.0000
  Au  Au13      1.0  9.50000000088416e-08  0.7078678700000001  0.4244639291908248  1.0000
  Au  Au14      1.0  9.50000000088416e-08  0.8278678700000001  0.45112113353137745  1.0000
  Au  Au15      1.0  9.50000000088416e-08  0.26786787  0.4377925313611011  1.0000
  Au  Au16      1.0  0.25000009500000003  0.10786787000000003  0.45778543461651555  1.0000
  Au  Au17      1.0  0.25000009500000003  0.54786787  0.44445683244623924  1.0000
  Au  Au18      1.0  0.25000009500000003  0.6678678700000001  0.47111403678679187  1.0000
  Au  Au19      1.0  0.25000009500000003  0.9878678700000001  0.431128230275963  1.0000
  Au  Au20      1.0  0.25000009500000003  0.22786787  0.48444263895706813  1.0000
  Au  Au21      1.0  0.49999988500000003  0.7406032000000001  0.5440997861995021  1.0000
  Au  Au22      1.0  0.5000000250000001  0.19663368000000003  0.5327446235308579  1.0000
  Au  Au23      1.0  0.5000000950000001  0.5078678700000001  0.4911069400422063  1.0000
  Au  Au24      1.0  0.5000000950000001  0.62786787  0.517764144382759  1.0000
  Au  Au25      1.0  0.5000000950000001  0.06786787000000002  0.5044355422124827  1.0000
  Au  Au26      1.0  0.7510859049999999  0.91647129  0.5243982928376374  1.0000
  Au  Au27      1.0  0.750000095  0.34786787  0.5110998432976208  1.0000
  Au  Au28      1.0  0.748335505  0.46884229  0.538050826690759  1.0000
  Au  Au29      1.0  0.750000095  0.78786787  0.49777124112734455  1.0000
  Au  Au30      1.0  0.740477445  0.012132130000000017  0.5513517120328223  1.0000
  Au  Au31      1.0  0.5000000950000001  0.9478678700000002  0.47777833787193  1.0000
  Au  Au32      1.0  0.5000000950000001  0.38786787  0.4644497357016537  1.0000
  Au  Au33      1.0  0.5000000950000001  0.7078678700000001  0.4244639291908248  1.0000
  Au  Au34      1.0  0.5000000950000001  0.8278678700000001  0.45112113353137745  1.0000
  Au  Au35      1.0  0.5000000950000001  0.26786787  0.4377925313611011  1.0000
  Au  Au36      1.0  0.750000095  0.10786787000000003  0.45778543461651555  1.0000
  Au  Au37      1.0  0.750000095  0.54786787  0.44445683244623924  1.0000
  Au  Au38      1.0  0.750000095  0.6678678700000001  0.47111403678679187  1.0000
  Au  Au39      1.0  0.750000095  0.9878678700000001  0.431128230275963  1.0000
  Au  Au40      1.0  0.750000095  0.22786787  0.48444263895706813  1.0000
