data_image0
_chemical_formula_structural       COSb36
_chemical_formula_sum              "C1 O1 Sb36"
_cell_length_a       11.54161292
_cell_length_b       11.696128802149598
_cell_length_c       100.94504812
_cell_angle_alpha    79.10660534825637
_cell_angle_beta     90.0
_cell_angle_gamma    90.0

_space_group_name_H-M_alt    "P 1"
_space_group_IT_number       1

loop_
  _space_group_symop_operation_xyz
  'x, y, z'

loop_
  _atom_site_type_symbol
  _atom_site_label
  _atom_site_symmetry_multiplicity
  _atom_site_fract_x
  _atom_site_fract_y
  _atom_site_fract_z
  _atom_site_occupancy
  C   C1        1.0  0.9334127900000001  0.8439846549999999  0.5466775747813318  1.0000
  O   O1        1.0  0.9621089800000001  0.8987732350000001  0.5543722154333648  1.0000
  Sb  Sb1       1.0  0.90489286  0.779820325  0.44562778456663515  1.0000
  Sb  Sb2       1.0  0.90489286  0.446486985  0.4748233452483579  1.0000
  Sb  Sb3       1.0  0.90489286  0.11315365499999999  0.46022556337472953  1.0000
  Sb  Sb4       1.0  0.70455769  0.668709215  0.46995741693530374  1.0000
  Sb  Sb5       1.0  0.70455769  0.335375875  0.4553596381272094  1.0000
  Sb  Sb6       1.0  0.70455769  0.002042544999999995  0.4845551988089322  1.0000
  Sb  Sb7       1.0  0.57155952  0.557598105  0.45049370981415526  1.0000
  Sb  Sb8       1.0  0.57155952  0.22426476499999998  0.4796892735614121  1.0000
  Sb  Sb9       1.0  0.57155952  0.8909314350000003  0.46509149168778363  1.0000
  Sb  Sb10      1.0  0.37122436  0.779820325  0.44562778456663515  1.0000
  Sb  Sb11      1.0  0.37122436  0.446486985  0.4748233452483579  1.0000
  Sb  Sb12      1.0  0.37122436  0.11315365499999999  0.46022556337472953  1.0000
  Sb  Sb13      1.0  0.23822618999999998  0.668709215  0.46995741693530374  1.0000
  Sb  Sb14      1.0  0.23822618999999998  0.335375875  0.4553596381272094  1.0000
  Sb  Sb15      1.0  0.23822618999999998  0.002042544999999995  0.4845551988089322  1.0000
  Sb  Sb16      1.0  0.03789102  0.557598105  0.45049370981415526  1.0000
  Sb  Sb17      1.0  0.03789102  0.22426476499999998  0.4796892735614121  1.0000
  Sb  Sb18      1.0  0.03789102  0.8909314350000003  0.46509149168778363  1.0000
  Sb  Sb19      1.0  0.90489286  0.779820325  0.4894211271219864  1.0000
  Sb  Sb20      1.0  0.9069097100000001  0.4340085550000001  0.5171471842096038  1.0000
  Sb  Sb21      1.0  0.9203921300000001  0.104290775  0.5063047060594746  1.0000
  Sb  Sb22      1.0  0.72224876  0.671862785  0.5110469799259498  1.0000
  Sb  Sb23      1.0  0.72013044  0.341166225  0.5015077400001886  1.0000
  Sb  Sb24      1.0  0.72252908  0.005266344999999995  0.5256568246760265  1.0000
  Sb  Sb25      1.0  0.57155952  0.557598105  0.4942870523695065  1.0000
  Sb  Sb26      1.0  0.5745973400000001  0.20419758500000004  0.5230079948089916  1.0000
  Sb  Sb27      1.0  0.5846562799999999  0.8814545250000001  0.5092045725090603  1.0000
  Sb  Sb28      1.0  0.37122436  0.779820325  0.4894211271219864  1.0000
  Sb  Sb29      1.0  0.38889226999999993  0.468406915  0.5168926467871792  1.0000
  Sb  Sb30      1.0  0.38881696  0.113715735  0.5059743610457703  1.0000
  Sb  Sb31      1.0  0.22184918  0.6540752750000001  0.5112503045366993  1.0000
  Sb  Sb32      1.0  0.24552149  0.326819345  0.5026704234888137  1.0000
  Sb  Sb33      1.0  0.23335546999999995  0.997957455  0.5267869644552812  1.0000
  Sb  Sb34      1.0  0.03789102  0.557598105  0.4942870523695065  1.0000
  Sb  Sb35      1.0  0.07166278999999999  0.21613054500000003  0.523723193097169  1.0000
  Sb  Sb36      1.0  0.0775156  0.9036624550000002  0.5087230384220279  1.0000
