data_image0
_chemical_formula_structural       COCa4Cu4As4Ca4Cu4As4Ca4Cu4As4Ca4Cu4As4
_chemical_formula_sum              "C1 O1 Ca16 Cu16 As16"
_cell_length_a       8.502668216324487
_cell_length_b       16.68361140742913
_cell_length_c       104.01067284999999
_cell_angle_alpha    104.76297728675023
_cell_angle_beta     119.99999993648937
_cell_angle_gamma    82.68002024921914

_space_group_name_H-M_alt    "P 1"
_space_group_IT_number       1

loop_
  _space_group_symop_operation_xyz
  'x, y, z'

loop_
  _atom_site_type_symbol
  _atom_site_label
  _atom_site_symmetry_multiplicity
  _atom_site_fract_x
  _atom_site_fract_y
  _atom_site_fract_z
  _atom_site_occupancy
  C   C1        1.0  0.31196155  0.4269611549999999  0.5414242606823171  1.0000
  O   O1        1.0  0.40469241  0.420591405  0.5539449598883927  1.0000
  Ca  Ca1       1.0  0.013092210000000009  0.308280365  0.4477581231017566  1.0000
  Ca  Ca2       1.0  0.013092210000000009  0.8082803649999999  0.4681951320632365  1.0000
  Ca  Ca3       1.0  0.013092210000000009  0.05828036499999997  0.4784136365439765  1.0000
  Ca  Ca4       1.0  0.013092210000000009  0.558280365  0.4579766275824966  1.0000
  Cu  Cu1       1.0  0.34642554  0.18328036499999997  0.45627354459234704  1.0000
  Cu  Cu2       1.0  0.34642554  0.683280365  0.47671055355382697  1.0000
  Cu  Cu3       1.0  0.17975888000000004  0.43328036499999995  0.480116719534126  1.0000
  Cu  Cu4       1.0  0.17975888000000004  0.933280365  0.45967971057264617  1.0000
  As  As1       1.0  0.17975888000000004  0.18328036499999997  0.469898215053386  1.0000
  As  As2       1.0  0.17975888000000004  0.683280365  0.4494612060919062  1.0000
  As  As3       1.0  0.34642554  0.43328036499999995  0.466492049073087  1.0000
  As  As4       1.0  0.34642554  0.933280365  0.4460550401116072  1.0000
  Ca  Ca5       1.0  0.013092210000000009  0.308280365  0.48863214102471636  1.0000
  Ca  Ca6       1.0  0.99664295  0.8159784150000001  0.5066736709421961  1.0000
  Ca  Ca7       1.0  0.9915829700000002  0.07001247499999996  0.5163737980479514  1.0000
  Ca  Ca8       1.0  0.0033570500000000086  0.552625175  0.4976895748824153  1.0000
  Cu  Cu5       1.0  0.34755383  0.19198141499999996  0.4977112054127001  1.0000
  Cu  Cu6       1.0  0.24564083000000003  0.688922135  0.5190157572297913  1.0000
  Cu  Cu7       1.0  0.17509821000000006  0.435672995  0.5214246364118272  1.0000
  Cu  Cu8       1.0  0.18108040000000006  0.9417196350000001  0.5009894618762718  1.0000
  As  As5       1.0  0.17391183000000002  0.17856921499999998  0.5096603877505697  1.0000
  As  As6       1.0  0.19690236000000003  0.6887700050000001  0.49296613740210227  1.0000
  As  As7       1.0  0.33326998  0.441970575  0.5075577530604196  1.0000
  As  As8       1.0  0.34642554  0.933280365  0.4869290580345669  1.0000
  Ca  Ca9       1.0  0.51309221  0.308280365  0.4477581231017566  1.0000
  Ca  Ca10      1.0  0.51309221  0.8082803649999999  0.46819513206323654  1.0000
  Ca  Ca11      1.0  0.51309221  0.05828036499999997  0.4784136365439765  1.0000
  Ca  Ca12      1.0  0.51309221  0.558280365  0.45797662758249663  1.0000
  Cu  Cu9       1.0  0.8464255400000001  0.18328036499999997  0.4562735445923471  1.0000
  Cu  Cu10      1.0  0.8464255400000001  0.683280365  0.47671055355382697  1.0000
  Cu  Cu11      1.0  0.6797588800000001  0.43328036499999995  0.480116719534126  1.0000
  Cu  Cu12      1.0  0.6797588800000001  0.933280365  0.4596797105726461  1.0000
  As  As9       1.0  0.6797588800000001  0.18328036499999997  0.46989821505338597  1.0000
  As  As10      1.0  0.6797588800000001  0.683280365  0.4494612060919061  1.0000
  As  As11      1.0  0.8464255400000001  0.43328036499999995  0.46649204907308706  1.0000
  As  As12      1.0  0.8464255400000001  0.933280365  0.4460550401116072  1.0000
  Ca  Ca13      1.0  0.51309221  0.308280365  0.4886321410247164  1.0000
  Ca  Ca14      1.0  0.49803559000000003  0.811269995  0.5069004628830828  1.0000
  Ca  Ca15      1.0  0.49291435000000006  0.06989912499999998  0.5164543427527096  1.0000
  Ca  Ca16      1.0  0.5067045600000001  0.559197415  0.4983858915720651  1.0000
  Cu  Cu13      1.0  0.84744048  0.19221644499999999  0.4977120686719587  1.0000
  Cu  Cu14      1.0  0.95867749  0.6907034450000001  0.51912854989973  1.0000
  Cu  Cu15      1.0  0.6479822500000001  0.43577769499999996  0.5168710844296878  1.0000
  Cu  Cu16      1.0  0.67919099  0.941363975  0.5009657614857194  1.0000
  As  As13      1.0  0.6738193800000001  0.178857885  0.5096807397415739  1.0000
  As  As14      1.0  0.6896927000000002  0.688630325  0.49296457764957835  1.0000
  As  As15      1.0  0.8463726100000001  0.440193715  0.5074455522462604  1.0000
  As  As16      1.0  0.8464255400000001  0.933280365  0.4869290580345669  1.0000
