data_image0
_chemical_formula_structural       COCa20Ga10Cu20
_chemical_formula_sum              "C1 O1 Ca20 Ga10 Cu20"
_cell_length_a       10.263110754032372
_cell_length_b       12.572852842725894
_cell_length_c       104.70270236
_cell_angle_alpha    71.14925358869688
_cell_angle_beta     92.77796526865009
_cell_angle_gamma    54.97588109557902

_space_group_name_H-M_alt    "P 1"
_space_group_IT_number       1

loop_
  _space_group_symop_operation_xyz
  'x, y, z'

loop_
  _atom_site_type_symbol
  _atom_site_label
  _atom_site_symmetry_multiplicity
  _atom_site_fract_x
  _atom_site_fract_y
  _atom_site_fract_z
  _atom_site_occupancy
  C   C1        1.0  0.36816604500000005  0.028588925  0.5530050061601129  1.0000
  O   O1        1.0  0.3214285050000001  0.100329495  0.5599386989176388  1.0000
  Ca  Ca1       1.0  0.5898357550000001  0.8881388250000001  0.4779751295362251  1.0000
  Ca  Ca2       1.0  0.389835755  0.688138825  0.5000711519613268  1.0000
  Ca  Ca3       1.0  0.19464358500000006  0.48563887499999997  0.5217476471099006  1.0000
  Ca  Ca4       1.0  0.789835755  0.088138825  0.4558791037967196  1.0000
  Ca  Ca5       1.0  0.03860132500000001  0.296595685  0.5453678577335093  1.0000
  Ca  Ca6       1.0  0.03300903500000021  0.7233789049999999  0.4842533525613723  1.0000
  Ca  Ca7       1.0  0.833009035  0.523378905  0.506349374986474  1.0000
  Ca  Ca8       1.0  0.6512274050000001  0.321800945  0.5297126033195749  1.0000
  Ca  Ca9       1.0  0.2330090350000001  0.9233789049999999  0.4621573268218668  1.0000
  Ca  Ca10      1.0  0.43300903500000015  0.12337890500000001  0.44006130108236124  1.0000
  Ca  Ca11      1.0  0.789835755  0.088138825  0.5111191664882815  1.0000
  Ca  Ca12      1.0  0.564332055  0.9017105350000001  0.5387743785720851  1.0000
  Ca  Ca13      1.0  0.389835755  0.688138825  0.4448310925841687  1.0000
  Ca  Ca14      1.0  0.9898357550000001  0.288138825  0.489023140748776  1.0000
  Ca  Ca15      1.0  0.1898357550000001  0.48813882499999994  0.4669271150092705  1.0000
  Ca  Ca16      1.0  0.43300903500000015  0.12337890500000001  0.49530136377392314  1.0000
  Ca  Ca17      1.0  0.240792425  0.916376495  0.5181335815478041  1.0000
  Ca  Ca18      1.0  0.041559095000000094  0.725411505  0.5395751716488839  1.0000
  Ca  Ca19      1.0  0.6330090349999999  0.323378905  0.4732053380344177  1.0000
  Ca  Ca20      1.0  0.833009035  0.523378905  0.451109315609316  1.0000
  Ga  Ga1       1.0  0.8114223950000001  0.805758865  0.45349420804581597  1.0000
  Ga  Ga2       1.0  0.6114223950000001  0.605758865  0.47559023378532145  1.0000
  Ga  Ga3       1.0  0.41142239500000005  0.405758865  0.4976862595248269  1.0000
  Ga  Ga4       1.0  0.010164245000000053  0.998295225  0.5401959296313625  1.0000
  Ga  Ga5       1.0  0.20798447500000003  0.211619465  0.5189983857031681  1.0000
  Ga  Ga6       1.0  0.8114223950000001  0.805758865  0.5087342707373778  1.0000
  Ga  Ga7       1.0  0.6217385049999999  0.595016765  0.5304871927207594  1.0000
  Ga  Ga8       1.0  0.41142239500000005  0.405758865  0.442446196833265  1.0000
  Ga  Ga9       1.0  0.011422395000000054  0.005758865000000003  0.4866382449978722  1.0000
  Ga  Ga10      1.0  0.211422395  0.205758865  0.4645422225727705  1.0000
  Cu  Cu1       1.0  0.1553412550000001  0.409812955  0.4972383609526679  1.0000
  Cu  Cu2       1.0  0.9496812150000002  0.214908775  0.5187429247239564  1.0000
  Cu  Cu3       1.0  0.7524513850000001  0.022195075  0.5387877720774175  1.0000
  Cu  Cu4       1.0  0.3553412550000001  0.609812955  0.4751423385275661  1.0000
  Cu  Cu5       1.0  0.5553412550000002  0.8098129550000001  0.4530463127880606  1.0000
  Cu  Cu6       1.0  0.8675035350000002  0.601704775  0.4760381290430767  1.0000
  Cu  Cu7       1.0  0.667503535  0.401704775  0.4981341547825821  1.0000
  Cu  Cu8       1.0  0.46428625500000004  0.203877095  0.5201846538729303  1.0000
  Cu  Cu9       1.0  0.06750353500000009  0.801704775  0.4539421066179749  1.0000
  Cu  Cu10      1.0  0.21140065500000002  0.04014054500000001  0.539811979164099  1.0000
  Cu  Cu11      1.0  0.755341255  0.009812955000000002  0.48619034974011704  1.0000
  Cu  Cu12      1.0  0.5553412550000002  0.8098129550000001  0.5082863754796225  1.0000
  Cu  Cu13      1.0  0.35755555500000014  0.614529555  0.5287268466301617  1.0000
  Cu  Cu14      1.0  0.955341255  0.209812955  0.46409432400061146  1.0000
  Cu  Cu15      1.0  0.1553412550000001  0.409812955  0.44199830157550973  1.0000
  Cu  Cu16      1.0  0.06750353500000009  0.801704775  0.5091821659951331  1.0000
  Cu  Cu17      1.0  0.838599265  0.626808225  0.5300841976898629  1.0000
  Cu  Cu18      1.0  0.667503535  0.401704775  0.44289409209102026  1.0000
  Cu  Cu19      1.0  0.26750353500000007  0.0017047749999998807  0.48708614357003127  1.0000
  Cu  Cu20      1.0  0.46750353500000014  0.201704775  0.46499011783052585  1.0000
