data_image0
_chemical_formula_structural       CONa24
_chemical_formula_sum              "C1 O1 Na24"
_cell_length_a       7.669324471733026
_cell_length_b       12.95334867618416
_cell_length_c       108.3466223
_cell_angle_alpha    107.21969263115912
_cell_angle_beta     120.00000003565755
_cell_angle_gamma    81.48790529275504

_space_group_name_H-M_alt    "P 1"
_space_group_IT_number       1

loop_
  _space_group_symop_operation_xyz
  'x, y, z'

loop_
  _atom_site_type_symbol
  _atom_site_label
  _atom_site_symmetry_multiplicity
  _atom_site_fract_x
  _atom_site_fract_y
  _atom_site_fract_z
  _atom_site_occupancy
  C   C1        1.0  0.69186976  0.8096366549999999  0.5457000907172744  1.0000
  O   O1        1.0  0.6780965100000002  0.8687674249999998  0.5557745915596916  1.0000
  Na  Na1       1.0  0.3401502799999999  0.12539108499999999  0.44422540844030856  1.0000
  Na  Na2       1.0  0.3401502799999999  0.625391085  0.4619216787466511  1.0000
  Na  Na3       1.0  0.17348361999999998  0.375391085  0.4648710594905442  1.0000
  Na  Na4       1.0  0.17348361999999998  0.875391085  0.4471747891842016  1.0000
  Na  Na5       1.0  0.3401502799999999  0.12539108499999999  0.4796179490529936  1.0000
  Na  Na6       1.0  0.3401502799999999  0.625391085  0.4973142193593362  1.0000
  Na  Na7       1.0  0.17348361999999998  0.375391085  0.5002636001032292  1.0000
  Na  Na8       1.0  0.17348361999999998  0.875391085  0.4825673297968867  1.0000
  Na  Na9       1.0  0.3345552299999999  0.125436215  0.5148740124898221  1.0000
  Na  Na10      1.0  0.31986532999999995  0.620193035  0.5316596893542652  1.0000
  Na  Na11      1.0  0.15984972  0.37540895499999993  0.5346388493818298  1.0000
  Na  Na12      1.0  0.16112721  0.873499705  0.5178448057207858  1.0000
  Na  Na13      1.0  0.8401502800000001  0.12539108499999999  0.44422540844030856  1.0000
  Na  Na14      1.0  0.8401502800000001  0.625391085  0.4619216787466511  1.0000
  Na  Na15      1.0  0.6734836200000001  0.375391085  0.4648710594905442  1.0000
  Na  Na16      1.0  0.6734836200000001  0.875391085  0.4471747891842016  1.0000
  Na  Na17      1.0  0.8401502800000001  0.12539108499999999  0.4796179490529936  1.0000
  Na  Na18      1.0  0.8401502800000001  0.625391085  0.4973142193593362  1.0000
  Na  Na19      1.0  0.6734836200000001  0.375391085  0.5002636001032292  1.0000
  Na  Na20      1.0  0.6734836200000001  0.875391085  0.4825673297968867  1.0000
  Na  Na21      1.0  0.83271521  0.12460891499999997  0.5149183027151448  1.0000
  Na  Na22      1.0  0.82334624  0.629149585  0.532650602627831  1.0000
  Na  Na23      1.0  0.6621538899999999  0.376585425  0.5346222998298393  1.0000
  Na  Na24      1.0  0.67586824  0.8746695849999999  0.5199385257850645  1.0000
