data_image0
_chemical_formula_structural       COZn30Cu10Zn30Cu10
_chemical_formula_sum              "C1 O1 Zn60 Cu20"
_cell_length_a       14.56052444387225
_cell_length_b       7.035637320223543
_cell_length_c       105.17818663
_cell_angle_alpha    85.28403293662655
_cell_angle_beta     81.49914323855751
_cell_angle_gamma    53.75091282360599

_space_group_name_H-M_alt    "P 1"
_space_group_IT_number       1

loop_
  _space_group_symop_operation_xyz
  'x, y, z'

loop_
  _atom_site_type_symbol
  _atom_site_label
  _atom_site_symmetry_multiplicity
  _atom_site_fract_x
  _atom_site_fract_y
  _atom_site_fract_z
  _atom_site_occupancy
  C   C1        1.0  0.59076861  0.16413210499999997  0.5755347336647805  1.0000
  O   O1        1.0  0.6499990899999999  0.999795135  0.5813925579298962  1.0000
  Zn  Zn1       1.0  0.4515134800000001  0.826130625  0.4454994487244116  1.0000
  Zn  Zn2       1.0  0.85151348  0.6261306249999999  0.45887795913883866  1.0000
  Zn  Zn3       1.0  0.051513479999999966  0.026130624999999977  0.4321209383099846  1.0000
  Zn  Zn4       1.0  0.25151347999999996  0.426130625  0.4722564695532656  1.0000
  Zn  Zn5       1.0  0.65151348  0.22613062499999995  0.4187424278955576  1.0000
  Zn  Zn6       1.0  0.5499999999999999  0.530671055  0.46526349205799616  1.0000
  Zn  Zn7       1.0  0.95  0.33067105499999994  0.4786420024724231  1.0000
  Zn  Zn8       1.0  0.14999999999999997  0.730671055  0.4518849816435691  1.0000
  Zn  Zn9       1.0  0.35  0.13067105499999998  0.4251279608147151  1.0000
  Zn  Zn10      1.0  0.75  0.9306710549999999  0.4385064712291422  1.0000
  Zn  Zn11      1.0  0.64848652  0.727644095  0.4520874653986915  1.0000
  Zn  Zn12      1.0  0.04848651999999998  0.5276440949999999  0.46546597581311844  1.0000
  Zn  Zn13      1.0  0.24848652000000002  0.927644095  0.43870895498426454  1.0000
  Zn  Zn14      1.0  0.44848652  0.32764409499999997  0.4788444862275455  1.0000
  Zn  Zn15      1.0  0.84848652  0.12764409499999996  0.4253304445698375  1.0000
  Zn  Zn16      1.0  0.3484865200000001  0.7968332249999999  0.4809055026155572  1.0000
  Zn  Zn17      1.0  0.7484865199999999  0.596833225  0.42739146095784925  1.0000
  Zn  Zn18      1.0  0.9484865199999999  0.996833225  0.4675269922011302  1.0000
  Zn  Zn19      1.0  0.14848651999999996  0.39683322499999996  0.4407699713722762  1.0000
  Zn  Zn20      1.0  0.5484865199999999  0.19683322499999997  0.45414848178670325  1.0000
  Zn  Zn21      1.0  0.24999999999999997  0.09229279499999998  0.46114145928197264  1.0000
  Zn  Zn22      1.0  0.65  0.8922927949999999  0.47451996969639965  1.0000
  Zn  Zn23      1.0  0.85  0.29229279499999994  0.4477629488675457  1.0000
  Zn  Zn24      1.0  0.049999999999999954  0.692292795  0.4210059280386917  1.0000
  Zn  Zn25      1.0  0.44999999999999996  0.492292795  0.43438443845311875  1.0000
  Zn  Zn26      1.0  0.15151348  0.895319755  0.4743174859412772  1.0000
  Zn  Zn27      1.0  0.5515134799999999  0.695319755  0.42080344428356936  1.0000
  Zn  Zn28      1.0  0.75151348  0.09531975499999998  0.46093897552685026  1.0000
  Zn  Zn29      1.0  0.95151348  0.49531975500000003  0.43418195469799636  1.0000
  Zn  Zn30      1.0  0.35151348  0.29531975499999996  0.44756046511242337  1.0000
  Cu  Cu1       1.0  0.44999999999999996  0.9948152549999999  0.46766197802658416  1.0000
  Cu  Cu2       1.0  0.85  0.794815255  0.4810404884410112  1.0000
  Cu  Cu3       1.0  0.04999999999999997  0.19481525499999996  0.4542834676121572  1.0000
  Cu  Cu4       1.0  0.25  0.5948152549999999  0.42752644678330326  1.0000
  Cu  Cu5       1.0  0.65  0.394815255  0.4409049571977302  1.0000
  Cu  Cu6       1.0  0.3499999999999999  0.628148595  0.4587429733133846  1.0000
  Cu  Cu7       1.0  0.75  0.428148595  0.47212148372781154  1.0000
  Cu  Cu8       1.0  0.9500000000000001  0.828148595  0.4453644628989576  1.0000
  Cu  Cu9       1.0  0.14999999999999994  0.22814859499999998  0.4186074420701037  1.0000
  Cu  Cu10      1.0  0.55  0.028148594999999978  0.4319859524845307  1.0000
  Zn  Zn31      1.0  0.4515134800000001  0.826130625  0.5123920007965465  1.0000
  Zn  Zn32      1.0  0.85484855  0.626862715  0.5244481625184735  1.0000
  Zn  Zn33      1.0  0.051513479999999966  0.026130624999999977  0.4990134903821195  1.0000
  Zn  Zn34      1.0  0.25549175999999996  0.42572452499999996  0.5398511994337569  1.0000
  Zn  Zn35      1.0  0.65151348  0.22613062499999995  0.4856349799676925  1.0000
  Zn  Zn36      1.0  0.55966617  0.5343410449999999  0.5345052938357664  1.0000
  Zn  Zn37      1.0  0.95060995  0.32452115499999995  0.5450716513949636  1.0000
  Zn  Zn38      1.0  0.14999999999999997  0.730671055  0.518777533715704  1.0000
  Zn  Zn39      1.0  0.35  0.13067105499999998  0.49202051288685  1.0000
  Zn  Zn40      1.0  0.75  0.9306710549999999  0.5053990233012772  1.0000
  Zn  Zn41      1.0  0.64848652  0.727644095  0.5189800174708264  1.0000
  Zn  Zn42      1.0  0.05376115999999996  0.530530755  0.5345144547707726  1.0000
  Zn  Zn43      1.0  0.24848652000000002  0.927644095  0.5056015070563995  1.0000
  Zn  Zn44      1.0  0.45108013  0.32659639499999993  0.5449266183081883  1.0000
  Zn  Zn45      1.0  0.84848652  0.12764409499999996  0.49222299664197244  1.0000
  Zn  Zn46      1.0  0.35344374  0.7829445249999999  0.5458436483045453  1.0000
  Zn  Zn47      1.0  0.7484865199999999  0.596833225  0.49428401302998426  1.0000
  Zn  Zn48      1.0  0.94512961  0.989695995  0.5366915799060437  1.0000
  Zn  Zn49      1.0  0.14848651999999996  0.39683322499999996  0.5076625234444111  1.0000
  Zn  Zn50      1.0  0.55093158  0.20571190499999997  0.5206740278718944  1.0000
  Zn  Zn51      1.0  0.2454989999999999  0.10619054499999997  0.5291259252386018  1.0000
  Zn  Zn52      1.0  0.6463297099999998  0.890913865  0.5417374556848525  1.0000
  Zn  Zn53      1.0  0.85  0.29229279499999994  0.5146555009396807  1.0000
  Zn  Zn54      1.0  0.049999999999999954  0.692292795  0.4878984801108266  1.0000
  Zn  Zn55      1.0  0.44999999999999996  0.492292795  0.5012769905252535  1.0000
  Zn  Zn56      1.0  0.14902766  0.897795285  0.5414214686473743  1.0000
  Zn  Zn57      1.0  0.5515134799999999  0.695319755  0.48769599635570426  1.0000
  Zn  Zn58      1.0  0.7466487  0.10883188499999996  0.5294758870032776  1.0000
  Zn  Zn59      1.0  0.95151348  0.49531975500000003  0.5010745067701313  1.0000
  Zn  Zn60      1.0  0.35151348  0.29531975499999996  0.5144530171845583  1.0000
  Cu  Cu11      1.0  0.44990358  0.000204864999999943  0.5346785254778676  1.0000
  Cu  Cu12      1.0  0.84732217  0.7697070549999999  0.5452313707415463  1.0000
  Cu  Cu13      1.0  0.05390778999999995  0.19864917499999998  0.5204294118428494  1.0000
  Cu  Cu14      1.0  0.25  0.5948152549999999  0.49441899885543816  1.0000
  Cu  Cu15      1.0  0.65  0.394815255  0.5077975092698651  1.0000
  Cu  Cu16      1.0  0.34601899  0.6343670649999998  0.5241744983986911  1.0000
  Cu  Cu17      1.0  0.7601595699999999  0.43604509499999994  0.5378198231355683  1.0000
  Cu  Cu18      1.0  0.9500000000000001  0.828148595  0.5122570149710926  1.0000
  Cu  Cu19      1.0  0.14999999999999994  0.22814859499999998  0.4854999941422386  1.0000
  Cu  Cu20      1.0  0.55  0.028148594999999978  0.49887850455666566  1.0000
