data_image0
_chemical_formula_structural       COZn12Cu4Zn12Cu4Zn12Cu4Zn12Cu4
_chemical_formula_sum              "C1 O1 Zn48 Cu16"
_cell_length_a       8.76657536
_cell_length_b       9.53210077
_cell_length_c       103.02016567999999
_cell_angle_alpha    90.0
_cell_angle_beta     90.0
_cell_angle_gamma    90.0

_space_group_name_H-M_alt    "P 1"
_space_group_IT_number       1

loop_
  _space_group_symop_operation_xyz
  'x, y, z'

loop_
  _atom_site_type_symbol
  _atom_site_label
  _atom_site_symmetry_multiplicity
  _atom_site_fract_x
  _atom_site_fract_y
  _atom_site_fract_z
  _atom_site_occupancy
  C   C1        1.0  0.662027075  0.32282490999999996  0.5508043839818656  1.0000
  O   O1        1.0  0.6930171649999999  0.29337019999999997  0.5614671110391954  1.0000
  Zn  Zn1       1.0  0.37009720500000004  0.41810040000000004  0.4385328889608046  1.0000
  Zn  Zn2       1.0  0.37009720500000004  0.9181004  0.46524300289920917  1.0000
  Zn  Zn3       1.0  0.37009720500000004  0.41810040000000004  0.4656472572846234  1.0000
  Zn  Zn4       1.0  0.37009720500000004  0.9181004  0.4389371401410051  1.0000
  Zn  Zn5       1.0  0.37009720500000004  0.17188409999999998  0.4788001886637255  1.0000
  Zn  Zn6       1.0  0.37009720500000004  0.6718841  0.45209007152010716  1.0000
  Zn  Zn7       1.0  0.12009720499999996  0.58728954  0.4656472572846234  1.0000
  Zn  Zn8       1.0  0.12009720499999996  0.08728953999999997  0.4389371401410051  1.0000
  Zn  Zn9       1.0  0.12009720499999996  0.58728954  0.4385328889608046  1.0000
  Zn  Zn10      1.0  0.12009720499999996  0.08728953999999997  0.46524300289920917  1.0000
  Zn  Zn11      1.0  0.12009720499999996  0.83350584  0.4788001886637255  1.0000
  Zn  Zn12      1.0  0.12009720499999996  0.33350583999999994  0.45209007152010716  1.0000
  Cu  Cu1       1.0  0.12009720499999996  0.3360283  0.4788001886637255  1.0000
  Cu  Cu2       1.0  0.12009720499999996  0.8360283  0.45209007152010716  1.0000
  Cu  Cu3       1.0  0.37009720500000004  0.66936164  0.4788001886637255  1.0000
  Cu  Cu4       1.0  0.37009720500000004  0.16936163999999998  0.45209007152010716  1.0000
  Zn  Zn13      1.0  0.37009720500000004  0.41810040000000004  0.49195312004282754  1.0000
  Zn  Zn14      1.0  0.376683645  0.9235594000000001  0.5194576622478336  1.0000
  Zn  Zn15      1.0  0.376331825  0.42441059999999997  0.5214337086081754  1.0000
  Zn  Zn16      1.0  0.37009720500000004  0.9181004  0.49235737122302803  1.0000
  Zn  Zn17      1.0  0.373017555  0.17648872  0.5312348100915696  1.0000
  Zn  Zn18      1.0  0.372082405  0.67189177  0.5053891006474659  1.0000
  Zn  Zn19      1.0  0.12626110499999996  0.5768622  0.5213212729132566  1.0000
  Zn  Zn20      1.0  0.12009720499999996  0.08728953999999997  0.49235737122302803  1.0000
  Zn  Zn21      1.0  0.12009720499999996  0.58728954  0.49195312004282754  1.0000
  Zn  Zn22      1.0  0.12643288499999997  0.07644059999999998  0.5191602664853249  1.0000
  Zn  Zn23      1.0  0.12610589499999997  0.8236473599999999  0.5315494306730439  1.0000
  Zn  Zn24      1.0  0.12346983499999996  0.33164131999999996  0.5052761264766286  1.0000
  Cu  Cu5       1.0  0.12540031499999996  0.31745785000000004  0.5300479322419821  1.0000
  Cu  Cu6       1.0  0.12226076500000001  0.8324862399999999  0.5047289451974083  1.0000
  Cu  Cu7       1.0  0.37665350500000006  0.68420592  0.5302447740371317  1.0000
  Cu  Cu8       1.0  0.371613525  0.17087250999999998  0.5045511968608702  1.0000
  Zn  Zn25      1.0  0.870097205  0.41810040000000004  0.4385328889608046  1.0000
  Zn  Zn26      1.0  0.870097205  0.9181004  0.46524300289920917  1.0000
  Zn  Zn27      1.0  0.870097205  0.41810040000000004  0.4656472572846234  1.0000
  Zn  Zn28      1.0  0.870097205  0.9181004  0.4389371401410051  1.0000
  Zn  Zn29      1.0  0.870097205  0.17188409999999998  0.4788001886637255  1.0000
  Zn  Zn30      1.0  0.870097205  0.6718841  0.45209007152010716  1.0000
  Zn  Zn31      1.0  0.6200972049999999  0.58728954  0.4656472572846234  1.0000
  Zn  Zn32      1.0  0.6200972049999999  0.08728953999999997  0.4389371401410051  1.0000
  Zn  Zn33      1.0  0.6200972049999999  0.58728954  0.4385328889608046  1.0000
  Zn  Zn34      1.0  0.6200972049999999  0.08728953999999997  0.46524300289920917  1.0000
  Zn  Zn35      1.0  0.6200972049999999  0.83350584  0.4788001886637255  1.0000
  Zn  Zn36      1.0  0.6200972049999999  0.33350583999999994  0.45209007152010716  1.0000
  Cu  Cu9       1.0  0.6200972049999999  0.3360283  0.4788001886637255  1.0000
  Cu  Cu10      1.0  0.6200972049999999  0.8360283  0.45209007152010716  1.0000
  Cu  Cu11      1.0  0.870097205  0.66936164  0.4788001886637255  1.0000
  Cu  Cu12      1.0  0.870097205  0.16936163999999998  0.45209007152010716  1.0000
  Zn  Zn37      1.0  0.870097205  0.41810040000000004  0.49195312004282754  1.0000
  Zn  Zn38      1.0  0.874318375  0.9229294100000001  0.5193441111385121  1.0000
  Zn  Zn39      1.0  0.875698945  0.42449433  0.5206317544995694  1.0000
  Zn  Zn40      1.0  0.870097205  0.9181004  0.49235737122302803  1.0000
  Zn  Zn41      1.0  0.879902795  0.17591447  0.5306335824972399  1.0000
  Zn  Zn42      1.0  0.8723674649999998  0.67249455  0.5053094286480191  1.0000
  Zn  Zn43      1.0  0.625765355  0.57895895  0.5212417483536445  1.0000
  Zn  Zn44      1.0  0.6200972049999999  0.08728953999999997  0.49235737122302803  1.0000
  Zn  Zn45      1.0  0.6200972049999999  0.58728954  0.49195312004282754  1.0000
  Zn  Zn46      1.0  0.624688185  0.08240751999999997  0.5195635176388194  1.0000
  Zn  Zn47      1.0  0.626698195  0.82514095  0.5316162016869426  1.0000
  Zn  Zn48      1.0  0.6216314549999999  0.33046296  0.5065712027284901  1.0000
  Cu  Cu13      1.0  0.6264943749999998  0.32448814  0.5326103051576936  1.0000
  Cu  Cu14      1.0  0.6217332149999999  0.8333174799999999  0.5047898346439824  1.0000
  Cu  Cu15      1.0  0.8765955249999998  0.68328961  0.5301516337292939  1.0000
  Cu  Cu16      1.0  0.8720886649999999  0.17144003  0.5044417420147861  1.0000
