data_image0
_chemical_formula_structural       COZn6Cu2Zn6Cu2Zn6Cu2Zn6Cu2
_chemical_formula_sum              "C1 O1 Zn24 Cu8"
_cell_length_a       5.503360948456732
_cell_length_b       8.76657536
_cell_length_c       108.52352662
_cell_angle_alpha    90.0
_cell_angle_beta     60.00000005083193
_cell_angle_gamma    90.0

_space_group_name_H-M_alt    "P 1"
_space_group_IT_number       1

loop_
  _space_group_symop_operation_xyz
  'x, y, z'

loop_
  _atom_site_type_symbol
  _atom_site_label
  _atom_site_symmetry_multiplicity
  _atom_site_fract_x
  _atom_site_fract_y
  _atom_site_fract_z
  _atom_site_occupancy
  C   C1        1.0  0.33292995000000003  0.62362237  0.546336125216302  1.0000
  O   O1        1.0  0.15597397000000005  0.6236272600000001  0.5582838413866367  1.0000
  Zn  Zn1       1.0  0.17742045000000004  0.12362190999999997  0.44171615861336344  1.0000
  Zn  Zn2       1.0  0.17742045000000004  0.12362190999999997  0.4666880208793244  1.0000
  Zn  Zn3       1.0  0.6698530600000001  0.12362190999999997  0.44171615861336344  1.0000
  Zn  Zn4       1.0  0.83904219  0.37362191000000006  0.4752678068423005  1.0000
  Zn  Zn5       1.0  0.83904219  0.37362191000000006  0.45029594812612533  1.0000
  Zn  Zn6       1.0  0.34660958000000003  0.37362191000000006  0.47526780684230047  1.0000
  Cu  Cu1       1.0  0.34156465  0.37362191000000006  0.45004011151875517  1.0000
  Cu  Cu2       1.0  0.6748979900000001  0.12362190999999997  0.4669438539369088  1.0000
  Zn  Zn7       1.0  0.17742045000000004  0.12362190999999997  0.49242738586782414  1.0000
  Zn  Zn8       1.0  0.15064832000000006  0.12362091999999995  0.5203105481039378  1.0000
  Zn  Zn9       1.0  0.6698530600000001  0.12362190999999997  0.4924273858678242  1.0000
  Zn  Zn10      1.0  0.84935168  0.37232786  0.525338638551868  1.0000
  Zn  Zn11      1.0  0.8400234700000001  0.37842797  0.5011920730699213  1.0000
  Zn  Zn12      1.0  0.34732237000000005  0.37084694  0.5248608125440664  1.0000
  Cu  Cu3       1.0  0.35947303  0.373394  0.4990705294290509  1.0000
  Cu  Cu4       1.0  0.66840421  0.12361500999999997  0.518145675778443  1.0000
  Zn  Zn13      1.0  0.17742045000000004  0.62362191  0.44171615861336344  1.0000
  Zn  Zn14      1.0  0.17742045000000004  0.62362191  0.4666880208793244  1.0000
  Zn  Zn15      1.0  0.6698530600000001  0.62362191  0.44171615861336344  1.0000
  Zn  Zn16      1.0  0.83904219  0.87362191  0.4752678068423005  1.0000
  Zn  Zn17      1.0  0.83904219  0.87362191  0.45029594812612533  1.0000
  Zn  Zn18      1.0  0.34660958000000003  0.87362191  0.47526780684230047  1.0000
  Cu  Cu5       1.0  0.34156465  0.87362191  0.45004011151875517  1.0000
  Cu  Cu6       1.0  0.6748979900000001  0.62362191  0.4669438539369088  1.0000
  Zn  Zn19      1.0  0.17742045000000004  0.62362191  0.49242738586782414  1.0000
  Zn  Zn20      1.0  0.15465399000000007  0.6236141600000001  0.5185305612962532  1.0000
  Zn  Zn21      1.0  0.6698530600000001  0.62362191  0.4924273858678242  1.0000
  Zn  Zn22      1.0  0.8493499200000001  0.87490177  0.5253369417542889  1.0000
  Zn  Zn23      1.0  0.8400331200000002  0.8688194800000001  0.5011907986968441  1.0000
  Zn  Zn24      1.0  0.34733906000000003  0.87638499  0.5248578768712674  1.0000
  Cu  Cu7       1.0  0.35946890000000004  0.8738490400000001  0.49906984077061917  1.0000
  Cu  Cu8       1.0  0.5774505000000001  0.62361745  0.5265696900440011  1.0000
