data_image0
_chemical_formula_structural       COZnCu3ZnCu3ZnCu3ZnCu3ZnCu3ZnCu3ZnCu3ZnCu3
_chemical_formula_sum              "C1 O1 Zn8 Cu24"
_cell_length_a       5.313661686931756
_cell_length_b       8.52010104
_cell_length_c       104.53880096
_cell_angle_alpha    90.0
_cell_angle_beta     119.99999995684696
_cell_angle_gamma    90.0

_space_group_name_H-M_alt    "P 1"
_space_group_IT_number       1

loop_
  _space_group_symop_operation_xyz
  'x, y, z'

loop_
  _atom_site_type_symbol
  _atom_site_label
  _atom_site_symmetry_multiplicity
  _atom_site_fract_x
  _atom_site_fract_y
  _atom_site_fract_z
  _atom_site_occupancy
  C   C1        1.0  0.7344249450000001  0.44331592499999994  0.5409778119289104  1.0000
  O   O1        1.0  0.868590655  0.428643025  0.554068405517258  1.0000
  Zn  Zn1       1.0  0.16198450500000006  0.140632855  0.45440318994248174  1.0000
  Cu  Cu1       1.0  0.16198450500000006  0.640632855  0.45440318994248174  1.0000
  Cu  Cu2       1.0  0.328651165  0.394997225  0.4459315944827419  1.0000
  Cu  Cu3       1.0  0.328651165  0.886268485  0.4459315944827419  1.0000
  Zn  Zn2       1.0  0.16198450500000006  0.140632855  0.47981796971385815  1.0000
  Cu  Cu4       1.0  0.16198450500000006  0.640632855  0.47981796971385815  1.0000
  Cu  Cu5       1.0  0.328651165  0.394997225  0.4713463775580399  1.0000
  Cu  Cu6       1.0  0.328651165  0.886268485  0.4713463775580399  1.0000
  Zn  Zn3       1.0  0.16231856500000005  0.14145494499999997  0.5052345104754834  1.0000
  Cu  Cu7       1.0  0.1518471850000001  0.638357215  0.5043144244577162  1.0000
  Cu  Cu8       1.0  0.328651165  0.394997225  0.4967611606333379  1.0000
  Cu  Cu9       1.0  0.328651165  0.886268485  0.4967611606333379  1.0000
  Zn  Zn4       1.0  0.17074688500000007  0.122611135  0.5319212538339946  1.0000
  Cu  Cu10      1.0  0.1314093450000001  0.636096615  0.5280255832760815  1.0000
  Cu  Cu11      1.0  0.33520615500000006  0.3815031949999999  0.5233984872354663  1.0000
  Cu  Cu12      1.0  0.32211790500000004  0.8814541749999999  0.5218621107972709  1.0000
  Zn  Zn5       1.0  0.6619845050000001  0.140632855  0.45440318994248174  1.0000
  Cu  Cu13      1.0  0.6619845050000001  0.640632855  0.45440318994248174  1.0000
  Cu  Cu14      1.0  0.8286511650000001  0.394997225  0.44593159448274183  1.0000
  Cu  Cu15      1.0  0.8286511650000001  0.886268485  0.44593159448274183  1.0000
  Zn  Zn6       1.0  0.6619845050000001  0.140632855  0.47981796971385815  1.0000
  Cu  Cu16      1.0  0.6619845050000001  0.640632855  0.47981796971385815  1.0000
  Cu  Cu17      1.0  0.8286511650000001  0.394997225  0.4713463775580399  1.0000
  Cu  Cu18      1.0  0.8286511650000001  0.886268485  0.4713463775580399  1.0000
  Zn  Zn7       1.0  0.6608267550000001  0.14124700499999998  0.5052281140831348  1.0000
  Cu  Cu19      1.0  0.6516986950000001  0.637982045  0.5043738884398902  1.0000
  Cu  Cu20      1.0  0.8286511650000001  0.394997225  0.4967611606333379  1.0000
  Cu  Cu21      1.0  0.8286511650000001  0.886268485  0.4967611606333379  1.0000
  Zn  Zn8       1.0  0.6692668550000002  0.11373151499999999  0.5316903031015838  1.0000
  Cu  Cu22      1.0  0.6370961250000001  0.636893225  0.5284844220055173  1.0000
  Cu  Cu23      1.0  0.836149445  0.38199991499999997  0.5233284540078776  1.0000
  Cu  Cu24      1.0  0.822490025  0.881203435  0.5219134669556725  1.0000
