data_image0
_chemical_formula_structural       COCu12Zn4Cu12Zn4
_chemical_formula_sum              "C1 O1 Cu24 Zn8"
_cell_length_a       5.330688004984163
_cell_length_b       8.614682961656372
_cell_length_c       100.03690148
_cell_angle_alpha    84.4859158073137
_cell_angle_beta     87.45707604262212
_cell_angle_gamma    81.10073331331257

_space_group_name_H-M_alt    "P 1"
_space_group_IT_number       1

loop_
  _space_group_symop_operation_xyz
  'x, y, z'

loop_
  _atom_site_type_symbol
  _atom_site_label
  _atom_site_symmetry_multiplicity
  _atom_site_fract_x
  _atom_site_fract_y
  _atom_site_fract_z
  _atom_site_occupancy
  C   C1        1.0  0.993681065  0.27160836  0.5568020714590767  1.0000
  O   O1        1.0  0.006318934999999873  0.39243351  0.560460492616102  1.0000
  Cu  Cu1       1.0  0.5106210149999998  0.84647597  0.5241078611993895  1.0000
  Cu  Cu2       1.0  0.32389594499999974  0.6109627  0.5186823874182452  1.0000
  Cu  Cu3       1.0  0.13685541499999987  0.37351455999999994  0.5135656331286765  1.0000
  Cu  Cu4       1.0  0.26967317499999977  0.87789901  0.5025819173888462  1.0000
  Cu  Cu5       1.0  0.08732106499999985  0.62788988  0.4965518226477522  1.0000
  Cu  Cu6       1.0  0.40262062499999973  0.3818612  0.4914747624942165  1.0000
  Cu  Cu7       1.0  0.03929335499999987  0.87341528  0.4799913960664266  1.0000
  Cu  Cu8       1.0  0.35557237499999983  0.62763824  0.47418468743218395  1.0000
  Cu  Cu9       1.0  0.17185139499999985  0.3818612  0.46837797879794135  1.0000
  Cu  Cu10      1.0  0.30852412499999976  0.87341528  0.45689460936756937  1.0000
  Cu  Cu11      1.0  0.12480314499999985  0.62763824  0.4510879007333268  1.0000
  Cu  Cu12      1.0  0.4410821649999997  0.3818612  0.4452811920990841  1.0000
  Zn  Zn1       1.0  0.4512505549999997  0.12222421999999997  0.5116050821004348  1.0000
  Zn  Zn2       1.0  0.22095698499999983  0.12763824  0.4857330777790304  1.0000
  Zn  Zn3       1.0  0.49018775499999984  0.12763824  0.46263629408275536  1.0000
  Zn  Zn4       1.0  0.25941852499999984  0.12763824  0.439539507383898  1.0000
  Cu  Cu13      1.0  0.010736934999999866  0.8462972400000001  0.5241236247556809  1.0000
  Cu  Cu14      1.0  0.823650245  0.6111938  0.51867415734057  1.0000
  Cu  Cu15      1.0  0.6368569849999997  0.37354207  0.513568311431955  1.0000
  Cu  Cu16      1.0  0.7700697549999997  0.87794139  0.5025812297975337  1.0000
  Cu  Cu17      1.0  0.5872929449999998  0.62774101  0.49654229845717  1.0000
  Cu  Cu18      1.0  0.9026206249999998  0.3818612  0.49147476249421645  1.0000
  Cu  Cu19      1.0  0.539293355  0.87341528  0.47999139606642666  1.0000
  Cu  Cu20      1.0  0.8555723749999999  0.62763824  0.47418468743218406  1.0000
  Cu  Cu21      1.0  0.6718513949999997  0.3818612  0.46837797879794135  1.0000
  Cu  Cu22      1.0  0.8085241249999997  0.87341528  0.4568946093675693  1.0000
  Cu  Cu23      1.0  0.6248031449999998  0.62763824  0.4510879007333268  1.0000
  Cu  Cu24      1.0  0.9410821649999999  0.3818612  0.4452811920990841  1.0000
  Zn  Zn5       1.0  0.9510799549999999  0.12205860999999998  0.5120381895627694  1.0000
  Zn  Zn6       1.0  0.7209569849999999  0.12763824  0.4857330777790304  1.0000
  Zn  Zn7       1.0  0.9901877549999999  0.12763824  0.46263629408275536  1.0000
  Zn  Zn8       1.0  0.759418525  0.12763824  0.4395395073838981  1.0000
