data_image0
_chemical_formula_structural       COCu8Zn8Cu8Zn8
_chemical_formula_sum              "C1 O1 Cu16 Zn16"
_cell_length_a       5.2563278376179525
_cell_length_b       8.801332776038718
_cell_length_c       103.22437793
_cell_angle_alpha    88.07304380907937
_cell_angle_beta     88.07169920184245
_cell_angle_gamma    84.16575874756188

_space_group_name_H-M_alt    "P 1"
_space_group_IT_number       1

loop_
  _space_group_symop_operation_xyz
  'x, y, z'

loop_
  _atom_site_type_symbol
  _atom_site_label
  _atom_site_symmetry_multiplicity
  _atom_site_fract_x
  _atom_site_fract_y
  _atom_site_fract_z
  _atom_site_occupancy
  C   C1        1.0  0.23682474999999997  0.08397879499999994  0.5438563176342952  1.0000
  O   O1        1.0  0.25038357  0.06876429499999993  0.5550771098157611  1.0000
  Cu  Cu1       1.0  0.21666895999999997  0.09279195499999994  0.5257677307581787  1.0000
  Cu  Cu2       1.0  0.05195360000000001  0.5013887549999999  0.49090369146915996  1.0000
  Cu  Cu3       1.0  0.23128887999999997  0.582265385  0.5146665502767197  1.0000
  Cu  Cu4       1.0  0.08824459  0.04136048499999995  0.5025794213861017  1.0000
  Cu  Cu5       1.0  0.4805250300000001  0.9656744749999999  0.47940849275725766  1.0000
  Cu  Cu6       1.0  0.26623931999999995  0.3585316149999999  0.4449228901842388  1.0000
  Cu  Cu7       1.0  0.40909646000000005  0.429960185  0.46791329082669936  1.0000
  Cu  Cu8       1.0  0.33766789  0.8942458949999998  0.4564180888961411  1.0000
  Zn  Zn1       1.0  0.37342611  0.29772222499999995  0.5084523680873265  1.0000
  Zn  Zn2       1.0  0.47724212  0.8373544949999999  0.5210231065024431  1.0000
  Zn  Zn3       1.0  0.3376678899999999  0.769245895  0.496651290825111  1.0000
  Zn  Zn4       1.0  0.019474969999999994  0.397914035  0.5306989662604297  1.0000
  Zn  Zn5       1.0  0.12338216999999999  0.16210304499999995  0.46216569147074826  1.0000
  Zn  Zn6       1.0  0.19481075  0.6978173249999999  0.47366089018265045  1.0000
  Zn  Zn7       1.0  0.051953599999999975  0.626388755  0.45067048954018996  1.0000
  Zn  Zn8       1.0  0.26623931999999995  0.23353161499999997  0.48515609211320876  1.0000
  Cu  Cu9       1.0  0.72070431  0.10393673499999995  0.523242077023135  1.0000
  Cu  Cu10      1.0  0.5519536  0.5013887549999999  0.49090369146915985  1.0000
  Cu  Cu11      1.0  0.7311599099999999  0.587306945  0.5147707124271858  1.0000
  Cu  Cu12      1.0  0.58578908  0.03432552499999994  0.5015416622688266  1.0000
  Cu  Cu13      1.0  0.9805250299999999  0.9656744749999999  0.4794084927572577  1.0000
  Cu  Cu14      1.0  0.7662393199999998  0.3585316149999999  0.44492289018423886  1.0000
  Cu  Cu15      1.0  0.9090964599999999  0.429960185  0.4679132908266994  1.0000
  Cu  Cu16      1.0  0.83766789  0.8942458949999998  0.45641808889614105  1.0000
  Zn  Zn9       1.0  0.8738178100000001  0.31204233499999995  0.5080085604648322  1.0000
  Zn  Zn10      1.0  0.9742696900000001  0.8377454949999998  0.5211065083207137  1.0000
  Zn  Zn11      1.0  0.83766789  0.769245895  0.496651290825111  1.0000
  Zn  Zn12      1.0  0.5237597499999999  0.3975484549999999  0.5304705961689685  1.0000
  Zn  Zn13      1.0  0.6233821699999998  0.16210304499999995  0.46216569147074826  1.0000
  Zn  Zn14      1.0  0.69481075  0.6978173249999999  0.47366089018265045  1.0000
  Zn  Zn15      1.0  0.5519536  0.626388755  0.45067048954018996  1.0000
  Zn  Zn16      1.0  0.7662393199999998  0.23353161499999997  0.4851560921132088  1.0000
