data_image0
_chemical_formula_structural       COZnCu3ZnCu3ZnCu3ZnCu3
_chemical_formula_sum              "C1 O1 Zn4 Cu12"
_cell_length_a       5.31366169
_cell_length_b       5.313661686931756
_cell_length_c       104.08040416
_cell_angle_alpha    90.0
_cell_angle_beta     90.0
_cell_angle_gamma    60.00000004315304

_space_group_name_H-M_alt    "P 1"
_space_group_IT_number       1

loop_
  _space_group_symop_operation_xyz
  'x, y, z'

loop_
  _atom_site_type_symbol
  _atom_site_label
  _atom_site_symmetry_multiplicity
  _atom_site_fract_x
  _atom_site_fract_y
  _atom_site_fract_z
  _atom_site_occupancy
  C   C1        1.0  0.5819974649999999  0.83403928  0.5315945583668557  1.0000
  O   O1        1.0  0.581923345  0.8342633  0.543012153429304  1.0000
  Zn  Zn1       1.0  0.082907635  0.3324033700000001  0.456987846570696  1.0000
  Cu  Cu1       1.0  0.08419557500000004  0.33411688  0.49793381639505124  1.0000
  Cu  Cu2       1.0  0.41519023499999996  0.16782370000000002  0.5182463820492639  1.0000
  Cu  Cu3       1.0  0.416240965  0.16573670000000001  0.4778103065300496  1.0000
  Zn  Zn2       1.0  0.08290763499999995  0.8324033700000001  0.456987846570696  1.0000
  Cu  Cu4       1.0  0.08420593499999995  0.82981459  0.49793645231154016  1.0000
  Cu  Cu5       1.0  0.4153731349999999  0.6656835400000001  0.5182582747805525  1.0000
  Cu  Cu6       1.0  0.4162409649999999  0.6657367000000001  0.4778103065300496  1.0000
  Zn  Zn3       1.0  0.582907635  0.3324033700000001  0.456987846570696  1.0000
  Cu  Cu7       1.0  0.579906905  0.33411999000000003  0.497931985988446  1.0000
  Cu  Cu8       1.0  0.9159564250000001  0.16626243000000002  0.5174059176209821  1.0000
  Cu  Cu9       1.0  0.9162409650000001  0.16573670000000001  0.4778103065300496  1.0000
  Zn  Zn4       1.0  0.5829076350000001  0.8324033700000001  0.456987846570696  1.0000
  Cu  Cu10      1.0  0.582762655  0.8327015900000001  0.4974533101029378  1.0000
  Cu  Cu11      1.0  0.9170923650000001  0.6657128800000001  0.5182585170884036  1.0000
  Cu  Cu12      1.0  0.9162409650000001  0.6657367000000001  0.4778103065300496  1.0000
