data_image0
_chemical_formula_structural       COCu18Zn6
_chemical_formula_sum              "C1 O1 Cu18 Zn6"
_cell_length_a       4.61651124
_cell_length_b       8.614682962784146
_cell_length_c       99.31878405
_cell_angle_alpha    90.0
_cell_angle_beta     90.0
_cell_angle_gamma    100.28994608096073

_space_group_name_H-M_alt    "P 1"
_space_group_IT_number       1

loop_
  _space_group_symop_operation_xyz
  'x, y, z'

loop_
  _atom_site_type_symbol
  _atom_site_label
  _atom_site_symmetry_multiplicity
  _atom_site_fract_x
  _atom_site_fract_y
  _atom_site_fract_z
  _atom_site_occupancy
  C   C1        1.0  0.748308825  0.7671761800000001  0.5464091569127585  1.0000
  O   O1        1.0  0.8839643150000001  0.88099826  0.5507862079922301  1.0000
  Cu  Cu1       1.0  0.8652321649999999  0.8647787800000001  0.44921379200777006  1.0000
  Cu  Cu2       1.0  0.36523216499999994  0.8647787800000001  0.4626319168378241  1.0000
  Cu  Cu3       1.0  0.616639815  0.61900174  0.4626319168378241  1.0000
  Cu  Cu4       1.0  0.1166398149999999  0.61900174  0.44921379200777006  1.0000
  Cu  Cu5       1.0  0.8680474649999999  0.37322469999999996  0.4626319168378241  1.0000
  Cu  Cu6       1.0  0.3680474649999999  0.37322469999999996  0.44921379200777006  1.0000
  Cu  Cu7       1.0  0.8652321649999999  0.8647787800000001  0.476050044619866  1.0000
  Cu  Cu8       1.0  0.36413305499999993  0.86781364  0.4889122688161778  1.0000
  Cu  Cu9       1.0  0.6166757849999999  0.62025212  0.4889508926247735  1.0000
  Cu  Cu10      1.0  0.1166398149999999  0.61900174  0.476050044619866  1.0000
  Cu  Cu11      1.0  0.8691459349999998  0.37265118  0.48903322061299764  1.0000
  Cu  Cu12      1.0  0.3680474649999999  0.37322469999999996  0.476050044619866  1.0000
  Cu  Cu13      1.0  0.8655092549999998  0.87263651  0.5030563730580422  1.0000
  Cu  Cu14      1.0  0.3576640949999999  0.86513416  0.5144292662649721  1.0000
  Cu  Cu15      1.0  0.6177119249999999  0.6229835  0.5142326373084795  1.0000
  Cu  Cu16      1.0  0.11603568499999989  0.62129707  0.5023699325710508  1.0000
  Cu  Cu17      1.0  0.8757985949999999  0.37801528  0.5145986690378299  1.0000
  Cu  Cu18      1.0  0.369880965  0.37253803  0.5031489769158567  1.0000
  Zn  Zn1       1.0  0.6166398149999999  0.11900174000000001  0.44921379200777006  1.0000
  Zn  Zn2       1.0  0.11663981499999992  0.11900174000000001  0.4626319168378241  1.0000
  Zn  Zn3       1.0  0.6166398149999999  0.11900174000000001  0.476050044619866  1.0000
  Zn  Zn4       1.0  0.1172274149999999  0.12136857999999999  0.48975739045627603  1.0000
  Zn  Zn5       1.0  0.619515265  0.12236115  0.5050738618996634  1.0000
  Zn  Zn6       1.0  0.11845414499999993  0.12318429  0.5174680690915283  1.0000
