data_image0
_chemical_formula_structural       COCu12Zn12
_chemical_formula_sum              "C1 O1 Cu12 Zn12"
_cell_length_a       6.013001403464158
_cell_length_b       6.728152468156779
_cell_length_c       99.71000789
_cell_angle_alpha    92.779775899074
_cell_angle_beta     90.56324751139044
_cell_angle_gamma    91.24366486223956

_space_group_name_H-M_alt    "P 1"
_space_group_IT_number       1

loop_
  _space_group_symop_operation_xyz
  'x, y, z'

loop_
  _atom_site_type_symbol
  _atom_site_label
  _atom_site_symmetry_multiplicity
  _atom_site_fract_x
  _atom_site_fract_y
  _atom_site_fract_z
  _atom_site_occupancy
  C   C1        1.0  0.01452778500000002  0.93658767  0.5406608451150611  1.0000
  O   O1        1.0  0.06472133499999999  0.8793609699999999  0.551059549669356  1.0000
  Cu  Cu1       1.0  0.217253295  0.8838960299999999  0.5029722713710122  1.0000
  Cu  Cu2       1.0  0.730518455  0.30736491  0.5157075094930079  1.0000
  Cu  Cu3       1.0  0.4675899650000001  0.5987672199999999  0.5101452458183435  1.0000
  Cu  Cu4       1.0  0.9854722149999998  0.013466519999999963  0.5230655703322828  1.0000
  Cu  Cu5       1.0  0.205912495  0.10016984999999996  0.4760281001897471  1.0000
  Cu  Cu6       1.0  0.7059124950000001  0.50926076  0.4895719266091194  1.0000
  Cu  Cu7       1.0  0.455912495  0.8047153  0.4828000119096125  1.0000
  Cu  Cu8       1.0  0.980848065  0.18922122999999993  0.4965535574173271  1.0000
  Cu  Cu9       1.0  0.205912495  0.28198802999999995  0.44894045033064406  1.0000
  Cu  Cu10      1.0  0.7059124950000001  0.69107894  0.46248427675001635  1.0000
  Cu  Cu11      1.0  0.455912495  0.9865334800000001  0.45571236205050947  1.0000
  Cu  Cu12      1.0  0.9559124950000001  0.39562438999999994  0.4692561884698817  1.0000
  Zn  Zn1       1.0  0.9341672449999998  0.6349285699999999  0.5130033537145561  1.0000
  Zn  Zn2       1.0  0.43471874499999996  0.047916129999999967  0.522934507820635  1.0000
  Zn  Zn3       1.0  0.17859616500000003  0.34851029  0.5192884516038155  1.0000
  Zn  Zn4       1.0  0.699590135  0.9135797  0.503932121169862  1.0000
  Zn  Zn5       1.0  0.9559124950000001  0.8047153  0.48280001190961247  1.0000
  Zn  Zn6       1.0  0.445350405  0.21686654999999996  0.49722928051993953  1.0000
  Zn  Zn7       1.0  0.205912495  0.50926076  0.4895719266091194  1.0000
  Zn  Zn8       1.0  0.7059124950000001  0.10016984999999996  0.4760281001897471  1.0000
  Zn  Zn9       1.0  0.9559124950000001  0.9865334800000001  0.45571236205050947  1.0000
  Zn  Zn10      1.0  0.455912495  0.39562438999999994  0.4692561884698817  1.0000
  Zn  Zn11      1.0  0.20591249500000006  0.69107894  0.46248427675001635  1.0000
  Zn  Zn12      1.0  0.7059124950000001  0.28198802999999995  0.44894045033064406  1.0000
