data_image0
_chemical_formula_structural       COZn3Cu9Zn3Cu9Zn3Cu9Zn3Cu9
_chemical_formula_sum              "C1 O1 Zn12 Cu36"
_cell_length_a       5.33068801
_cell_length_b       5.3306880106964
_cell_length_c       120.85676697
_cell_angle_alpha    90.0
_cell_angle_beta     90.0
_cell_angle_gamma    119.99999993362319

_space_group_name_H-M_alt    "P 1"
_space_group_IT_number       1

loop_
  _space_group_symop_operation_xyz
  'x, y, z'

loop_
  _atom_site_type_symbol
  _atom_site_label
  _atom_site_symmetry_multiplicity
  _atom_site_fract_x
  _atom_site_fract_y
  _atom_site_fract_z
  _atom_site_occupancy
  C   C1        1.0  0.17136594000000002  0.759802215  0.5982222623814598  1.0000
  O   O1        1.0  0.17132407000000002  0.759997085  0.6079915338462994  1.0000
  Zn  Zn1       1.0  0.08381957  0.081004935  0.5674517108445075  1.0000
  Zn  Zn2       1.0  0.41768073999999994  0.252328405  0.42707530071716193  1.0000
  Zn  Zn3       1.0  0.25101408  0.418995065  0.4972089614280448  1.0000
  Cu  Cu1       1.0  0.08434741000000001  0.085661735  0.4092457103770755  1.0000
  Cu  Cu2       1.0  0.25101408  0.418995065  0.39200846615370066  1.0000
  Cu  Cu3       1.0  0.41944393999999996  0.255910955  0.5852173308674274  1.0000
  Cu  Cu4       1.0  0.41768073999999994  0.252328405  0.47937937529597824  1.0000
  Cu  Cu5       1.0  0.5843474099999999  0.585661735  0.4621421310726034  1.0000
  Cu  Cu6       1.0  0.25101408  0.418995065  0.4449048868492286  1.0000
  Cu  Cu7       1.0  0.25101408  0.418995065  0.549513040214881  1.0000
  Cu  Cu8       1.0  0.41768073999999994  0.252328405  0.5322757959915062  1.0000
  Cu  Cu9       1.0  0.08434741000000001  0.085661735  0.5150385517681312  1.0000
  Zn  Zn4       1.0  0.08231925999999996  0.581607845  0.5673045101034999  1.0000
  Zn  Zn5       1.0  0.41768073999999994  0.752328405  0.42707530071716193  1.0000
  Zn  Zn6       1.0  0.25101408  0.9189950649999999  0.4972089614280448  1.0000
  Cu  Cu10      1.0  0.08434740999999996  0.585661735  0.4092457103770755  1.0000
  Cu  Cu11      1.0  0.25101408  0.9189950649999999  0.39200846615370066  1.0000
  Cu  Cu12      1.0  0.41616443000000003  0.7464395149999999  0.5859232724789362  1.0000
  Cu  Cu13      1.0  0.41768073999999994  0.752328405  0.47937937529597824  1.0000
  Cu  Cu14      1.0  0.5843474099999999  0.085661735  0.4621421310726034  1.0000
  Cu  Cu15      1.0  0.25101408  0.9189950649999999  0.4449048868492286  1.0000
  Cu  Cu16      1.0  0.25101408  0.9189950649999999  0.549513040214881  1.0000
  Cu  Cu17      1.0  0.41768073999999994  0.752328405  0.5322757959915062  1.0000
  Cu  Cu18      1.0  0.08434740999999996  0.585661735  0.5150385517681312  1.0000
  Zn  Zn7       1.0  0.5802118  0.081021035  0.5674526955211433  1.0000
  Zn  Zn8       1.0  0.9176807400000001  0.252328405  0.42707530071716193  1.0000
  Zn  Zn9       1.0  0.75101408  0.418995065  0.4972089614280448  1.0000
  Cu  Cu19      1.0  0.5843474099999999  0.085661735  0.4092457103770755  1.0000
  Cu  Cu20      1.0  0.75101408  0.418995065  0.39200846615370066  1.0000
  Cu  Cu21      1.0  0.91100494  0.239000145  0.5849973524237889  1.0000
  Cu  Cu22      1.0  0.9176807400000001  0.252328405  0.47937937529597824  1.0000
  Cu  Cu23      1.0  0.08434740999999996  0.585661735  0.4621421310726034  1.0000
  Cu  Cu24      1.0  0.75101408  0.418995065  0.4449048868492286  1.0000
  Cu  Cu25      1.0  0.75101408  0.418995065  0.549513040214881  1.0000
  Cu  Cu26      1.0  0.9176807400000001  0.252328405  0.5322757959915062  1.0000
  Cu  Cu27      1.0  0.5843474099999999  0.085661735  0.5150385517681312  1.0000
  Zn  Zn10      1.0  0.5844987299999999  0.586000485  0.5676239408873508  1.0000
  Zn  Zn11      1.0  0.9176807399999999  0.752328405  0.42707530071716193  1.0000
  Zn  Zn12      1.0  0.7510140799999998  0.9189950649999999  0.4972089614280448  1.0000
  Cu  Cu28      1.0  0.5843474099999999  0.585661735  0.4092457103770755  1.0000
  Cu  Cu29      1.0  0.7510140799999998  0.9189950649999999  0.39200846615370066  1.0000
  Cu  Cu30      1.0  0.9132295799999998  0.7463784849999999  0.5859203731532864  1.0000
  Cu  Cu31      1.0  0.9176807399999999  0.752328405  0.47937937529597824  1.0000
  Cu  Cu32      1.0  0.08434741000000001  0.085661735  0.4621421310726034  1.0000
  Cu  Cu33      1.0  0.7510140799999998  0.9189950649999999  0.4449048868492286  1.0000
  Cu  Cu34      1.0  0.7510140799999998  0.9189950649999999  0.549513040214881  1.0000
  Cu  Cu35      1.0  0.9176807399999999  0.752328405  0.5322757959915062  1.0000
  Cu  Cu36      1.0  0.5843474099999999  0.585661735  0.5150385517681312  1.0000
