data_image0
_chemical_formula_structural       COCu6Zn6Cu6Zn6
_chemical_formula_sum              "C1 O1 Cu12 Zn12"
_cell_length_a       8.6063076
_cell_length_b       4.9544221479752855
_cell_length_c       101.33274936000001
_cell_angle_alpha    86.20256383189295
_cell_angle_beta     90.0
_cell_angle_gamma    115.73910862734104

_space_group_name_H-M_alt    "P 1"
_space_group_IT_number       1

loop_
  _space_group_symop_operation_xyz
  'x, y, z'

loop_
  _atom_site_type_symbol
  _atom_site_label
  _atom_site_symmetry_multiplicity
  _atom_site_fract_x
  _atom_site_fract_y
  _atom_site_fract_z
  _atom_site_occupancy
  C   C1        1.0  0.16209655000000003  0.6933711100000001  0.5399770421460017  1.0000
  O   O1        1.0  0.15604719000000006  0.66334218  0.5514569535550563  1.0000
  Cu  Cu1       1.0  0.20660322  0.86746016  0.46962531146253456  1.0000
  Cu  Cu2       1.0  0.43387595000000007  0.77655107  0.4555704670867854  1.0000
  Cu  Cu3       1.0  0.25026297000000003  0.04163074999999997  0.49845735617700776  1.0000
  Cu  Cu4       1.0  0.47933048999999994  0.9583692500000001  0.4836801527462182  1.0000
  Cu  Cu5       1.0  0.30210935000000005  0.24535762999999997  0.5232931351057298  1.0000
  Cu  Cu6       1.0  0.020669510000000023  0.12849413  0.5122536296712769  1.0000
  Zn  Zn1       1.0  0.07023958000000001  0.32200561  0.46259789082069264  1.0000
  Zn  Zn2       1.0  0.29751231  0.23109651999999997  0.4485430464449436  1.0000
  Zn  Zn3       1.0  0.11569413  0.50382379  0.4907075764801254  1.0000
  Zn  Zn4       1.0  0.34296685999999993  0.4129146999999999  0.4766527321043763  1.0000
  Zn  Zn5       1.0  0.15410984  0.66191787  0.5199808187379562  1.0000
  Zn  Zn6       1.0  0.39415868  0.6205447000000001  0.5045560223947907  1.0000
  Cu  Cu7       1.0  0.7066032199999999  0.86746016  0.46962531146253456  1.0000
  Cu  Cu8       1.0  0.93387595  0.77655107  0.4555704670867854  1.0000
  Cu  Cu9       1.0  0.75037357  0.04561985999999998  0.49807640752901083  1.0000
  Cu  Cu10      1.0  0.97933049  0.9583692500000001  0.4836801527462182  1.0000
  Cu  Cu11      1.0  0.7989080900000001  0.24032670999999997  0.5233885222329036  1.0000
  Cu  Cu12      1.0  0.5256251399999999  0.14076455999999998  0.5120690302716399  1.0000
  Zn  Zn7       1.0  0.57023958  0.32200561  0.46259789082069264  1.0000
  Zn  Zn8       1.0  0.7975123100000001  0.23109651999999997  0.4485430464449436  1.0000
  Zn  Zn9       1.0  0.6156941300000001  0.50382379  0.4907075764801254  1.0000
  Zn  Zn10      1.0  0.84296686  0.4129146999999999  0.4766527321043763  1.0000
  Zn  Zn11      1.0  0.6608540700000001  0.67240971  0.5209823572907242  1.0000
  Zn  Zn12      1.0  0.8933558900000002  0.6135902  0.5044786125361634  1.0000
