data_image0
_chemical_formula_structural       COZn4Cu12Zn4Cu12Zn4Cu12
_chemical_formula_sum              "C1 O1 Zn12 Cu36"
_cell_length_a       4.60176601
_cell_length_b       17.246078888692907
_cell_length_c       99.22513927
_cell_angle_alpha    94.41770352794805
_cell_angle_beta     90.0
_cell_angle_gamma    97.66696823184186

_space_group_name_H-M_alt    "P 1"
_space_group_IT_number       1

loop_
  _space_group_symop_operation_xyz
  'x, y, z'

loop_
  _atom_site_type_symbol
  _atom_site_label
  _atom_site_symmetry_multiplicity
  _atom_site_fract_x
  _atom_site_fract_y
  _atom_site_fract_z
  _atom_site_occupancy
  C   C1        1.0  0.88256005  0.4917018100000001  0.5395245500888861  1.0000
  O   O1        1.0  0.8290574900000001  0.47818064000000005  0.5506083508429896  1.0000
  Zn  Zn1       1.0  0.055779260000000004  0.3738962  0.5081688574977208  1.0000
  Zn  Zn2       1.0  0.31317422  0.87325515  0.5154406097749258  1.0000
  Zn  Zn3       1.0  0.81018405  0.8732289400000001  0.5276446897626086  1.0000
  Zn  Zn4       1.0  0.54908615  0.36843604  0.5200664958731834  1.0000
  Cu  Cu1       1.0  0.9244154000000001  0.12249324000000006  0.5029224892076771  1.0000
  Cu  Cu2       1.0  0.17780848999999999  0.62339023  0.50930464392629  1.0000
  Cu  Cu3       1.0  0.6749392  0.62400148  0.5209764957754971  1.0000
  Cu  Cu4       1.0  0.42373365  0.12217854000000004  0.5149350339835467  1.0000
  Cu  Cu5       1.0  0.31197157  0.2465782  0.5047223134594686  1.0000
  Cu  Cu6       1.0  0.5613671400000001  0.7484300300000001  0.5116049779912304  1.0000
  Cu  Cu7       1.0  0.05399999000000001  0.7463126  0.5229119704304145  1.0000
  Cu  Cu8       1.0  0.8072776300000001  0.24511339000000004  0.5163426307615268  1.0000
  Cu  Cu9       1.0  0.17761811  0.0003779000000000595  0.525601374568781  1.0000
  Cu  Cu10      1.0  0.43767508000000005  0.4985193300000001  0.5078867001823081  1.0000
  Cu  Cu11      1.0  0.9384495100000001  0.50151319  0.5209963237786638  1.0000
  Cu  Cu12      1.0  0.68479016  0.9999177600000001  0.5145478371439313  1.0000
  Zn  Zn5       1.0  0.05153778999999999  0.37378366  0.4795144063510311  1.0000
  Zn  Zn6       1.0  0.30153778999999997  0.8737836600000001  0.4862083514123682  1.0000
  Zn  Zn7       1.0  0.80120921  0.87330511  0.4999551395846359  1.0000
  Zn  Zn8       1.0  0.5515377899999999  0.37378366  0.49290229647370515  1.0000
  Cu  Cu13      1.0  0.9265377899999999  0.12378366000000006  0.4761674323476946  1.0000
  Cu  Cu14      1.0  0.17653779  0.6237836600000001  0.48286137740903157  1.0000
  Cu  Cu15      1.0  0.67653779  0.6237836600000001  0.49624927047704176  1.0000
  Cu  Cu16      1.0  0.42653778999999997  0.12378366000000006  0.4895553254157047  1.0000
  Cu  Cu17      1.0  0.32128003  0.24660147000000002  0.4778117045597892  1.0000
  Cu  Cu18      1.0  0.57128003  0.74660147  0.4845056496211262  1.0000
  Cu  Cu19      1.0  0.07475839999999996  0.7484190700000001  0.49746810065921815  1.0000
  Cu  Cu20      1.0  0.82128003  0.24660147000000002  0.4911995976277993  1.0000
  Cu  Cu21      1.0  0.19296673000000003  0.99903416  0.5007389553943078  1.0000
  Cu  Cu22      1.0  0.44846220999999986  0.50096584  0.4812171081422731  1.0000
  Cu  Cu23      1.0  0.94846221  0.50096584  0.49460499826494714  1.0000
  Cu  Cu24      1.0  0.69846221  0.0009658399999998846  0.48791105320361017  1.0000
  Zn  Zn9       1.0  0.05153778999999999  0.37378366  0.45273862316034696  1.0000
  Zn  Zn10      1.0  0.30153778999999997  0.8737836600000001  0.45943256822168393  1.0000
  Zn  Zn11      1.0  0.80153779  0.8737836600000001  0.4728204612896941  1.0000
  Zn  Zn12      1.0  0.5515377899999999  0.37378366  0.4661265132830209  1.0000
  Cu  Cu25      1.0  0.9265377899999999  0.12378366000000006  0.44939164915701035  1.0000
  Cu  Cu26      1.0  0.17653779  0.6237836600000001  0.4560855942183473  1.0000
  Cu  Cu27      1.0  0.67653779  0.6237836600000001  0.4694734872863575  1.0000
  Cu  Cu28      1.0  0.42653778999999997  0.12378366000000006  0.4627795422250205  1.0000
  Cu  Cu29      1.0  0.32128003  0.24660147000000002  0.451035921369105  1.0000
  Cu  Cu30      1.0  0.57128003  0.74660147  0.45772986643044195  1.0000
  Cu  Cu31      1.0  0.07128002999999995  0.74660147  0.47111775949845214  1.0000
  Cu  Cu32      1.0  0.82128003  0.24660147000000002  0.4644238114917789  1.0000
  Cu  Cu33      1.0  0.19846220999999986  0.0009658399999998846  0.4745231601356  1.0000
  Cu  Cu34      1.0  0.44846220999999986  0.50096584  0.45444132495158895  1.0000
  Cu  Cu35      1.0  0.94846221  0.50096584  0.4678292150742629  1.0000
  Cu  Cu36      1.0  0.69846221  0.0009658399999998846  0.4611352700129259  1.0000
