data_image0
_chemical_formula_structural       COAl4Ca2Ga4Al4Ca2Ga4
_chemical_formula_sum              "C1 O1 Al8 Ca4 Ga8"
_cell_length_a       8.68077696
_cell_length_b       6.375276035334906
_cell_length_c       98.33904783
_cell_angle_alpha    91.8816848927895
_cell_angle_beta     90.0
_cell_angle_gamma    70.09827334931728

_space_group_name_H-M_alt    "P 1"
_space_group_IT_number       1

loop_
  _space_group_symop_operation_xyz
  'x, y, z'

loop_
  _atom_site_type_symbol
  _atom_site_label
  _atom_site_symmetry_multiplicity
  _atom_site_fract_x
  _atom_site_fract_y
  _atom_site_fract_z
  _atom_site_occupancy
  C   C1        1.0  0.38289547500000004  0.36422717499999996  0.5436378776711801  1.0000
  O   O1        1.0  0.383509525  0.371065615  0.5553377095039188  1.0000
  Al  Al1       1.0  0.03733163500000003  0.7431482349999998  0.5143486896070982  1.0000
  Al  Al2       1.0  0.323517415  0.596756525  0.4964601163566596  1.0000
  Al  Al3       1.0  0.10714285500000001  0.460166705  0.47553839126981917  1.0000
  Al  Al4       1.0  0.392857145  0.31730955499999997  0.45495432312673734  1.0000
  Ca  Ca1       1.0  0.4642857150000001  0.03159527500000001  0.48583042678224486  1.0000
  Ca  Ca2       1.0  0.03571428500000004  0.7458809849999999  0.44466229049608125  1.0000
  Ga  Ga1       1.0  0.23083560500000008  0.9684047249999999  0.5132615881346919  1.0000
  Ga  Ga2       1.0  0.13600352500000001  0.348637355  0.5028400516600863  1.0000
  Ga  Ga3       1.0  0.29839626500000005  0.6951530849999998  0.4698952552900455  1.0000
  Ga  Ga4       1.0  0.201603735  0.08232317500000001  0.4605974619882805  1.0000
  Al  Al5       1.0  0.537257765  0.7430285349999999  0.514315635709813  1.0000
  Al  Al6       1.0  0.8235721349999999  0.596025895  0.49646116532079326  1.0000
  Al  Al7       1.0  0.607142855  0.460166705  0.47553839126981917  1.0000
  Al  Al8       1.0  0.8928571450000001  0.31730955499999997  0.45495432312673734  1.0000
  Ca  Ca3       1.0  0.9642857149999999  0.03159527500000001  0.48583042678224486  1.0000
  Ca  Ca4       1.0  0.5357142850000001  0.7458809849999999  0.44466229049608125  1.0000
  Ga  Ga5       1.0  0.7312240449999999  0.9677242949999999  0.5132567179440719  1.0000
  Ga  Ga6       1.0  0.6357114349999999  0.347756005  0.5028498122137136  1.0000
  Ga  Ga7       1.0  0.7983962649999999  0.6951530849999998  0.4698952552900455  1.0000
  Ga  Ga8       1.0  0.701603735  0.08232317500000001  0.4605974619882805  1.0000
