data_image0
_chemical_formula_structural       COSr12Si24
_chemical_formula_sum              "C1 O1 Sr12 Si24"
_cell_length_a       6.62067834
_cell_length_b       14.804286824550143
_cell_length_c       107.45221240000001
_cell_angle_alpha    71.56505117707799
_cell_angle_beta     90.0
_cell_angle_gamma    90.0

_space_group_name_H-M_alt    "P 1"
_space_group_IT_number       1

loop_
  _space_group_symop_operation_xyz
  'x, y, z'

loop_
  _atom_site_type_symbol
  _atom_site_label
  _atom_site_symmetry_multiplicity
  _atom_site_fract_x
  _atom_site_fract_y
  _atom_site_fract_z
  _atom_site_occupancy
  C   C1        1.0  0.15428837999999997  0.6803076750000001  0.5477614152550729  1.0000
  O   O1        1.0  0.07081373999999997  0.701359825  0.5558097770386237  1.0000
  Sr  Sr1       1.0  0.38212025999999993  0.04211674500000004  0.447350444936989  1.0000
  Sr  Sr2       1.0  0.38212025999999993  0.3754500850000001  0.4763960783906869  1.0000
  Sr  Sr3       1.0  0.3674858099999999  0.710248495  0.5095895225753376  1.0000
  Sr  Sr4       1.0  0.12389553999999996  0.46617465500000016  0.506405540108784  1.0000
  Sr  Sr5       1.0  0.13212025999999996  0.7921167450000001  0.447350444936989  1.0000
  Sr  Sr6       1.0  0.13212025999999996  0.12545008500000004  0.4763960783906869  1.0000
  Sr  Sr7       1.0  0.88212026  0.3754500850000001  0.4546118524290444  1.0000
  Sr  Sr8       1.0  0.88212026  0.7087834150000002  0.48365748936821845  1.0000
  Sr  Sr9       1.0  0.9014277799999999  0.03818931500000004  0.5144278375016562  1.0000
  Sr  Sr10      1.0  0.6197516599999999  0.2926197850000001  0.5151997659054521  1.0000
  Sr  Sr11      1.0  0.6321202599999999  0.6254500850000001  0.4546118524290444  1.0000
  Sr  Sr12      1.0  0.6321202599999999  0.9587834150000001  0.48365748936821845  1.0000
  Si  Si1       1.0  0.33505425999999994  0.29211674500000007  0.45145163045343173  1.0000
  Si  Si2       1.0  0.33505425999999994  0.6254500850000001  0.48049726390712955  1.0000
  Si  Si3       1.0  0.34413358999999993  0.961810685  0.5086268584599738  1.0000
  Si  Si4       1.0  0.5850542599999999  0.17740608500000002  0.4632403229217395  1.0000
  Si  Si5       1.0  0.5850542599999999  0.5107394150000001  0.49228595986091345  1.0000
  Si  Si6       1.0  0.60139948  0.8626140850000001  0.52037070330661  1.0000
  Si  Si7       1.0  0.09720504999999997  0.24099896500000006  0.5251718038040336  1.0000
  Si  Si8       1.0  0.08505425999999998  0.5734940850000001  0.4677676078979918  1.0000
  Si  Si9       1.0  0.08505425999999998  0.9068274150000002  0.49681324483716593  1.0000
  Si  Si10      1.0  0.42918626  0.45878341500000014  0.4441902229613762  1.0000
  Si  Si11      1.0  0.42918626  0.7921167450000001  0.47323585641507415  1.0000
  Si  Si12      1.0  0.43578922  0.12938474500000002  0.5027616804330135  1.0000
  Si  Si13      1.0  0.9291862599999999  0.29211674500000007  0.4868177113438312  1.0000
  Si  Si14      1.0  0.8935617099999998  0.631597375  0.5141999013030981  1.0000
  Si  Si15      1.0  0.9291862599999999  0.9587834150000001  0.4577720778901334  1.0000
  Si  Si16      1.0  0.16544163999999997  0.23720814500000006  0.5046979879136259  1.0000
  Si  Si17      1.0  0.17918625999999993  0.5734940850000001  0.44598338193634934  1.0000
  Si  Si18      1.0  0.17918625999999993  0.9068274150000002  0.4750290188755234  1.0000
  Si  Si19      1.0  0.8350542599999998  0.12545008500000004  0.4505106669126018  1.0000
  Si  Si20      1.0  0.8350542599999998  0.45878341500000014  0.4795563038517759  1.0000
  Si  Si21      1.0  0.8411334399999999  0.793057805  0.5096482110228164  1.0000
  Si  Si22      1.0  0.6349790699999999  0.5185677750000001  0.5140799730395961  1.0000
  Si  Si23      1.0  0.6791862599999999  0.8440727450000001  0.45597891542968405  1.0000
  Si  Si24      1.0  0.6791862599999999  0.17740608500000002  0.4850245488833819  1.0000
