data_image0
_chemical_formula_structural       COAg6Ca6Zn6
_chemical_formula_sum              "C1 O1 Ag6 Ca6 Zn6"
_cell_length_a       5.926471724802761
_cell_length_b       8.999632129971847
_cell_length_c       103.3759007
_cell_angle_alpha    83.98663176262919
_cell_angle_beta     92.5133044103852
_cell_angle_gamma    105.79934976149168

_space_group_name_H-M_alt    "P 1"
_space_group_IT_number       1

loop_
  _space_group_symop_operation_xyz
  'x, y, z'

loop_
  _atom_site_type_symbol
  _atom_site_label
  _atom_site_symmetry_multiplicity
  _atom_site_fract_x
  _atom_site_fract_y
  _atom_site_fract_z
  _atom_site_occupancy
  C   C1        1.0  0.924680505  0.48278991499999996  0.5424301812145851  1.0000
  O   O1        1.0  0.8676454749999998  0.41062603500000006  0.5523442564093558  1.0000
  Ag  Ag1       1.0  0.789164245  0.399700485  0.5012779847926185  1.0000
  Ag  Ag2       1.0  0.6164678450000001  0.819672755  0.4745607081737518  1.0000
  Ag  Ag3       1.0  0.449801175  0.23633941500000005  0.4476557435906443  1.0000
  Ag  Ag4       1.0  0.46652996499999994  0.18390535500000002  0.48575174469624727  1.0000
  Ag  Ag5       1.0  0.29986330499999997  0.600572025  0.4588467801131398  1.0000
  Ag  Ag6       1.0  0.620763755  0.772683475  0.5127100585976612  1.0000
  Ca  Ca1       1.0  0.9239864649999998  0.06836783500000003  0.49427338137448495  1.0000
  Ca  Ca2       1.0  0.763320825  0.488612615  0.46810197637528395  1.0000
  Ca  Ca3       1.0  0.07531949499999994  0.6462196649999999  0.5212151551792101  1.0000
  Ca  Ca4       1.0  0.495742385  0.10831276500000002  0.5181889825759264  1.0000
  Ca  Ca5       1.0  0.31967698499999997  0.514965495  0.492210476494715  1.0000
  Ca  Ca6       1.0  0.15301032500000009  0.931632165  0.46530551191160757  1.0000
  Zn  Zn1       1.0  0.08497391500000005  0.28278145500000007  0.5180108673984672  1.0000
  Zn  Zn2       1.0  0.902330755  0.709580315  0.4922653949106188  1.0000
  Zn  Zn3       1.0  0.735664085  0.126246985  0.4653604303275114  1.0000
  Zn  Zn4       1.0  0.33689928500000005  0.882425235  0.49550120993012126  1.0000
  Zn  Zn5       1.0  0.18066705500000005  0.29399779500000006  0.4680470579593802  1.0000
  Zn  Zn6       1.0  0.519074945  0.46544628499999996  0.5211382435681778  1.0000
