data_image0
_chemical_formula_structural       COGa24Ir12Ga24Ir12
_chemical_formula_sum              "C1 O1 Ga48 Ir24"
_cell_length_a       7.91434684
_cell_length_b       11.06258204
_cell_length_c       109.61901412
_cell_angle_alpha    90.0
_cell_angle_beta     90.0
_cell_angle_gamma    90.0

_space_group_name_H-M_alt    "P 1"
_space_group_IT_number       1

loop_
  _space_group_symop_operation_xyz
  'x, y, z'

loop_
  _atom_site_type_symbol
  _atom_site_label
  _atom_site_symmetry_multiplicity
  _atom_site_fract_x
  _atom_site_fract_y
  _atom_site_fract_z
  _atom_site_occupancy
  C   C1        1.0  0.403149615  0.7561262299999999  0.562805374534063  1.0000
  O   O1        1.0  0.40314933500000005  0.7561476399999999  0.5732818210755601  1.0000
  Ga  Ga1       1.0  0.153149475  0.61199324  0.49778911299216966  1.0000
  Ga  Ga2       1.0  0.403149475  0.4002869  0.4517100864730268  1.0000
  Ga  Ga3       1.0  0.403149475  0.11199324  0.4517100864730268  1.0000
  Ga  Ga4       1.0  0.153149475  0.9002868999999999  0.49778911299216966  1.0000
  Ga  Ga5       1.0  0.403149475  0.5237818500000001  0.48336500206607835  1.0000
  Ga  Ga6       1.0  0.153149475  0.48849829  0.46613419739911804  1.0000
  Ga  Ga7       1.0  0.153149475  0.7561400699999999  0.4727914298776308  1.0000
  Ga  Ga8       1.0  0.403149475  0.25614007  0.4767077695875656  1.0000
  Ga  Ga9       1.0  0.153149475  0.7561400699999999  0.44949861576438205  1.0000
  Ga  Ga10      1.0  0.403149475  0.25614007  0.5000005800865678  1.0000
  Ga  Ga11      1.0  0.403149475  0.98849829  0.48336500206607835  1.0000
  Ga  Ga12      1.0  0.153149475  0.02378184999999999  0.46613419739911804  1.0000
  Ga  Ga13      1.0  0.403149475  0.61199324  0.43755166965195774  1.0000
  Ga  Ga14      1.0  0.153149475  0.4002869  0.5119475298132387  1.0000
  Ga  Ga15      1.0  0.153149475  0.11199324  0.5119475298132387  1.0000
  Ga  Ga16      1.0  0.403149475  0.9002868999999999  0.43755166965195774  1.0000
  Ga  Ga17      1.0  0.09693163499999999  0.49319683999999997  0.5436861079849233  1.0000
  Ga  Ga18      1.0  0.40314955500000005  0.48468196  0.5274511547350907  1.0000
  Ga  Ga19      1.0  0.40314956500000004  0.75626302  0.5333126457839986  1.0000
  Ga  Ga20      1.0  0.153158295  0.25605903999999996  0.5374298761587063  1.0000
  Ga  Ga21      1.0  0.403149475  0.7561400699999999  0.509736059104594  1.0000
  Ga  Ga22      1.0  0.153149475  0.25614007  0.43976313674635603  1.0000
  Ga  Ga23      1.0  0.096849325  0.01902153  0.5436894186347431  1.0000
  Ga  Ga24      1.0  0.403149215  0.027473689999999995  0.5274538509630007  1.0000
  Ir  Ir1       1.0  0.403149475  0.6289536099999999  0.461532882072926  1.0000
  Ir  Ir2       1.0  0.153149475  0.38332653  0.48796631377802396  1.0000
  Ir  Ir3       1.0  0.153149475  0.12895361  0.48796631377802396  1.0000
  Ir  Ir4       1.0  0.403149475  0.8833265299999999  0.461532882072926  1.0000
  Ir  Ir5       1.0  0.153149475  0.25614007  0.4625435772005446  1.0000
  Ir  Ir6       1.0  0.403149475  0.7561400699999999  0.4869556222646518  1.0000
  Ir  Ir7       1.0  0.164440575  0.62715231  0.5214287827304762  1.0000
  Ir  Ir8       1.0  0.403149475  0.38332653  0.4277288704378121  1.0000
  Ir  Ir9       1.0  0.403149475  0.12895361  0.4277288704378121  1.0000
  Ir  Ir10      1.0  0.16456531500000002  0.8850369199999999  0.5214217674779651  1.0000
  Ir  Ir11      1.0  0.403149675  0.25616285  0.5225755795396047  1.0000
  Ir  Ir12      1.0  0.153149475  0.7561400699999999  0.4267181789244399  1.0000
  Ga  Ga25      1.0  0.653149475  0.61199324  0.49778911299216966  1.0000
  Ga  Ga26      1.0  0.903149475  0.4002869  0.4517100864730268  1.0000
  Ga  Ga27      1.0  0.903149475  0.11199324  0.4517100864730268  1.0000
  Ga  Ga28      1.0  0.653149475  0.9002868999999999  0.49778911299216966  1.0000
  Ga  Ga29      1.0  0.903149475  0.5237818500000001  0.48336500206607835  1.0000
  Ga  Ga30      1.0  0.653149475  0.48849829  0.46613419739911804  1.0000
  Ga  Ga31      1.0  0.653149475  0.7561400699999999  0.4727914298776308  1.0000
  Ga  Ga32      1.0  0.903149475  0.25614007  0.4767077695875656  1.0000
  Ga  Ga33      1.0  0.653149475  0.7561400699999999  0.44949861576438205  1.0000
  Ga  Ga34      1.0  0.903149475  0.25614007  0.5000005800865678  1.0000
  Ga  Ga35      1.0  0.903149475  0.98849829  0.48336500206607835  1.0000
  Ga  Ga36      1.0  0.653149475  0.02378184999999999  0.46613419739911804  1.0000
  Ga  Ga37      1.0  0.903149475  0.61199324  0.43755166965195774  1.0000
  Ga  Ga38      1.0  0.653149475  0.4002869  0.5119475298132387  1.0000
  Ga  Ga39      1.0  0.653149475  0.11199324  0.5119475298132387  1.0000
  Ga  Ga40      1.0  0.903149475  0.9002868999999999  0.43755166965195774  1.0000
  Ga  Ga41      1.0  0.709368005  0.49319696  0.5436861513558816  1.0000
  Ga  Ga42      1.0  0.903149545  0.5010060399999999  0.5238557998735655  1.0000
  Ga  Ga43      1.0  0.903147325  0.7561245499999999  0.537194422454385  1.0000
  Ga  Ga44      1.0  0.6531424550000001  0.25605866  0.5374297315888452  1.0000
  Ga  Ga45      1.0  0.903149475  0.7561400699999999  0.509736059104594  1.0000
  Ga  Ga46      1.0  0.653149475  0.25614007  0.43976313674635603  1.0000
  Ga  Ga47      1.0  0.7094493150000001  0.019020529999999994  0.5436894330917291  1.0000
  Ga  Ga48      1.0  0.903149445  0.011501709999999993  0.5238472810944986  1.0000
  Ir  Ir13      1.0  0.903149475  0.6289536099999999  0.461532882072926  1.0000
  Ir  Ir14      1.0  0.653149475  0.38332653  0.48796631377802396  1.0000
  Ir  Ir15      1.0  0.653149475  0.12895361  0.48796631377802396  1.0000
  Ir  Ir16      1.0  0.903149475  0.8833265299999999  0.461532882072926  1.0000
  Ir  Ir17      1.0  0.653149475  0.25614007  0.4625435772005446  1.0000
  Ir  Ir18      1.0  0.903149475  0.7561400699999999  0.4869556222646518  1.0000
  Ir  Ir19      1.0  0.6418584150000001  0.6271521899999999  0.5214287791162298  1.0000
  Ir  Ir20      1.0  0.903149475  0.38332653  0.4277288704378121  1.0000
  Ir  Ir21      1.0  0.903149475  0.12895361  0.4277288704378121  1.0000
  Ir  Ir22      1.0  0.641733285  0.88503711  0.5214217783207048  1.0000
  Ir  Ir23      1.0  0.903150675  0.25617584  0.5223976284975458  1.0000
  Ir  Ir24      1.0  0.653149475  0.7561400699999999  0.4267181789244399  1.0000
