data_image0
_chemical_formula_structural       CONa16Si16
_chemical_formula_sum              "C1 O1 Na16 Si16"
_cell_length_a       6.955111508904894
_cell_length_b       10.356144502624277
_cell_length_c       103.98671243999999
_cell_angle_alpha    91.05757323881691
_cell_angle_beta     85.23870964872107
_cell_angle_gamma    77.47980701368799

_space_group_name_H-M_alt    "P 1"
_space_group_IT_number       1

loop_
  _space_group_symop_operation_xyz
  'x, y, z'

loop_
  _atom_site_type_symbol
  _atom_site_label
  _atom_site_symmetry_multiplicity
  _atom_site_fract_x
  _atom_site_fract_y
  _atom_site_fract_z
  _atom_site_occupancy
  C   C1        1.0  0.7534447049999999  0.16779379500000002  0.5568572010014701  1.0000
  O   O1        1.0  0.825451325  0.124017975  0.565823256982536  1.0000
  Na  Na1       1.0  0.6505122249999999  0.892082825  0.45083559580497834  1.0000
  Na  Na2       1.0  0.6828210949999998  0.25252436500000003  0.43657277577443776  1.0000
  Na  Na3       1.0  0.2455333149999999  0.783880475  0.44682111163326  1.0000
  Na  Na4       1.0  0.21322444499999998  0.423438925  0.46108393493217126  1.0000
  Na  Na5       1.0  0.22860238499999996  0.16450019500000002  0.4384846582424922  1.0000
  Na  Na6       1.0  0.2748656049999999  0.065174325  0.4767268702490802  1.0000
  Na  Na7       1.0  0.6674431550000001  0.511463095  0.45917205246411696  1.0000
  Na  Na8       1.0  0.9545132650000001  0.777455645  0.47540268332217495  1.0000
  Na  Na9       1.0  0.9838455649999999  0.05874948500000001  0.5053084419379952  1.0000
  Na  Na10      1.0  0.01615443499999997  0.419191035  0.49104561863908386  1.0000
  Na  Na11      1.0  0.5788666449999998  0.950547145  0.5012939577662767  1.0000
  Na  Na12      1.0  0.565208075  0.5858853949999999  0.5177424386051468  1.0000
  Na  Na13      1.0  0.5619357150000001  0.33116686500000003  0.49295750437550895  1.0000
  Na  Na14      1.0  0.6361122049999999  0.232595765  0.5331087096104502  1.0000
  Na  Na15      1.0  0.021197694999999923  0.6653082650000001  0.5136690322464017  1.0000
  Na  Na16      1.0  0.2969036849999999  0.943891115  0.5323407143994914  1.0000
  Si  Si1       1.0  0.9077690949999999  0.256365345  0.46865741659775034  1.0000
  Si  Si2       1.0  0.7963284749999999  0.07362396500000001  0.47934070396130557  1.0000
  Si  Si3       1.0  0.32160977499999993  0.5862646250000001  0.4834721369735048  1.0000
  Si  Si4       1.0  0.43305040499999997  0.769005995  0.4727888496099495  1.0000
  Si  Si5       1.0  0.9325983149999999  0.04945285500000001  0.45677312719907126  1.0000
  Si  Si6       1.0  0.601720295  0.195646975  0.46347996442077455  1.0000
  Si  Si7       1.0  0.9634472350000001  0.626510435  0.4408835835075379  1.0000
  Si  Si8       1.0  0.2943252449999999  0.480316325  0.43417674301746395  1.0000
  Si  Si9       1.0  0.27977763499999997  0.40598295500000003  0.5198608526862699  1.0000
  Si  Si10      1.0  0.16239809499999994  0.22933699500000004  0.5314568652522371  1.0000
  Si  Si11      1.0  0.702188065  0.766137295  0.5373317125646245  1.0000
  Si  Si12      1.0  0.7789995949999999  0.926467975  0.5266109435258517  1.0000
  Si  Si13      1.0  0.27469285499999996  0.20823754500000002  0.5080246540941091  1.0000
  Si  Si14      1.0  0.954677135  0.36126915500000006  0.5177431903304084  1.0000
  Si  Si15      1.0  0.296780565  0.7931771049999999  0.49535642637218397  1.0000
  Si  Si16      1.0  0.6276585749999998  0.6469829950000001  0.4886495891504806  1.0000
