data_image0
_chemical_formula_structural       COGa4Au4Ga4Au4Ga4Au4Ga4Au4
_chemical_formula_sum              "C1 O1 Ga16 Au16"
_cell_length_a       7.3752288
_cell_length_b       6.40975019
_cell_length_c       108.44050365999999
_cell_angle_alpha    90.0
_cell_angle_beta     90.0
_cell_angle_gamma    90.0

_space_group_name_H-M_alt    "P 1"
_space_group_IT_number       1

loop_
  _space_group_symop_operation_xyz
  'x, y, z'

loop_
  _atom_site_type_symbol
  _atom_site_label
  _atom_site_symmetry_multiplicity
  _atom_site_fract_x
  _atom_site_fract_y
  _atom_site_fract_z
  _atom_site_occupancy
  C   C1        1.0  0.38736431  0.31419723000000005  0.5572204498217265  1.0000
  O   O1        1.0  0.38737446  0.3018287800000001  0.5680873177513376  1.0000
  Ga  Ga1       1.0  0.13739358000000002  0.34042612  0.4820087846304548  1.0000
  Ga  Ga2       1.0  0.38739357999999996  0.7026329600000001  0.4319126822486624  1.0000
  Ga  Ga3       1.0  0.13739358000000002  0.8404261199999999  0.46145307600143143  1.0000
  Ga  Ga4       1.0  0.38739357999999996  0.20263296000000003  0.45246838733283845  1.0000
  Au  Au1       1.0  0.13739358000000002  0.51386527  0.44585805162688114  1.0000
  Au  Au2       1.0  0.38739357999999996  0.5291938100000001  0.4680634117073887  1.0000
  Au  Au3       1.0  0.13739358000000002  0.01386526999999993  0.43852301795461973  1.0000
  Au  Au4       1.0  0.38739357999999996  0.02919381000000003  0.4753984489244975  1.0000
  Ga  Ga5       1.0  0.176401  0.30747814  0.5416108135862259  1.0000
  Ga  Ga6       1.0  0.38739357999999996  0.7026329600000001  0.4909934697542004  1.0000
  Ga  Ga7       1.0  0.11260642000000001  0.8114913100000001  0.522024620718949  1.0000
  Ga  Ga8       1.0  0.38739357999999996  0.20263296000000003  0.5115491783832238  1.0000
  Au  Au5       1.0  0.13739358000000002  0.51386527  0.5049388426772665  1.0000
  Au  Au6       1.0  0.38734749  0.53136806  0.5267492394061908  1.0000
  Au  Au7       1.0  0.13739358000000002  0.01386526999999993  0.49760380546015776  1.0000
  Au  Au8       1.0  0.38732922000000003  0.9861347300000001  0.5328510029464946  1.0000
  Ga  Ga9       1.0  0.6373935800000001  0.34042612  0.4820087846304548  1.0000
  Ga  Ga10      1.0  0.88739358  0.7026329600000001  0.4319126822486624  1.0000
  Ga  Ga11      1.0  0.6373935800000001  0.8404261199999999  0.46145307600143143  1.0000
  Ga  Ga12      1.0  0.88739358  0.20263296000000003  0.45246838733283845  1.0000
  Au  Au9       1.0  0.6373935800000001  0.51386527  0.44585805162688114  1.0000
  Au  Au10      1.0  0.88739358  0.5291938100000001  0.4680634117073887  1.0000
  Au  Au11      1.0  0.6373935800000001  0.01386526999999993  0.43852301795461973  1.0000
  Au  Au12      1.0  0.88739358  0.02919381000000003  0.4753984489244975  1.0000
  Ga  Ga13      1.0  0.5983673300000001  0.30754123000000005  0.5416065101414917  1.0000
  Ga  Ga14      1.0  0.88739358  0.7026329600000001  0.4909934697542004  1.0000
  Ga  Ga15      1.0  0.66215936  0.81165257  0.5220175841968755  1.0000
  Ga  Ga16      1.0  0.88739358  0.20263296000000003  0.5115491783832238  1.0000
  Au  Au13      1.0  0.6373935800000001  0.51386527  0.5049388426772665  1.0000
  Au  Au14      1.0  0.8873319000000001  0.50807716  0.5299390596974534  1.0000
  Au  Au15      1.0  0.6373935800000001  0.01386526999999993  0.49760380546015776  1.0000
  Au  Au16      1.0  0.88737164  0.05827403000000003  0.5344980772939247  1.0000
