data_image0
_chemical_formula_structural       COCa12Sn12Pt12
_chemical_formula_sum              "C1 O1 Ca12 Sn12 Pt12"
_cell_length_a       4.7005989
_cell_length_b       16.969329589615956
_cell_length_c       102.91203946
_cell_angle_alpha    104.70179667358028
_cell_angle_beta     90.0
_cell_angle_gamma    90.0

_space_group_name_H-M_alt    "P 1"
_space_group_IT_number       1

loop_
  _space_group_symop_operation_xyz
  'x, y, z'

loop_
  _atom_site_type_symbol
  _atom_site_label
  _atom_site_symmetry_multiplicity
  _atom_site_fract_x
  _atom_site_fract_y
  _atom_site_fract_z
  _atom_site_occupancy
  C   C1        1.0  0.74983034  0.818860875  0.5641466874613457  1.0000
  O   O1        1.0  0.7498390400000001  0.7592647650000001  0.5675535005475038  1.0000
  Ca  Ca1       1.0  0.7498385000000001  0.603869275  0.46798066295710505  1.0000
  Ca  Ca2       1.0  0.7498385000000001  0.937202615  0.43244649945249614  1.0000
  Ca  Ca3       1.0  0.7498385000000001  0.270535945  0.5035148264617139  1.0000
  Ca  Ca4       1.0  0.7498385000000001  0.731187225  0.4418242364208074  1.0000
  Ca  Ca5       1.0  0.7498523600000001  0.06074696500000001  0.5123454016234185  1.0000
  Ca  Ca6       1.0  0.7498385000000001  0.397853895  0.4773583999254163  1.0000
  Ca  Ca7       1.0  0.2498385  0.721651225  0.49614204570248854  1.0000
  Ca  Ca8       1.0  0.2498385  0.054984555000000004  0.4606078789998048  1.0000
  Ca  Ca9       1.0  0.24979530000000003  0.375145225  0.5307739875478106  1.0000
  Ca  Ca10      1.0  0.24983449000000002  0.601334575  0.5216388725202105  1.0000
  Ca  Ca11      1.0  0.2498385  0.927666615  0.48676430553610256  1.0000
  Ca  Ca12      1.0  0.2498385  0.26099994499999996  0.4512301420314936  1.0000
  Sn  Sn1       1.0  0.7498385000000001  0.580619815  0.49928957807657615  1.0000
  Sn  Sn2       1.0  0.7498385000000001  0.913953145  0.46375541457196734  1.0000
  Sn  Sn3       1.0  0.7503746800000001  0.233064015  0.5359724708420011  1.0000
  Sn  Sn4       1.0  0.7498385000000001  0.527638875  0.43469253293219007  1.0000
  Sn  Sn5       1.0  0.7498385000000001  0.860972215  0.5057608599414078  1.0000
  Sn  Sn6       1.0  0.7498385000000001  0.194305545  0.470226696436799  1.0000
  Sn  Sn7       1.0  0.2498385  0.744900695  0.46483312738494265  1.0000
  Sn  Sn8       1.0  0.24981718000000006  0.09114728500000001  0.5366707224919736  1.0000
  Sn  Sn9       1.0  0.2498385  0.41156735499999997  0.5003672908895515  1.0000
  Sn  Sn10      1.0  0.24968162000000008  0.8158760350000002  0.5281106308981796  1.0000
  Sn  Sn11      1.0  0.2498385  0.131214955  0.4938960090247199  1.0000
  Sn  Sn12      1.0  0.2498385  0.464548295  0.45836184552011094  1.0000
  Pt  Pt1       1.0  0.74967992  0.7300444350000002  0.5170673397994995  1.0000
  Pt  Pt2       1.0  0.7498385000000001  0.06151340499999999  0.48247703368931383  1.0000
  Pt  Pt3       1.0  0.7498385000000001  0.394846735  0.4469428669866301  1.0000
  Pt  Pt4       1.0  0.7498284500000001  0.458799605  0.5137233624859783  1.0000
  Pt  Pt5       1.0  0.7498385000000001  0.793078415  0.4785465998247646  1.0000
  Pt  Pt6       1.0  0.7498385000000001  0.12641174499999996  0.4430124363201558  1.0000
  Pt  Pt7       1.0  0.2498385  0.597340435  0.44611151146567085  1.0000
  Pt  Pt8       1.0  0.24982784000000002  0.945015445  0.5166664739222125  1.0000
  Pt  Pt9       1.0  0.2498385  0.264007095  0.48164567497027977  1.0000
  Pt  Pt10      1.0  0.2498385  0.865775425  0.45004194213214527  1.0000
  Pt  Pt11      1.0  0.24962531999999998  0.199335095  0.5201640163889542  1.0000
  Pt  Pt12      1.0  0.2498385  0.532442095  0.4855761056367542  1.0000
