data_image0
_chemical_formula_structural       COIr8V24
_chemical_formula_sum              "C1 O1 Ir8 V24"
_cell_length_a       6.77364023
_cell_length_b       8.29598113409769
_cell_length_c       101.40807766
_cell_angle_alpha    95.05115252221013
_cell_angle_beta     90.0
_cell_angle_gamma    90.0

_space_group_name_H-M_alt    "P 1"
_space_group_IT_number       1

loop_
  _space_group_symop_operation_xyz
  'x, y, z'

loop_
  _atom_site_type_symbol
  _atom_site_label
  _atom_site_symmetry_multiplicity
  _atom_site_fract_x
  _atom_site_fract_y
  _atom_site_fract_z
  _atom_site_occupancy
  C   C1        1.0  0.31493558499999996  0.38340530500000003  0.5325241950743609  1.0000
  O   O1        1.0  0.290158335  0.279555685  0.5411076610625558  1.0000
  Ir  Ir1       1.0  0.0017852649999999582  0.5251052250000001  0.48308918916681565  1.0000
  Ir  Ir2       1.0  0.500922805  0.21249975500000004  0.5022611100938723  1.0000
  Ir  Ir3       1.0  0.004615304999999958  0.902378685  0.5205437205065275  1.0000
  Ir  Ir4       1.0  0.501785265  0.837605225  0.4637317089833184  1.0000
  Ir  Ir5       1.0  0.9982147350000001  0.405485845  0.5209372565300597  1.0000
  Ir  Ir6       1.0  0.501785265  0.337605225  0.4637317089833184  1.0000
  Ir  Ir7       1.0  0.0017852649999999582  0.025105225000000026  0.4830891891668156  1.0000
  Ir  Ir8       1.0  0.502582725  0.713452875  0.5020470783069795  1.0000
  V   V1        1.0  0.8767852649999999  0.759480225  0.4685710790291927  1.0000
  V   V2        1.0  0.376785265  0.446980225  0.48792855921268996  1.0000
  V   V3        1.0  0.876872445  0.12917420500000004  0.5075671471748135  1.0000
  V   V4        1.0  0.36098792499999993  0.815816925  0.5246575009595974  1.0000
  V   V5        1.0  0.626785265  0.603230225  0.47824981912094133  1.0000
  V   V6        1.0  0.12981531499999996  0.290384905  0.4976114185762216  1.0000
  V   V7        1.0  0.6156427049999998  0.9748947750000001  0.5167128442062453  1.0000
  V   V8        1.0  0.12678526499999995  0.915730225  0.458892338937444  1.0000
  V   V9        1.0  0.251785265  0.587605225  0.4637317089833184  1.0000
  V   V10       1.0  0.751785265  0.275105225  0.4830891891668157  1.0000
  V   V11       1.0  0.256631935  0.9655211250000001  0.5016526379019731  1.0000
  V   V12       1.0  0.764924645  0.6639685750000001  0.5212379757590095  1.0000
  V   V13       1.0  0.251785265  0.775105225  0.48308918916681565  1.0000
  V   V14       1.0  0.751418755  0.4674716750000001  0.5022463922145392  1.0000
  V   V15       1.0  0.258698765  0.14302980500000004  0.523272450023492  1.0000
  V   V16       1.0  0.751785265  0.08760522500000004  0.4637317089833184  1.0000
  V   V17       1.0  0.8767852649999999  0.415730225  0.4588923389374441  1.0000
  V   V18       1.0  0.376785265  0.10323022500000004  0.4782498191209413  1.0000
  V   V19       1.0  0.8746839549999998  0.789511275  0.49706379701042885  1.0000
  V   V20       1.0  0.38992986499999993  0.48100290500000004  0.5168528529889165  1.0000
  V   V21       1.0  0.12678526499999995  0.25948022500000006  0.46857107902919276  1.0000
  V   V22       1.0  0.626785265  0.9469802250000001  0.48792855921268996  1.0000
  V   V23       1.0  0.12583917499999997  0.632936685  0.5069516598320959  1.0000
  V   V24       1.0  0.643442285  0.309602975  0.5247965341252673  1.0000
