data_image0
_chemical_formula_structural       COAl6Co12Si12
_chemical_formula_sum              "C1 O1 Al6 Co12 Si12"
_cell_length_a       8.277462057589295
_cell_length_b       6.1066102630258206
_cell_length_c       99.97631228
_cell_angle_alpha    93.79947285026942
_cell_angle_beta     90.804258577507
_cell_angle_gamma    88.02568982830827

_space_group_name_H-M_alt    "P 1"
_space_group_IT_number       1

loop_
  _space_group_symop_operation_xyz
  'x, y, z'

loop_
  _atom_site_type_symbol
  _atom_site_label
  _atom_site_symmetry_multiplicity
  _atom_site_fract_x
  _atom_site_fract_y
  _atom_site_fract_z
  _atom_site_occupancy
  C   C1        1.0  0.997000295  0.11590187  0.5377310450637853  1.0000
  O   O1        1.0  0.005888044999999956  0.15102742  0.5493859761359946  1.0000
  Al  Al1       1.0  0.05943368499999996  0.12586882000000005  0.49658462821368543  1.0000
  Al  Al2       1.0  0.7228037250000001  0.9477735800000001  0.5222754193466891  1.0000
  Al  Al3       1.0  0.4020056449999999  0.52448011  0.5109933050507945  1.0000
  Al  Al4       1.0  0.05987755499999995  0.8754967300000002  0.4591242134506873  1.0000
  Al  Al5       1.0  0.7265442249999999  0.70883006  0.4841103913406674  1.0000
  Al  Al6       1.0  0.393210895  0.29216339  0.47161730389484807  1.0000
  Co  Co1       1.0  0.11811135499999997  0.44134796  0.5105533494123566  1.0000
  Co  Co2       1.0  0.7848319650000001  0.024967030000000036  0.498739779091484  1.0000
  Co  Co3       1.0  0.445294085  0.87533545  0.5221805488243402  1.0000
  Co  Co4       1.0  0.667144925  0.6381774800000001  0.5066924480708175  1.0000
  Co  Co5       1.0  0.33702994499999994  0.22735929000000002  0.4944037005942974  1.0000
  Co  Co6       1.0  0.9854945549999998  0.08006397000000004  0.5201389871146672  1.0000
  Co  Co7       1.0  0.11675541499999995  0.19262715000000002  0.4737490437224744  1.0000
  Co  Co8       1.0  0.783422075  0.77596048  0.4612559532783136  1.0000
  Co  Co9       1.0  0.450088745  0.6092938099999999  0.4862421311682938  1.0000
  Co  Co10      1.0  0.669666375  0.3916996400000001  0.46948556106888023  1.0000
  Co  Co11      1.0  0.33633303499999995  0.9750329700000001  0.4569924736230609  1.0000
  Co  Co12      1.0  0.002999704999999908  0.8083663000000001  0.4819786515130411  1.0000
  Si  Si1       1.0  0.837377755  0.36267889000000003  0.5117717974275581  1.0000
  Si  Si2       1.0  0.498521205  0.9391594300000001  0.5005139936842758  1.0000
  Si  Si3       1.0  0.16614694499999996  0.52285863  0.48809329219814634  1.0000
  Si  Si4       1.0  0.9540859450000001  0.7333927300000002  0.5054911745555376  1.0000
  Si  Si5       1.0  0.620274835  0.31146815  0.49262058392569086  1.0000
  Si  Si6       1.0  0.270641715  0.13767846000000003  0.5169270767836022  1.0000
  Si  Si7       1.0  0.8328136150000001  0.10619197000000004  0.47560020175398554  1.0000
  Si  Si8       1.0  0.499480275  0.6895252999999999  0.4631071113098247  1.0000
  Si  Si9       1.0  0.16614694499999996  0.27285863  0.4506140238640053  1.0000
  Si  Si10      1.0  0.953608175  0.47813481999999996  0.46763440303736914  1.0000
  Si  Si11      1.0  0.620274835  0.061468150000000034  0.4551413155915498  1.0000
  Si  Si12      1.0  0.28694150499999993  0.89480148  0.48012749348153  1.0000
