data_image0
_chemical_formula_structural       V9Si18CO
_chemical_formula_sum              "V9 Si18 C1 O1"
_cell_length_a       4.582764195700426
_cell_length_b       11.177125474476007
_cell_length_c       101.47645495
_cell_angle_alpha    90.70501437411012
_cell_angle_beta     106.92902174331965
_cell_angle_gamma    65.7943629423123

_space_group_name_H-M_alt    "P 1"
_space_group_IT_number       1

loop_
  _space_group_symop_operation_xyz
  'x, y, z'

loop_
  _atom_site_type_symbol
  _atom_site_label
  _atom_site_symmetry_multiplicity
  _atom_site_fract_x
  _atom_site_fract_y
  _atom_site_fract_z
  _atom_site_occupancy
  V   V1        1.0  0.5814238549999998  0.7228587100000001  0.4696113817760417  1.0000
  V   V2        1.0  0.5711840549999999  0.06176464000000002  0.5201966432663886  1.0000
  V   V3        1.0  0.5814238549999998  0.38952538  0.49546011495134745  1.0000
  V   V4        1.0  0.585093055  0.78080575  0.5166381286758511  1.0000
  V   V5        1.0  0.5814238549999998  0.11174760000000003  0.4911519922384885  1.0000
  V   V6        1.0  0.5814238549999998  0.4450809300000001  0.4653032590631828  1.0000
  V   V7        1.0  0.08142385499999978  0.6673031600000001  0.49976823766420647  1.0000
  V   V8        1.0  0.08142385499999986  0.0006364900000000211  0.4739195013870526  1.0000
  V   V9        1.0  0.09974398499999985  0.32126178000000005  0.5249113841454983  1.0000
  Si  Si1       1.0  0.764212105  0.55269306  0.509803829847709  1.0000
  Si  Si2       1.0  0.7557284249999997  0.8882523900000001  0.4826344631287157  1.0000
  Si  Si3       1.0  0.7557284249999999  0.22158573  0.45678572995340994  1.0000
  Si  Si4       1.0  0.9168709949999996  0.8879425500000001  0.508276051785714  1.0000
  Si  Si5       1.0  0.918576145  0.22413170000000004  0.4824370335986735  1.0000
  Si  Si6       1.0  0.918576145  0.55746503  0.4565882973215197  1.0000
  Si  Si7       1.0  0.9185761449999997  0.49809052000000004  0.4870412990556717  1.0000
  Si  Si8       1.0  0.918576145  0.8314238600000001  0.46119256588036595  1.0000
  Si  Si9       1.0  0.898013855  0.16889662000000003  0.5129768777742244  1.0000
  Si  Si10      1.0  0.40711928499999994  0.77968725  0.49105327592254333  1.0000
  Si  Si11      1.0  0.4071192849999999  0.11302059000000002  0.4652045427472376  1.0000
  Si  Si12      1.0  0.43026168499999984  0.44606313999999997  0.5182347801731719  1.0000
  Si  Si13      1.0  0.2424061249999998  0.68668508  0.5257215558520721  1.0000
  Si  Si14      1.0  0.24427156499999975  0.99936351  0.49986695087830346  1.0000
  Si  Si15      1.0  0.24427156499999986  0.33269684000000005  0.4740182177029977  1.0000
  Si  Si16      1.0  0.24427156499999986  0.61429357  0.4780301945698694  1.0000
  Si  Si17      1.0  0.257468565  0.95310905  0.5292469675196319  1.0000
  Si  Si18      1.0  0.24795626499999984  0.28494640000000004  0.5038345496043353  1.0000
  C   C1        1.0  0.3143483149999999  0.13245440000000003  0.5340455947788963  1.0000
  O   O1        1.0  0.2850383349999998  0.055539530000000024  0.5434117026784804  1.0000
