data_image0
_chemical_formula_structural       COCu12Sn12
_chemical_formula_sum              "C1 O1 Cu12 Sn12"
_cell_length_a       8.959947560825793
_cell_length_b       6.672399251596214
_cell_length_c       98.20417754
_cell_angle_alpha    84.49342976115712
_cell_angle_beta     90.04053291205304
_cell_angle_gamma    89.82866751279353

_space_group_name_H-M_alt    "P 1"
_space_group_IT_number       1

loop_
  _space_group_symop_operation_xyz
  'x, y, z'

loop_
  _atom_site_type_symbol
  _atom_site_label
  _atom_site_symmetry_multiplicity
  _atom_site_fract_x
  _atom_site_fract_y
  _atom_site_fract_z
  _atom_site_occupancy
  C   C1        1.0  0.709385885  0.34967029999999993  0.5386064502556382  1.0000
  O   O1        1.0  0.686043805  0.37698745000000006  0.5499325220018462  1.0000
  Cu  Cu1       1.0  0.06944444499999997  0.5244262700000001  0.491095958052126  1.0000
  Cu  Cu2       1.0  0.735335795  0.29688109000000007  0.5203557203368552  1.0000
  Cu  Cu3       1.0  0.3957864849999999  0.8957293500000002  0.5052551510253472  1.0000
  Cu  Cu4       1.0  0.9090168649999999  0.97954198  0.5238925747866577  1.0000
  Cu  Cu5       1.0  0.565265175  0.5944637100000001  0.5110658605045206  1.0000
  Cu  Cu6       1.0  0.23935732499999995  0.21633193000000006  0.4971414731170596  1.0000
  Cu  Cu7       1.0  0.06944444499999997  0.3815691300000001  0.45006747799815383  1.0000
  Cu  Cu8       1.0  0.736111115  0.14347389000000008  0.4774197970768041  1.0000
  Cu  Cu9       1.0  0.40277777499999995  0.7625215100000002  0.46374363897347587  1.0000
  Cu  Cu10      1.0  0.9027777749999998  0.83395008  0.48425787900046197  1.0000
  Cu  Cu11      1.0  0.569444445  0.45299770000000006  0.47058171802514  1.0000
  Cu  Cu12      1.0  0.23611111499999993  0.07204532000000005  0.45690555704981806  1.0000
  Sn  Sn1       1.0  0.8850784749999999  0.64513298  0.5108985582577736  1.0000
  Sn  Sn2       1.0  0.545534125  0.25788569000000006  0.49839457564733486  1.0000
  Sn  Sn3       1.0  0.20675982499999998  0.046686190000000044  0.5234064295476297  1.0000
  Sn  Sn4       1.0  0.9256934349999998  0.17289544  0.4992507284457185  1.0000
  Sn  Sn5       1.0  0.6057740549999999  0.92024321  0.5251922466941498  1.0000
  Sn  Sn6       1.0  0.25336430499999996  0.52933532  0.5139845527826699  1.0000
  Sn  Sn7       1.0  0.875000005  0.504585  0.4694420391405272  1.0000
  Sn  Sn8       1.0  0.5416666649999999  0.12363262000000005  0.4557658781652053  1.0000
  Sn  Sn9       1.0  0.20833333499999995  0.88553738  0.4831181972438555  1.0000
  Sn  Sn10      1.0  0.930555555  0.02045802000000005  0.4580452388064245  1.0000
  Sn  Sn11      1.0  0.597222225  0.7823627800000001  0.48539755788507477  1.0000
  Sn  Sn12      1.0  0.26388888499999996  0.40141040000000006  0.4717213969097528  1.0000
