data_image0
_chemical_formula_structural       Co8Sb24CO
_chemical_formula_sum              "Co8 Sb24 C1 O1"
_cell_length_a       9.17854921
_cell_length_b       9.17854921
_cell_length_c       33.28580315
_cell_angle_alpha    90.0
_cell_angle_beta     90.0
_cell_angle_gamma    90.0

_space_group_name_H-M_alt    "P 1"
_space_group_IT_number       1

loop_
  _space_group_symop_operation_xyz
  'x, y, z'

loop_
  _atom_site_type_symbol
  _atom_site_label
  _atom_site_symmetry_multiplicity
  _atom_site_fract_x
  _atom_site_fract_y
  _atom_site_fract_z
  _atom_site_occupancy
  Co  Co1       1.0  0.3269610399999999  0.3246251949999999  0.5590100156153565  1.0000
  Co  Co2       1.0  0.83760935  0.3279501449999999  0.5590749270875203  1.0000
  Co  Co3       1.0  0.33207455999999996  0.8225479649999999  0.5639950291677648  1.0000
  Co  Co4       1.0  0.3340774799999999  0.3225409249999999  0.4234868954528152  1.0000
  Co  Co5       1.0  0.8340774799999999  0.8225409249999999  0.4234868954528152  1.0000
  Co  Co6       1.0  0.3340774799999999  0.8225409249999999  0.4234868954528152  1.0000
  Co  Co7       1.0  0.8340774799999999  0.3225409249999999  0.4234868954528152  1.0000
  Co  Co8       1.0  0.8361183899999999  0.816724685  0.559034667635796  1.0000
  Sb  Sb1       1.0  0.41741926999999995  0.23206107499999995  0.35454947811652954  1.0000
  Sb  Sb2       1.0  0.24359762999999995  0.07254092499999995  0.44646836924544414  1.0000
  Sb  Sb3       1.0  0.5859580299999999  0.9101681849999999  0.5397116860362235  1.0000
  Sb  Sb4       1.0  0.43083892999999995  0.565571405  0.5747364825175545  1.0000
  Sb  Sb5       1.0  0.07544266999999996  0.7255454249999999  0.5839247262198172  1.0000
  Sb  Sb6       1.0  0.4245573299999999  0.5725409249999999  0.4005054216601862  1.0000
  Sb  Sb7       1.0  0.58234102  0.23378673499999994  0.5421042666472503  1.0000
  Sb  Sb8       1.0  0.08304790999999997  0.40405460499999996  0.5863349217197219  1.0000
  Sb  Sb9       1.0  0.24022291999999998  0.07374159499999995  0.5381945885653939  1.0000
  Sb  Sb10      1.0  0.75073569  0.23206107499999995  0.35454947811652954  1.0000
  Sb  Sb11      1.0  0.9174192699999999  0.4130207749999999  0.4924243127891008  1.0000
  Sb  Sb12      1.0  0.25073568999999996  0.4130207749999999  0.4924243127891008  1.0000
  Sb  Sb13      1.0  0.9174192699999999  0.7320610749999998  0.4924243127891008  1.0000
  Sb  Sb14      1.0  0.73700355  0.5720358149999999  0.5773340002828387  1.0000
  Sb  Sb15      1.0  0.08407747999999997  0.40588271499999995  0.3985371094904139  1.0000
  Sb  Sb16      1.0  0.92455733  0.07254092499999995  0.44646836924544414  1.0000
  Sb  Sb17      1.0  0.5840774799999999  0.23919913499999998  0.4484366814152166  1.0000
  Sb  Sb18      1.0  0.9220695699999999  0.07259439499999995  0.5397197379265684  1.0000
  Sb  Sb19      1.0  0.08407747999999997  0.7391991349999999  0.3985371094904139  1.0000
  Sb  Sb20      1.0  0.5840774799999999  0.9058827149999998  0.4484366814152166  1.0000
  Sb  Sb21      1.0  0.7435976299999999  0.5725409249999999  0.4005054216601862  1.0000
  Sb  Sb22      1.0  0.25073568999999996  0.7320610749999998  0.4924243127891008  1.0000
  Sb  Sb23      1.0  0.41741926999999995  0.9130207749999999  0.35454947811652954  1.0000
  Sb  Sb24      1.0  0.75073569  0.9130207749999999  0.35454947811652954  1.0000
  C   C1        1.0  0.36704185999999994  0.885742265  0.6127617552709771  1.0000
  O   O1        1.0  0.39051871999999993  0.927459075  0.6454505218834705  1.0000
