data_image0
_chemical_formula_structural       COAl2Cu6Al2Cu6Al2Cu6Al2Cu6
_chemical_formula_sum              "C1 O1 Al8 Cu24"
_cell_length_a       8.59563488
_cell_length_b       4.57598914
_cell_length_c       101.51370514
_cell_angle_alpha    90.0
_cell_angle_beta     90.0
_cell_angle_gamma    90.0

_space_group_name_H-M_alt    "P 1"
_space_group_IT_number       1

loop_
  _space_group_symop_operation_xyz
  'x, y, z'

loop_
  _atom_site_type_symbol
  _atom_site_label
  _atom_site_symmetry_multiplicity
  _atom_site_fract_x
  _atom_site_fract_y
  _atom_site_fract_z
  _atom_site_occupancy
  C   C1        1.0  0.22343996  0.25170086499999994  0.5495835399058295  1.0000
  O   O1        1.0  0.19885819  0.217697475  0.5607410332393001  1.0000
  Al  Al1       1.0  0.0055047700000000034  0.6784291950000001  0.47811491554833396  1.0000
  Al  Al2       1.0  0.25550477  0.34529629500000003  0.4522450854453977  1.0000
  Cu  Cu1       1.0  0.0055047700000000034  0.679420605  0.4522450854453977  1.0000
  Cu  Cu2       1.0  0.25550477  0.344304885  0.47811491554833396  1.0000
  Cu  Cu3       1.0  0.0055047700000000034  0.17757477500000002  0.4393613771315388  1.0000
  Cu  Cu4       1.0  0.0055047700000000034  0.17757477500000002  0.465128796863636  1.0000
  Cu  Cu5       1.0  0.25550477  0.846150715  0.43925896676069975  1.0000
  Cu  Cu6       1.0  0.25550477  0.846150715  0.4652312041300957  1.0000
  Al  Al3       1.0  0.9991994999999999  0.649732925  0.5284025550811438  1.0000
  Al  Al4       1.0  0.25291824  0.334599075  0.5052087589731851  1.0000
  Cu  Cu7       1.0  0.0029812800000000037  0.671904165  0.5032729890725887  1.0000
  Cu  Cu8       1.0  0.24944826000000003  0.327383735  0.5315170919744248  1.0000
  Cu  Cu9       1.0  0.0055047700000000034  0.17757477500000002  0.4911010342330319  1.0000
  Cu  Cu10      1.0  0.0008005000000000034  0.153987575  0.5173198183071376  1.0000
  Cu  Cu11      1.0  0.25550477  0.846150715  0.4909986238621929  1.0000
  Cu  Cu12      1.0  0.2503251  0.832939285  0.5177952415892171  1.0000
  Al  Al5       1.0  0.5055047699999999  0.6784291950000001  0.47811491554833396  1.0000
  Al  Al6       1.0  0.7555047699999999  0.34529629500000003  0.4522450854453977  1.0000
  Cu  Cu13      1.0  0.5055047699999999  0.679420605  0.4522450854453977  1.0000
  Cu  Cu14      1.0  0.7555047699999999  0.344304885  0.47811491554833396  1.0000
  Cu  Cu15      1.0  0.5055047699999999  0.17757477500000002  0.4393613771315388  1.0000
  Cu  Cu16      1.0  0.5055047699999999  0.17757477500000002  0.465128796863636  1.0000
  Cu  Cu17      1.0  0.7555047699999999  0.846150715  0.43925896676069975  1.0000
  Cu  Cu18      1.0  0.7555047699999999  0.846150715  0.4652312041300957  1.0000
  Al  Al7       1.0  0.49959560999999997  0.649512925  0.5285838446272427  1.0000
  Al  Al8       1.0  0.75300457  0.336919335  0.5042524859538979  1.0000
  Cu  Cu19      1.0  0.5026372199999999  0.6717567750000001  0.5033249284437279  1.0000
  Cu  Cu20      1.0  0.7497936999999999  0.34182529500000003  0.5293220598312437  1.0000
  Cu  Cu21      1.0  0.5055047699999999  0.17757477500000002  0.4911010342330319  1.0000
  Cu  Cu22      1.0  0.49989356999999995  0.153849285  0.517504463687329  1.0000
  Cu  Cu23      1.0  0.7555047699999999  0.846150715  0.4909986238621929  1.0000
  Cu  Cu24      1.0  0.74995072  0.840046715  0.5176089260529277  1.0000
