data_image0
_chemical_formula_structural       Rh8Sn16CO
_chemical_formula_sum              "Rh8 Sn16 C1 O1"
_cell_length_a       5.45205830813844
_cell_length_b       8.737700901519501
_cell_length_c       38.59574636
_cell_angle_alpha    86.34042256182612
_cell_angle_beta     87.06821698343536
_cell_angle_gamma    95.2737191851129

_space_group_name_H-M_alt    "P 1"
_space_group_IT_number       1

loop_
  _space_group_symop_operation_xyz
  'x, y, z'

loop_
  _atom_site_type_symbol
  _atom_site_label
  _atom_site_symmetry_multiplicity
  _atom_site_fract_x
  _atom_site_fract_y
  _atom_site_fract_z
  _atom_site_occupancy
  Rh  Rh1       1.0  0.10800995999999995  0.12366734500000001  0.4989816577393268  1.0000
  Rh  Rh2       1.0  0.7746766299999999  0.623667345  0.43117571333354493  1.0000
  Rh  Rh3       1.0  0.44134328999999994  0.12366734500000001  0.36336976892776296  1.0000
  Rh  Rh4       1.0  0.43460146999999993  0.6339848250000001  0.5725657347490528  1.0000
  Rh  Rh5       1.0  0.7746766299999999  0.8736673450000001  0.5328846340105748  1.0000
  Rh  Rh6       1.0  0.44134328999999994  0.3736673450000001  0.46507868960479276  1.0000
  Rh  Rh7       1.0  0.10800995999999996  0.8736673450000001  0.3972727370622972  1.0000
  Rh  Rh8       1.0  0.12314346999999995  0.37538149500000006  0.5976683995473594  1.0000
  Sn  Sn1       1.0  0.26458093999999993  0.920476265  0.5535301860768314  1.0000
  Sn  Sn2       1.0  0.9413432899999999  0.417659875  0.4829764165130431  1.0000
  Sn  Sn3       1.0  0.60800996  0.9176598750000001  0.4151704721072614  1.0000
  Sn  Sn4       1.0  0.6207791099999999  0.37949935500000004  0.6157214400458406  1.0000
  Sn  Sn5       1.0  0.64718115  0.8762709250000001  0.6092396607185119  1.0000
  Sn  Sn6       1.0  0.39199005  0.32967481500000007  0.5388505456922295  1.0000
  Sn  Sn7       1.0  0.05865670999999995  0.8296748150000001  0.47104460128644743  1.0000
  Sn  Sn8       1.0  0.7253233799999999  0.32967481500000007  0.4032386487439519  1.0000
  Sn  Sn9       1.0  0.8400746199999999  0.163874855  0.5600412819834562  1.0000
  Sn  Sn10      1.0  0.49069654  0.6676598750000001  0.4930157541943857  1.0000
  Sn  Sn11      1.0  0.15736320999999995  0.167659875  0.42520980165189026  1.0000
  Sn  Sn12      1.0  0.82402987  0.6676598750000001  0.3574038572461081  1.0000
  Sn  Sn13      1.0  0.6080099599999998  0.07967481500000002  0.4810839308310762  1.0000
  Sn  Sn14      1.0  0.2746766299999999  0.579674815  0.4132779782885807  1.0000
  Sn  Sn15      1.0  0.18154078999999995  0.07952373500000003  0.6257155538726932  1.0000
  Sn  Sn16      1.0  0.9315666  0.5878281650000001  0.5503186007873927  1.0000
  C   C1        1.0  0.2190380399999999  0.586253515  0.6164928655939644  1.0000
  O   O1        1.0  0.15695627999999995  0.644032275  0.6425961427538917  1.0000
