data_image0
_chemical_formula_structural       COIn6Au20
_chemical_formula_sum              "C1 O1 In6 Au20"
_cell_length_a       10.851721532695256
_cell_length_b       4.93008817
_cell_length_c       113.40688614
_cell_angle_alpha    90.0
_cell_angle_beta     120.00000002226736
_cell_angle_gamma    90.0

_space_group_name_H-M_alt    "P 1"
_space_group_IT_number       1

loop_
  _space_group_symop_operation_xyz
  'x, y, z'

loop_
  _atom_site_type_symbol
  _atom_site_label
  _atom_site_symmetry_multiplicity
  _atom_site_fract_x
  _atom_site_fract_y
  _atom_site_fract_z
  _atom_site_occupancy
  C   C1        1.0  0.22855494999999998  0.23498751000000004  0.5442183672066015  1.0000
  O   O1        1.0  0.30108292  0.16228473000000002  0.5553795099362859  1.0000
  In  In1       1.0  0.39039465999999995  0.31435906  0.5219266982021988  1.0000
  In  In2       1.0  0.10447317  0.8193325000000001  0.48365450661973736  1.0000
  In  In3       1.0  0.25873817  0.8193325000000001  0.4474794675655076  1.0000
  In  In4       1.0  0.74126183  0.3193325000000001  0.4736576388916002  1.0000
  In  In5       1.0  0.8759234299999998  0.33731382000000004  0.5338298890304846  1.0000
  In  In6       1.0  0.63678866  0.8193325000000001  0.4984158749949362  1.0000
  Au  Au1       1.0  0.6666666699999999  0.3193325000000001  0.44462049006371396  1.0000
  Au  Au2       1.0  0.3333333299999999  0.8193325000000001  0.47651661639339377  1.0000
  Au  Au3       1.0  0.12874939000000002  0.30887172  0.5242249953661817  1.0000
  Au  Au4       1.0  0.17678548  0.80743483  0.5136736058045519  1.0000
  Au  Au5       1.0  0.9437027099999998  0.8108138  0.5205687384312251  1.0000
  Au  Au6       1.0  0.05075770000000002  0.3193325000000001  0.4962556906151755  1.0000
  Au  Au7       1.0  0.8221939299999999  0.3193325000000001  0.5035558224083523  1.0000
  Au  Au8       1.0  0.87295163  0.8193325000000001  0.49139877030045437  1.0000
  Au  Au9       1.0  0.43422746999999995  0.3193325000000001  0.45201794076975055  1.0000
  Au  Au10      1.0  0.41064106  0.8193325000000001  0.5061557982506086  1.0000
  Au  Au11      1.0  0.023586410000000013  0.8193325000000001  0.4542748852422154  1.0000
  Au  Au12      1.0  0.9764135899999999  0.3193325000000001  0.4668622212148923  1.0000
  Au  Au13      1.0  0.57922142  0.32265664000000005  0.5101316314189608  1.0000
  Au  Au14      1.0  0.5657725299999999  0.8193325000000001  0.4691191656873571  1.0000
  Au  Au15      1.0  0.20681422  0.3193325000000001  0.45924450350668256  1.0000
  Au  Au16      1.0  0.5139359999999998  0.8127272000000001  0.5343541159219775  1.0000
  Au  Au17      1.0  0.7352253499999999  0.8377152700000001  0.5287388996212528  1.0000
  Au  Au18      1.0  0.27934868  0.3193325000000001  0.48862302638156985  1.0000
  Au  Au19      1.0  0.5138371  0.3193325000000001  0.4816823192919287  1.0000
  Au  Au20      1.0  0.7931857799999998  0.8193325000000001  0.461892602950425  1.0000
