data_image0
_chemical_formula_structural       COSi6Pt12Si6Pt12
_chemical_formula_sum              "C1 O1 Si12 Pt24"
_cell_length_a       7.99567274
_cell_length_b       10.00324640258583
_cell_length_c       98.87680083000001
_cell_angle_alpha    86.69065948782514
_cell_angle_beta     90.0
_cell_angle_gamma    90.0

_space_group_name_H-M_alt    "P 1"
_space_group_IT_number       1

loop_
  _space_group_symop_operation_xyz
  'x, y, z'

loop_
  _atom_site_type_symbol
  _atom_site_label
  _atom_site_symmetry_multiplicity
  _atom_site_fract_x
  _atom_site_fract_y
  _atom_site_fract_z
  _atom_site_occupancy
  C   C1        1.0  0.2526272600000001  0.319049815  0.5310752934042703  1.0000
  O   O1        1.0  0.25262788999999997  0.36272470500000004  0.5419805664699578  1.0000
  Si  Si1       1.0  0.00262689  0.7074147850000001  0.4701881133491639  1.0000
  Si  Si2       1.0  0.0009146700000000063  0.03665142500000003  0.518076083731037  1.0000
  Si  Si3       1.0  0.0028449200000000003  0.377146075  0.4949082636046014  1.0000
  Si  Si4       1.0  0.2526270500000001  0.7111326950000001  0.5067283195362446  1.0000
  Si  Si5       1.0  0.25262689  0.04074811500000003  0.48235679316828556  1.0000
  Si  Si6       1.0  0.25262689  0.374081445  0.4580194335300422  1.0000
  Pt  Pt1       1.0  0.99908533  0.625569745  0.49442742653471805  1.0000
  Pt  Pt2       1.0  0.00262689  0.9574147849999999  0.4701881133491639  1.0000
  Pt  Pt3       1.0  0.06786713000000001  0.26578829500000006  0.5177336600288039  1.0000
  Pt  Pt4       1.0  0.25262689  0.7907481150000001  0.4823567931682856  1.0000
  Pt  Pt5       1.0  0.25262689  0.12408144500000001  0.4580194335300422  1.0000
  Pt  Pt6       1.0  0.25262722000000004  0.4716104450000001  0.5057496189810371  1.0000
  Pt  Pt7       1.0  0.25262707  0.9633485749999999  0.5065130741038573  1.0000
  Pt  Pt8       1.0  0.25262689  0.29074811500000003  0.4823567931682856  1.0000
  Pt  Pt9       1.0  0.25262689  0.624081445  0.4580194335300422  1.0000
  Pt  Pt10      1.0  0.0019490500000000003  0.795710505  0.516667575704059  1.0000
  Pt  Pt11      1.0  0.0007467699999998967  0.12666475500000005  0.4938814276498577  1.0000
  Pt  Pt12      1.0  0.00262689  0.45741478500000005  0.47018811334916394  1.0000
  Si  Si7       1.0  0.5026268899999999  0.7074147850000001  0.4701881133491639  1.0000
  Si  Si8       1.0  0.50433924  0.03665210500000003  0.5180760749695882  1.0000
  Si  Si9       1.0  0.5024088299999999  0.3771462750000001  0.49490821979735755  1.0000
  Si  Si10      1.0  0.7526268899999999  0.7010202649999999  0.5070768353658549  1.0000
  Si  Si11      1.0  0.7526268899999999  0.04074811500000003  0.48235679316828556  1.0000
  Si  Si12      1.0  0.7526268899999999  0.374081445  0.4580194335300422  1.0000
  Pt  Pt13      1.0  0.50616849  0.6255701350000001  0.4944274206937522  1.0000
  Pt  Pt14      1.0  0.5026268899999999  0.9574147849999999  0.4701881133491639  1.0000
  Pt  Pt15      1.0  0.43738776  0.2657888850000001  0.5177336133010773  1.0000
  Pt  Pt16      1.0  0.7526268899999999  0.7907481150000001  0.4823567931682856  1.0000
  Pt  Pt17      1.0  0.7526268899999999  0.12408144500000001  0.4580194335300422  1.0000
  Pt  Pt18      1.0  0.75262657  0.45218192500000004  0.5064258421994317  1.0000
  Pt  Pt19      1.0  0.7526269600000001  0.963018955  0.5067092575442065  1.0000
  Pt  Pt20      1.0  0.7526268899999999  0.29074811500000003  0.4823567931682856  1.0000
  Pt  Pt21      1.0  0.7526268899999999  0.624081445  0.4580194335300422  1.0000
  Pt  Pt22      1.0  0.5033049300000001  0.7957107550000001  0.5166675990679223  1.0000
  Pt  Pt23      1.0  0.5045072399999999  0.12666491500000002  0.4938814422522723  1.0000
  Pt  Pt24      1.0  0.5026268899999999  0.45741478500000005  0.47018811334916394  1.0000
