data_image0
_chemical_formula_structural       Sb16Rh8CO
_chemical_formula_sum              "Sb16 Rh8 C1 O1"
_cell_length_a       6.68566079
_cell_length_b       11.524888461192395
_cell_length_c       98.60212793
_cell_angle_alpha    89.25137766069277
_cell_angle_beta     90.0
_cell_angle_gamma    90.0

_space_group_name_H-M_alt    "P 1"
_space_group_IT_number       1

loop_
  _space_group_symop_operation_xyz
  'x, y, z'

loop_
  _atom_site_type_symbol
  _atom_site_label
  _atom_site_symmetry_multiplicity
  _atom_site_fract_x
  _atom_site_fract_y
  _atom_site_fract_z
  _atom_site_occupancy
  Sb  Sb1       1.0  0.63854418  0.9242293250000002  0.46201933604515694  1.0000
  Sb  Sb2       1.0  0.64570018  0.42564529500000003  0.49903868901270904  1.0000
  Sb  Sb3       1.0  0.13854418  0.843578225  0.4786946955429678  1.0000
  Sb  Sb4       1.0  0.15100553  0.355132745  0.516072414416298  1.0000
  Sb  Sb5       1.0  0.35836316000000007  0.08570121500000003  0.49670997199882616  1.0000
  Sb  Sb6       1.0  0.36145582  0.593578225  0.4605649347238698  1.0000
  Sb  Sb7       1.0  0.8614558200000001  0.17422932500000002  0.48014909686425483  1.0000
  Sb  Sb8       1.0  0.8385748100000001  0.6560785050000001  0.5184512652951787  1.0000
  Sb  Sb9       1.0  0.36322895000000005  0.12010417500000004  0.46215632161714426  1.0000
  Sb  Sb10      1.0  0.36711884  0.6195196850000001  0.49788592630078754  1.0000
  Sb  Sb11      1.0  0.86322895  0.6477033750000001  0.47855770997098046  1.0000
  Sb  Sb12      1.0  0.8774133200000002  0.16728840500000003  0.5110464937250746  1.0000
  Sb  Sb13      1.0  0.63889442  0.887573715  0.4970724250778833  1.0000
  Sb  Sb14      1.0  0.6367710500000001  0.397703375  0.46042794915188245  1.0000
  Sb  Sb15      1.0  0.13677105000000003  0.37010417500000004  0.48028608243624216  1.0000
  Sb  Sb16      1.0  0.12978382000000002  0.836784485  0.515406869446248  1.0000
  Rh  Rh1       1.0  0.0005261500000000006  0.016799885000000025  0.46342413144008127  1.0000
  Rh  Rh2       1.0  0.0060240100000000015  0.5203759250000001  0.4994393509252876  1.0000
  Rh  Rh3       1.0  0.50052615  0.7510076650000002  0.4772899001480435  1.0000
  Rh  Rh4       1.0  0.49834674000000007  0.24509165500000002  0.5120176861572024  1.0000
  Rh  Rh5       1.0  0.0039178500000000005  0.983200115  0.4973420508807849  1.0000
  Rh  Rh6       1.0  0.9994738500000001  0.501007665  0.4591601393289455  1.0000
  Rh  Rh7       1.0  0.49947385000000005  0.26679988500000007  0.4815538922591791  1.0000
  Rh  Rh8       1.0  0.49487747000000004  0.7593593350000002  0.5162463266851217  1.0000
  C   C1        1.0  0.47602773000000004  0.18827423500000004  0.5297576165080256  1.0000
  O   O1        1.0  0.46259705000000007  0.15087471500000002  0.5408398606710545  1.0000
