data_image0
_chemical_formula_structural       COAl2Ni4Al2Ni4Al2Ni4Al2Ni4Al2Ni4Al2Ni4Al2Ni4Al2Ni4
_chemical_formula_sum              "C1 O1 Al16 Ni32"
_cell_length_a       8.122481844141532
_cell_length_b       8.12248184
_cell_length_c       100.03382686
_cell_angle_alpha    90.0
_cell_angle_beta     90.0
_cell_angle_gamma    119.99999998313312

_space_group_name_H-M_alt    "P 1"
_space_group_IT_number       1

loop_
  _space_group_symop_operation_xyz
  'x, y, z'

loop_
  _atom_site_type_symbol
  _atom_site_label
  _atom_site_symmetry_multiplicity
  _atom_site_fract_x
  _atom_site_fract_y
  _atom_site_fract_z
  _atom_site_occupancy
  C   C1        1.0  0.0005314049999999665  0.24563081499999997  0.5476164265013626  1.0000
  O   O1        1.0  0.002063784999999968  0.24651338499999997  0.559379037195685  1.0000
  Al  Al1       1.0  0.49914689500000003  0.24496070499999997  0.5001966925732952  1.0000
  Al  Al2       1.0  0.170323075  0.07405019499999999  0.5293591944187981  1.0000
  Ni  Ni1       1.0  0.502475835  0.250819615  0.5237566483466829  1.0000
  Ni  Ni2       1.0  0.16730587499999997  0.07715569499999997  0.5054464455017349  1.0000
  Ni  Ni3       1.0  0.31860043499999996  0.404501525  0.5168294639238301  1.0000
  Ni  Ni4       1.0  0.33248023499999996  0.411627365  0.4906604151299596  1.0000
  Al  Al3       1.0  0.49914689500000003  0.24496070499999997  0.4501572402476506  1.0000
  Al  Al4       1.0  0.16581356499999997  0.07829403499999997  0.481124137686624  1.0000
  Ni  Ni5       1.0  0.49914689500000003  0.24496070499999997  0.47498100041001096  1.0000
  Ni  Ni6       1.0  0.16581356499999997  0.07829403499999997  0.45630037752426367  1.0000
  Ni  Ni7       1.0  0.33248023499999996  0.411627365  0.4656406904683209  1.0000
  Ni  Ni8       1.0  0.33248023499999996  0.411627365  0.44062096280431506  1.0000
  Al  Al5       1.0  0.49914689500000003  0.744960705  0.5001966925732952  1.0000
  Al  Al6       1.0  0.170570215  0.586526635  0.5293587590755716  1.0000
  Ni  Ni9       1.0  0.502808705  0.741758135  0.5237567864555684  1.0000
  Ni  Ni10      1.0  0.16715190499999996  0.580811125  0.5054445299915381  1.0000
  Ni  Ni11      1.0  0.332771905  0.911501625  0.5168323852269985  1.0000
  Ni  Ni12      1.0  0.33248023499999996  0.911627365  0.4906604151299596  1.0000
  Al  Al7       1.0  0.49914689500000003  0.744960705  0.4501572402476506  1.0000
  Al  Al8       1.0  0.16581356499999997  0.578294035  0.481124137686624  1.0000
  Ni  Ni13      1.0  0.49914689500000003  0.744960705  0.47498100041001096  1.0000
  Ni  Ni14      1.0  0.16581356499999997  0.578294035  0.45630037752426367  1.0000
  Ni  Ni15      1.0  0.33248023499999996  0.911627365  0.4656406904683209  1.0000
  Ni  Ni16      1.0  0.33248023499999996  0.911627365  0.44062096280431506  1.0000
  Al  Al9       1.0  0.999146895  0.24496070500000008  0.5001966925732952  1.0000
  Al  Al10      1.0  0.658173425  0.07411921499999999  0.5293583387441804  1.0000
  Ni  Ni17      1.0  0.9994685950000001  0.244854405  0.5301075224038929  1.0000
  Ni  Ni18      1.0  0.663497145  0.07720900500000002  0.5054495739682316  1.0000
  Ni  Ni19      1.0  0.840047175  0.40458378500000003  0.5168628742646907  1.0000
  Ni  Ni20      1.0  0.8324802350000001  0.4116273650000001  0.4906604151299596  1.0000
  Al  Al11      1.0  0.999146895  0.24496070500000008  0.4501572402476506  1.0000
  Al  Al12      1.0  0.6658135649999999  0.078294035  0.481124137686624  1.0000
  Ni  Ni21      1.0  0.999146895  0.24496070500000008  0.47498100041001096  1.0000
  Ni  Ni22      1.0  0.6658135649999999  0.078294035  0.45630037752426367  1.0000
  Ni  Ni23      1.0  0.8324802350000001  0.4116273650000001  0.4656406904683209  1.0000
  Ni  Ni24      1.0  0.8324802350000001  0.4116273650000001  0.44062096280431506  1.0000
  Al  Al13      1.0  0.999146895  0.744960705  0.5001966925732952  1.0000
  Al  Al14      1.0  0.666502765  0.577996905  0.530087205385866  1.0000
  Ni  Ni25      1.0  0.993760805  0.7419717750000001  0.5237540903299311  1.0000
  Ni  Ni26      1.0  0.666007085  0.578337535  0.506231948796008  1.0000
  Ni  Ni27      1.0  0.840112465  0.925949805  0.5168556025316242  1.0000
  Ni  Ni28      1.0  0.8324802350000001  0.9116273650000001  0.4906604151299596  1.0000
  Al  Al15      1.0  0.999146895  0.744960705  0.4501572402476506  1.0000
  Al  Al16      1.0  0.6658135649999999  0.578294035  0.481124137686624  1.0000
  Ni  Ni29      1.0  0.999146895  0.744960705  0.47498100041001096  1.0000
  Ni  Ni30      1.0  0.6658135649999999  0.578294035  0.45630037752426367  1.0000
  Ni  Ni31      1.0  0.8324802350000001  0.9116273650000001  0.4656406904683209  1.0000
  Ni  Ni32      1.0  0.8324802350000001  0.9116273650000001  0.44062096280431506  1.0000
