data_image0
_chemical_formula_structural       Au8V24CO
_chemical_formula_sum              "Au8 V24 C1 O1"
_cell_length_a       6.90726013
_cell_length_b       8.45963142208917
_cell_length_c       102.02764766
_cell_angle_alpha    95.05115256013818
_cell_angle_beta     90.0
_cell_angle_gamma    90.0

_space_group_name_H-M_alt    "P 1"
_space_group_IT_number       1

loop_
  _space_group_symop_operation_xyz
  'x, y, z'

loop_
  _atom_site_type_symbol
  _atom_site_label
  _atom_site_symmetry_multiplicity
  _atom_site_fract_x
  _atom_site_fract_y
  _atom_site_fract_z
  _atom_site_occupancy
  Au  Au1       1.0  0.007489315000000003  0.5276244500000001  0.49163342149372213  1.0000
  Au  Au2       1.0  0.5267259849999999  0.21701254000000003  0.5113713013153875  1.0000
  Au  Au3       1.0  0.0056710149999998904  0.90972587  0.5315240245464901  1.0000
  Au  Au4       1.0  0.5074893149999999  0.84012445  0.47201395535234236  1.0000
  Au  Au5       1.0  0.994328985  0.3817323  0.5317457339312314  1.0000
  Au  Au6       1.0  0.5074893149999999  0.34012445  0.47201395535234236  1.0000
  Au  Au7       1.0  0.007489315000000003  0.027624450000000012  0.4916334214937221  1.0000
  Au  Au8       1.0  0.4896808349999999  0.7107123000000001  0.5112596869572879  1.0000
  V   V1        1.0  0.8824893149999999  0.76199945  0.47691882188768725  1.0000
  V   V2        1.0  0.38248931499999994  0.44949945  0.49653828802906713  1.0000
  V   V3        1.0  0.893130765  0.13813437000000003  0.5154977992770551  1.0000
  V   V4        1.0  0.38248931499999994  0.07449945000000001  0.4572993557463075  1.0000
  V   V5        1.0  0.6324893149999999  0.60574945  0.48672855495837714  1.0000
  V   V6        1.0  0.137824165  0.28953263999999995  0.5064217745968757  1.0000
  V   V7        1.0  0.6497610749999999  0.96640631  0.5225153589870246  1.0000
  V   V8        1.0  0.132489315  0.9182494500000001  0.46710908881699736  1.0000
  V   V9        1.0  0.257489315  0.59012445  0.47201395535234236  1.0000
  V   V10       1.0  0.7574893149999999  0.27762445  0.49163342149372213  1.0000
  V   V11       1.0  0.258826315  0.97237555  0.5115132520768138  1.0000
  V   V12       1.0  0.774916395  0.6416579900000001  0.528238944274892  1.0000
  V   V13       1.0  0.257489315  0.77762445  0.49163342149372213  1.0000
  V   V14       1.0  0.758104155  0.47234082000000005  0.5116684499017785  1.0000
  V   V15       1.0  0.258264065  0.14500691  0.5277264022023  1.0000
  V   V16       1.0  0.7574893149999999  0.09012445000000001  0.47201395535234236  1.0000
  V   V17       1.0  0.8824893149999999  0.41824945  0.46710908881699736  1.0000
  V   V18       1.0  0.38248931499999994  0.10574945000000001  0.48672855495837725  1.0000
  V   V19       1.0  0.868541045  0.7962851400000002  0.5065142309386775  1.0000
  V   V20       1.0  0.406638865  0.46978379000000003  0.5256115932644467  1.0000
  V   V21       1.0  0.132489315  0.26199945  0.4769188218876873  1.0000
  V   V22       1.0  0.6324893149999999  0.9494994499999999  0.49653828802906713  1.0000
  V   V23       1.0  0.11958224499999999  0.6264095900000002  0.5171636991340206  1.0000
  V   V24       1.0  0.6324893149999999  0.57449945  0.4572993557463075  1.0000
  C   C1        1.0  0.238436795  0.6579447  0.5341705555470351  1.0000
  O   O1        1.0  0.362341105  0.6282844600000002  0.5427006442536926  1.0000
