data_image0
_chemical_formula_structural       COCu6Si2Cu6Si2Cu6Si2Cu6Si2
_chemical_formula_sum              "C1 O1 Cu24 Si8"
_cell_length_a       5.235018244230619
_cell_length_b       8.40359024
_cell_length_c       106.64512771
_cell_angle_alpha    90.0
_cell_angle_beta     119.999999973267
_cell_angle_gamma    90.0

_space_group_name_H-M_alt    "P 1"
_space_group_IT_number       1

loop_
  _space_group_symop_operation_xyz
  'x, y, z'

loop_
  _atom_site_type_symbol
  _atom_site_label
  _atom_site_symmetry_multiplicity
  _atom_site_fract_x
  _atom_site_fract_y
  _atom_site_fract_z
  _atom_site_occupancy
  C   C1        1.0  0.8140641599999999  0.37606563  0.5458897988468101  1.0000
  O   O1        1.0  0.89306762  0.37606576  0.5581851084265503  1.0000
  Cu  Cu1       1.0  0.29457594  0.12606569  0.4418148915734495  1.0000
  Cu  Cu2       1.0  0.7914167099999999  0.12606569  0.4662039138063958  1.0000
  Cu  Cu3       1.0  0.7914167099999999  0.12606569  0.44181489157344944  1.0000
  Cu  Cu4       1.0  0.62369696  0.37606569  0.4744369777956421  1.0000
  Cu  Cu5       1.0  0.12685618999999998  0.37606569  0.45004795212652116  1.0000
  Cu  Cu6       1.0  0.12685618999999998  0.37606569  0.4744369777956421  1.0000
  Si  Si1       1.0  0.6258031199999999  0.37606569  0.44994456450570675  1.0000
  Si  Si2       1.0  0.29246977999999996  0.12606569  0.4663073014272103  1.0000
  Cu  Cu7       1.0  0.29457594  0.12606569  0.49090309890178546  1.0000
  Cu  Cu8       1.0  0.7908275699999999  0.12688921000000003  0.5157148874382176  1.0000
  Cu  Cu9       1.0  0.7914167099999999  0.12606569  0.4909030989017854  1.0000
  Cu  Cu10      1.0  0.6334576799999998  0.37606551000000005  0.5254677302108578  1.0000
  Cu  Cu11      1.0  0.13938111999999997  0.37606572  0.4991360598057943  1.0000
  Cu  Cu12      1.0  0.10693237999999995  0.37606595000000004  0.521701789390719  1.0000
  Si  Si3       1.0  0.62582816  0.37606551000000005  0.49958618836747415  1.0000
  Si  Si4       1.0  0.30296422999999995  0.12393413000000002  0.5167714836326958  1.0000
  Cu  Cu13      1.0  0.29457594  0.62606569  0.4418148915734495  1.0000
  Cu  Cu14      1.0  0.7914167099999999  0.62606569  0.4662039138063958  1.0000
  Cu  Cu15      1.0  0.7914167099999999  0.62606569  0.44181489157344944  1.0000
  Cu  Cu16      1.0  0.62369696  0.87606569  0.4744369777956421  1.0000
  Cu  Cu17      1.0  0.12685618999999998  0.87606569  0.45004795212652116  1.0000
  Cu  Cu18      1.0  0.12685618999999998  0.87606569  0.4744369777956421  1.0000
  Si  Si5       1.0  0.6258031199999999  0.87606569  0.44994456450570675  1.0000
  Si  Si6       1.0  0.29246977999999996  0.62606569  0.4663073014272103  1.0000
  Cu  Cu19      1.0  0.29457594  0.62606569  0.49090309890178546  1.0000
  Cu  Cu20      1.0  0.7908258899999998  0.6252423500000001  0.5157146194166002  1.0000
  Cu  Cu21      1.0  0.7914167099999999  0.62606569  0.4909030989017854  1.0000
  Cu  Cu22      1.0  0.6033012599999998  0.87606568  0.5219495788121551  1.0000
  Cu  Cu23      1.0  0.11576527999999997  0.87606569  0.4981160313812145  1.0000
  Cu  Cu24      1.0  0.11166146999999998  0.8760657000000001  0.5219224124159121  1.0000
  Si  Si7       1.0  0.6246086499999999  0.87606587  0.49896929881716945  1.0000
  Si  Si8       1.0  0.30296471999999997  0.6281973  0.5167715076859178  1.0000
