data_image0
_chemical_formula_structural       Ni6Sn8CO
_chemical_formula_sum              "Ni6 Sn8 C1 O1"
_cell_length_a       5.321216148703585
_cell_length_b       6.534834546054679
_cell_length_c       101.37854471
_cell_angle_alpha    92.35474955933621
_cell_angle_beta     93.78620029433146
_cell_angle_gamma    104.39494921564601

_space_group_name_H-M_alt    "P 1"
_space_group_IT_number       1

loop_
  _space_group_symop_operation_xyz
  'x, y, z'

loop_
  _atom_site_type_symbol
  _atom_site_label
  _atom_site_symmetry_multiplicity
  _atom_site_fract_x
  _atom_site_fract_y
  _atom_site_fract_z
  _atom_site_occupancy
  Ni  Ni1       1.0  0.56092571  0.176425535  0.5161664270395494  1.0000
  Ni  Ni2       1.0  0.8592772900000001  0.534384545  0.5043338282949943  1.0000
  Ni  Ni3       1.0  0.25011524000000007  0.8206603349999999  0.5214001264834143  1.0000
  Ni  Ni4       1.0  0.43341650000000004  0.9117783349999999  0.4744087100799383  1.0000
  Ni  Ni5       1.0  0.7429333600000001  0.28954082500000006  0.4660569574534459  1.0000
  Ni  Ni6       1.0  0.12389964000000006  0.534015845  0.4827604627064306  1.0000
  Sn  Sn1       1.0  0.19232516  0.911253115  0.49652879383857484  1.0000
  Sn  Sn2       1.0  0.9326748400000001  0.47331345500000005  0.5307344242230635  1.0000
  Sn  Sn3       1.0  0.34262731000000013  0.4685891150000001  0.5079220556991801  1.0000
  Sn  Sn4       1.0  0.7742575700000001  0.8682436750000001  0.5192778720001763  1.0000
  Sn  Sn5       1.0  0.06732516000000004  0.6612531150000001  0.4578389694781044  1.0000
  Sn  Sn6       1.0  0.7995078400000001  0.162303555  0.49097845068177215  1.0000
  Sn  Sn7       1.0  0.2241544200000001  0.21247770500000002  0.4677607056541695  1.0000
  Sn  Sn8       1.0  0.6426785800000001  0.611078965  0.4810567145057071  1.0000
  C   C1        1.0  0.3755354400000001  0.088221665  0.5312282054278534  1.0000
  O   O1        1.0  0.34997440000000013  0.15094753500000002  0.5421610305218956  1.0000
