data_image0
_chemical_formula_structural       COFe5Co5Fe5Co5Fe5Co5Fe5Co5
_chemical_formula_sum              "C1 O1 Fe20 Co20"
_cell_length_a       7.86176804
_cell_length_b       6.215273362329117
_cell_length_c       103.70031035
_cell_angle_alpha    75.03678258223202
_cell_angle_beta     90.0
_cell_angle_gamma    71.5650511824545

_space_group_name_H-M_alt    "P 1"
_space_group_IT_number       1

loop_
  _space_group_symop_operation_xyz
  'x, y, z'

loop_
  _atom_site_type_symbol
  _atom_site_label
  _atom_site_symmetry_multiplicity
  _atom_site_fract_x
  _atom_site_fract_y
  _atom_site_fract_z
  _atom_site_occupancy
  C   C1        1.0  0.5457382200000002  0.10131631  0.5468474005411154  1.0000
  O   O1        1.0  0.5427759000000001  0.08809178  0.5583128585167149  1.0000
  Fe  Fe1       1.0  0.4125914700000002  0.49724630999999997  0.4463296849428785  1.0000
  Fe  Fe2       1.0  0.3125914700000001  0.8972463099999999  0.4556147686122862  1.0000
  Fe  Fe3       1.0  0.012591470000000039  0.09724630999999999  0.4834700163707303  1.0000
  Fe  Fe4       1.0  0.2125914700000001  0.29724630999999996  0.46489985228169395  1.0000
  Fe  Fe5       1.0  0.11259147000000004  0.69724631  0.47418493270132256  1.0000
  Co  Co1       1.0  0.4125914700000002  0.49724630999999997  0.4695423924915083  1.0000
  Co  Co2       1.0  0.3125914700000001  0.8972463099999999  0.47882747616091603  1.0000
  Co  Co3       1.0  0.012591470000000039  0.09724630999999999  0.4602573088221005  1.0000
  Co  Co4       1.0  0.2125914700000001  0.29724630999999996  0.441687141483285  1.0000
  Co  Co5       1.0  0.11259147000000004  0.69724631  0.45097222515269275  1.0000
  Fe  Fe6       1.0  0.4125914700000002  0.49724630999999997  0.4927551000401381  1.0000
  Fe  Fe7       1.0  0.3217893100000001  0.9221630699999999  0.5024654530552042  1.0000
  Fe  Fe8       1.0  0.06919550000000005  0.11656225999999999  0.5256004648845899  1.0000
  Fe  Fe9       1.0  0.25537908000000004  0.2656904  0.5113887355652025  1.0000
  Fe  Fe10      1.0  0.17306610000000006  0.7554091599999999  0.5207065575094832  1.0000
  Co  Co6       1.0  0.44871339000000016  0.5066114199999998  0.5149399739476821  1.0000
  Co  Co7       1.0  0.4191101700000002  0.87234985  0.5245886721532493  1.0000
  Co  Co8       1.0  0.99696536  0.07783693  0.5049762779016176  1.0000
  Co  Co9       1.0  0.2125914700000001  0.29724630999999996  0.48811255983032376  1.0000
  Co  Co10      1.0  0.11259147000000004  0.69724631  0.49739764349973153  1.0000
  Fe  Fe11      1.0  0.91259147  0.49724630999999997  0.4463296849428785  1.0000
  Fe  Fe12      1.0  0.8125914700000003  0.8972463099999999  0.4556147686122862  1.0000
  Fe  Fe13      1.0  0.51259147  0.09724630999999999  0.4834700163707303  1.0000
  Fe  Fe14      1.0  0.7125914700000001  0.29724630999999996  0.46489985228169395  1.0000
  Fe  Fe15      1.0  0.61259147  0.69724631  0.47418493270132256  1.0000
  Co  Co11      1.0  0.91259147  0.49724630999999997  0.4695423924915083  1.0000
  Co  Co12      1.0  0.8125914700000003  0.8972463099999999  0.47882747616091603  1.0000
  Co  Co13      1.0  0.51259147  0.09724630999999999  0.4602573088221005  1.0000
  Co  Co14      1.0  0.7125914700000001  0.29724630999999996  0.441687141483285  1.0000
  Co  Co15      1.0  0.61259147  0.69724631  0.45097222515269275  1.0000
  Fe  Fe16      1.0  0.91259147  0.49724630999999997  0.4927551000401381  1.0000
  Fe  Fe17      1.0  0.8192050000000001  0.85236167  0.5016640802722213  1.0000
  Fe  Fe18      1.0  0.5457863100000002  0.13538598999999998  0.5292533336095457  1.0000
  Fe  Fe19      1.0  0.76895585  0.32582695999999994  0.5135994010625885  1.0000
  Fe  Fe20      1.0  0.6905549000000002  0.65939375  0.5197736661654409  1.0000
  Co  Co16      1.0  0.0030346400000000884  0.5307797  0.5176914351887276  1.0000
  Co  Co17      1.0  0.84152424  0.9193711299999998  0.5230575842169192  1.0000
  Co  Co18      1.0  0.5658879700000001  0.11301243999999999  0.5070731881306241  1.0000
  Co  Co19      1.0  0.7125914700000001  0.29724630999999996  0.48811255983032376  1.0000
  Co  Co20      1.0  0.61259147  0.69724631  0.49739764349973153  1.0000
