data_image0
_chemical_formula_structural       COSn6Au6Sn6Au6Sn6Au6Sn6Au6
_chemical_formula_sum              "C1 O1 Sn24 Au24"
_cell_length_a       10.5769430904056
_cell_length_b       8.90486381120702
_cell_length_c       106.1936719
_cell_angle_alpha    72.08882857770236
_cell_angle_beta     84.69929208898337
_cell_angle_gamma    65.10501612335672

_space_group_name_H-M_alt    "P 1"
_space_group_IT_number       1

loop_
  _space_group_symop_operation_xyz
  'x, y, z'

loop_
  _atom_site_type_symbol
  _atom_site_label
  _atom_site_symmetry_multiplicity
  _atom_site_fract_x
  _atom_site_fract_y
  _atom_site_fract_z
  _atom_site_occupancy
  C   C1        1.0  0.01839774000000003  0.02508759000000003  0.5652520829944249  1.0000
  O   O1        1.0  0.09149453000000003  0.9562377599999999  0.5748058390539333  1.0000
  Sn  Sn1       1.0  0.78030194  0.16746395000000014  0.5557710935020045  1.0000
  Sn  Sn2       1.0  0.17604671000000005  0.12779782  0.5122943988921729  1.0000
  Sn  Sn3       1.0  0.50020571  0.12996013  0.5347046747225428  1.0000
  Sn  Sn4       1.0  0.7871578200000001  0.29446448000000003  0.5198683317375029  1.0000
  Sn  Sn5       1.0  0.11288804000000004  0.30880508000000007  0.5420606759597816  1.0000
  Sn  Sn6       1.0  0.4538244800000001  0.29446448  0.49714653320151264  1.0000
  Au  Au1       1.0  0.98160226  0.46113115  0.5160813653148378  1.0000
  Au  Au2       1.0  0.30103029000000003  0.46681546999999995  0.5391304975215409  1.0000
  Au  Au3       1.0  0.64826893  0.46113115  0.49335956337057746  1.0000
  Au  Au4       1.0  0.79498261  0.4686052700000001  0.5393361252744946  1.0000
  Au  Au5       1.0  0.14826893000000005  0.46113115  0.49335956337057746  1.0000
  Au  Au6       1.0  0.48160226000000006  0.46113115000000005  0.516081365314838  1.0000
  Sn  Sn7       1.0  0.8427133700000002  0.12779782  0.4895725969479124  1.0000
  Sn  Sn8       1.0  0.17604671000000005  0.12779782  0.4441289964676617  1.0000
  Sn  Sn9       1.0  0.50938004  0.12779782000000006  0.46685079841192206  1.0000
  Sn  Sn10      1.0  0.7871578200000001  0.29446448000000003  0.4517029293129918  1.0000
  Sn  Sn11      1.0  0.12049115000000005  0.29446448000000003  0.47442473125725226  1.0000
  Sn  Sn12      1.0  0.4538244800000001  0.29446448  0.42898113077700156  1.0000
  Au  Au7       1.0  0.98160226  0.46113115  0.44791596289032676  1.0000
  Au  Au8       1.0  0.31493560000000004  0.4611311500000001  0.47063776483458714  1.0000
  Au  Au9       1.0  0.64826893  0.46113115  0.4251941609460663  1.0000
  Au  Au10      1.0  0.8149356000000001  0.46113115  0.4706377648345872  1.0000
  Au  Au11      1.0  0.14826893000000005  0.46113115  0.4251941609460663  1.0000
  Au  Au12      1.0  0.48160226000000006  0.46113115000000005  0.4479159628903268  1.0000
  Sn  Sn13      1.0  0.88560702  0.6157320200000002  0.5545307899221893  1.0000
  Sn  Sn14      1.0  0.17604671000000005  0.6277978200000001  0.5122943988921728  1.0000
  Sn  Sn15      1.0  0.49769888000000007  0.63622908  0.5348241107324009  1.0000
  Sn  Sn16      1.0  0.7871578200000001  0.79446448  0.5198683317375028  1.0000
  Sn  Sn17      1.0  0.11364692000000004  0.7922775799999999  0.5419998281133073  1.0000
  Sn  Sn18      1.0  0.4538244800000001  0.79446448  0.4971465332015127  1.0000
  Au  Au13      1.0  0.98160226  0.96113115  0.5160813653148378  1.0000
  Au  Au14      1.0  0.2861472200000001  0.97491241  0.539111724769713  1.0000
  Au  Au15      1.0  0.64826893  0.96113115  0.4933595633705774  1.0000
  Au  Au16      1.0  0.79865003  0.9683921300000002  0.5395701609589088  1.0000
  Au  Au17      1.0  0.14826893000000005  0.96113115  0.49335956337057746  1.0000
  Au  Au18      1.0  0.48160226000000006  0.96113115  0.516081365314838  1.0000
  Sn  Sn19      1.0  0.8427133700000002  0.6277978200000001  0.48957259694791233  1.0000
  Sn  Sn20      1.0  0.17604671000000005  0.6277978200000001  0.44412899646766163  1.0000
  Sn  Sn21      1.0  0.50938004  0.6277978200000001  0.46685079841192206  1.0000
  Sn  Sn22      1.0  0.7871578200000001  0.79446448  0.4517029293129917  1.0000
  Sn  Sn23      1.0  0.12049115000000005  0.79446448  0.4744247312572522  1.0000
  Sn  Sn24      1.0  0.4538244800000001  0.79446448  0.42898113077700145  1.0000
  Au  Au19      1.0  0.98160226  0.96113115  0.44791596289032676  1.0000
  Au  Au20      1.0  0.31493560000000004  0.96113115  0.47063776483458714  1.0000
  Au  Au21      1.0  0.64826893  0.96113115  0.42519416094606627  1.0000
  Au  Au22      1.0  0.8149356000000001  0.96113115  0.47063776483458714  1.0000
  Au  Au23      1.0  0.14826893000000005  0.96113115  0.4251941609460663  1.0000
  Au  Au24      1.0  0.48160226000000006  0.96113115  0.44791596289032676  1.0000
