data_image0
_chemical_formula_structural       COCu6Ga6Rh12
_chemical_formula_sum              "C1 O1 Cu6 Ga6 Rh12"
_cell_length_a       7.39472215735326
_cell_length_b       6.03776536
_cell_length_c       102.51436153
_cell_angle_alpha    90.0
_cell_angle_beta     85.65224684889701
_cell_angle_gamma    114.09484255894573

_space_group_name_H-M_alt    "P 1"
_space_group_IT_number       1

loop_
  _space_group_symop_operation_xyz
  'x, y, z'

loop_
  _atom_site_type_symbol
  _atom_site_label
  _atom_site_symmetry_multiplicity
  _atom_site_fract_x
  _atom_site_fract_y
  _atom_site_fract_z
  _atom_site_occupancy
  C   C1        1.0  0.6837376  0.6166061150000001  0.5339534686844625  1.0000
  O   O1        1.0  0.7114813100000001  0.633105715  0.5453430082124225  1.0000
  Cu  Cu1       1.0  0.3541666599999999  0.19791666499999996  0.4810877277223261  1.0000
  Cu  Cu2       1.0  0.52886636  0.7808474950000001  0.5073558385040516  1.0000
  Cu  Cu3       1.0  0.1875  0.6145833350000001  0.45465699178757735  1.0000
  Cu  Cu4       1.0  0.9375000000000001  0.48958333500000006  0.49430309727554467  1.0000
  Cu  Cu5       1.0  0.10151636999999998  0.07787296500000002  0.5219580890893197  1.0000
  Cu  Cu6       1.0  0.77083333  0.9062500050000001  0.46787236134079596  1.0000
  Ga  Ga1       1.0  0.3541666599999999  0.6979166649999999  0.4810877277223261  1.0000
  Ga  Ga2       1.0  0.5290895200000001  0.283062225  0.5067849155548941  1.0000
  Ga  Ga3       1.0  0.1875  0.11458333500000002  0.45465699178757735  1.0000
  Ga  Ga4       1.0  0.9375000000000001  0.9895833350000002  0.49430309727554467  1.0000
  Ga  Ga5       1.0  0.11313036999999997  0.5677390250000001  0.5208409474722566  1.0000
  Ga  Ga6       1.0  0.77083333  0.40625000500000014  0.46787236134079596  1.0000
  Rh  Rh1       1.0  0.4791666599999999  0.01041666499999998  0.46126467497834245  1.0000
  Rh  Rh2       1.0  0.64583333  0.593750005  0.4876954140847796  1.0000
  Rh  Rh3       1.0  0.8179676700000001  0.174194905  0.5138154641067939  1.0000
  Rh  Rh4       1.0  0.39893092  0.973196935  0.525401667348105  1.0000
  Rh  Rh5       1.0  0.06249999999999998  0.8020833350000002  0.474480044531561  1.0000
  Rh  Rh6       1.0  0.23071761999999998  0.383486265  0.5008726155393227  1.0000
  Rh  Rh7       1.0  0.41648319000000006  0.465107695  0.5260353675265363  1.0000
  Rh  Rh8       1.0  0.06249999999999998  0.302083335  0.474480044531561  1.0000
  Rh  Rh9       1.0  0.22462752999999994  0.884797845  0.5012462467808182  1.0000
  Rh  Rh10      1.0  0.4791666599999999  0.5104166649999999  0.46126467497834245  1.0000
  Rh  Rh11      1.0  0.64583333  0.09375000499999998  0.4876954140847796  1.0000
  Rh  Rh12      1.0  0.81806764  0.6705221749999999  0.5159674673994347  1.0000
