data_image0
_chemical_formula_structural       COSn20Rh20
_chemical_formula_sum              "C1 O1 Sn20 Rh20"
_cell_length_a       7.39886357
_cell_length_b       11.698630482260906
_cell_length_c       106.24688082
_cell_angle_alpha    75.03678257724799
_cell_angle_beta     90.0
_cell_angle_gamma    71.5650511918525

_space_group_name_H-M_alt    "P 1"
_space_group_IT_number       1

loop_
  _space_group_symop_operation_xyz
  'x, y, z'

loop_
  _atom_site_type_symbol
  _atom_site_label
  _atom_site_symmetry_multiplicity
  _atom_site_fract_x
  _atom_site_fract_y
  _atom_site_fract_z
  _atom_site_occupancy
  C   C1        1.0  0.30391453000000007  0.5473248150000001  0.5378881004925417  1.0000
  O   O1        1.0  0.3103830800000001  0.5390601950000001  0.5493653427402498  1.0000
  Sn  Sn1       1.0  0.8117677800000003  0.417771455  0.49059227659897475  1.0000
  Sn  Sn2       1.0  0.60999683  0.8190545850000001  0.5067416861970236  1.0000
  Sn  Sn3       1.0  0.011767780000000054  0.01777145500000003  0.4735344201516837  1.0000
  Sn  Sn4       1.0  0.3875416300000001  0.22750657500000004  0.5264445406881744  1.0000
  Sn  Sn5       1.0  0.2117677800000001  0.6177714550000001  0.4564765671159639  1.0000
  Sn  Sn6       1.0  0.9758515000000001  0.5896040150000001  0.5039259663026971  1.0000
  Sn  Sn7       1.0  0.7643650500000001  0.982228545  0.5223744542621396  1.0000
  Sn  Sn8       1.0  0.17585150000000005  0.18960401500000001  0.48686811326697726  1.0000
  Sn  Sn9       1.0  0.5758515000000002  0.3896040150000001  0.452752396960824  1.0000
  Sn  Sn10      1.0  0.3758515000000001  0.789604015  0.46981025681968624  1.0000
  Sn  Sn11      1.0  0.4505294100000001  0.470952075  0.5080051855050736  1.0000
  Sn  Sn12      1.0  0.23834321000000008  0.8722055650000001  0.5248851148633342  1.0000
  Sn  Sn13      1.0  0.6399352200000001  0.08185517500000003  0.48993138700878086  1.0000
  Sn  Sn14      1.0  0.039935220000000035  0.28185517500000007  0.4558156741141988  1.0000
  Sn  Sn15      1.0  0.83993522  0.6818551750000001  0.47287352714991854  1.0000
  Sn  Sn16      1.0  0.006982510000000051  0.18505451500000006  0.5164173117624818  1.0000
  Sn  Sn17      1.0  0.8101468200000002  0.572699905  0.5321966716343346  1.0000
  Sn  Sn18      1.0  0.21951661999999994  0.7818551750000001  0.49846031523242634  1.0000
  Sn  Sn19      1.0  0.6195166200000001  0.981855175  0.464344598926273  1.0000
  Sn  Sn20      1.0  0.41951662  0.38185517500000005  0.4814024553735641  1.0000
  Rh  Rh1       1.0  0.81857144  0.42313261500000005  0.5154490737148207  1.0000
  Rh  Rh2       1.0  0.6062789600000001  0.8075164850000001  0.5306610108150969  1.0000
  Rh  Rh3       1.0  0.011767780000000054  0.01777145500000003  0.4994395044239267  1.0000
  Rh  Rh4       1.0  0.41176778000000014  0.21777145500000003  0.46532379152934455  1.0000
  Rh  Rh5       1.0  0.2117677800000001  0.6177714550000001  0.48238164797663563  1.0000
  Rh  Rh6       1.0  0.64692183  0.22503673500000004  0.5066750479750266  1.0000
  Rh  Rh7       1.0  0.43217543000000014  0.624087465  0.5228534798100349  1.0000
  Rh  Rh8       1.0  0.85435871  0.8325895950000002  0.4883829191509226  1.0000
  Rh  Rh9       1.0  0.2543587100000001  0.032589595000000034  0.45426720625634054  1.0000
  Rh  Rh10      1.0  0.05435871000000007  0.43258959500000005  0.4713250627036315  1.0000
  Rh  Rh11      1.0  0.19694964000000015  0.36036238500000006  0.5018082266016233  1.0000
  Rh  Rh12      1.0  0.9930174900000003  0.760293695  0.5183770104235715  1.0000
  Rh  Rh13      1.0  0.3969496400000001  0.9603623850000002  0.48475037015433226  1.0000
  Rh  Rh14      1.0  0.7969496400000002  0.16036238500000005  0.4506346572597502  1.0000
  Rh  Rh15      1.0  0.5969496400000001  0.5603623850000001  0.46769251370704124  1.0000
  Rh  Rh16      1.0  0.5839950000000002  0.6603623850000001  0.49327929837797785  1.0000
  Rh  Rh17      1.0  0.3645016000000001  0.06950202500000004  0.5111969697257797  1.0000
  Rh  Rh18      1.0  0.7839950000000001  0.26036238500000003  0.4762214419306867  1.0000
  Rh  Rh19      1.0  0.18374874000000002  0.4735047450000001  0.5265385977086245  1.0000
  Rh  Rh20      1.0  0.9839950000000001  0.8603623850000001  0.4591635854833957  1.0000
