data_image0
_chemical_formula_structural       COPt6V3Pt6V3
_chemical_formula_sum              "C1 O1 Pt12 V6"
_cell_length_a       4.841608107435935
_cell_length_b       5.500377717789698
_cell_length_c       101.47459664
_cell_angle_alpha    92.50399375374275
_cell_angle_beta     91.30626599092611
_cell_angle_gamma    73.49995757964658

_space_group_name_H-M_alt    "P 1"
_space_group_IT_number       1

loop_
  _space_group_symop_operation_xyz
  'x, y, z'

loop_
  _atom_site_type_symbol
  _atom_site_label
  _atom_site_symmetry_multiplicity
  _atom_site_fract_x
  _atom_site_fract_y
  _atom_site_fract_z
  _atom_site_occupancy
  C   C1        1.0  0.31753949  0.351621545  0.5470473408777335  1.0000
  O   O1        1.0  0.19504102  0.393115175  0.5573105040029545  1.0000
  Pt  Pt1       1.0  0.49193721000000007  0.046759765  0.5349645960950457  1.0000
  Pt  Pt2       1.0  0.94900337  0.174634485  0.5230629887625216  1.0000
  Pt  Pt3       1.0  0.8181879300000001  0.439662075  0.49990987947371507  1.0000
  Pt  Pt4       1.0  0.28380533  0.064351355  0.4888598374486918  1.0000
  Pt  Pt5       1.0  0.15152126000000002  0.32855096500000003  0.46544630449760993  1.0000
  Pt  Pt6       1.0  0.6171386600000001  0.453240235  0.4543962624725867  1.0000
  V   V1        1.0  0.38767915000000003  0.30553338499999994  0.5123519215038236  1.0000
  V   V2        1.0  0.7176633  0.19645116499999996  0.4771530709731508  1.0000
  V   V3        1.0  0.050996630000000015  0.08534004500000002  0.44268949599704566  1.0000
  Pt  Pt7       1.0  0.4863743900000001  0.551744985  0.5346507731906253  1.0000
  Pt  Pt8       1.0  0.9311757399999999  0.680421285  0.5233648979535894  1.0000
  Pt  Pt9       1.0  0.8181879300000001  0.9396620749999999  0.49990987947371507  1.0000
  Pt  Pt10      1.0  0.28380533  0.564351355  0.4888598374486917  1.0000
  Pt  Pt11      1.0  0.15152126000000002  0.8285509649999998  0.46544630449760993  1.0000
  Pt  Pt12      1.0  0.6171386600000001  0.953240235  0.4543962624725867  1.0000
  V   V4        1.0  0.37274199  0.8082738049999998  0.511337056748109  1.0000
  V   V5        1.0  0.7176633  0.6964511649999999  0.4771530709731508  1.0000
  V   V6        1.0  0.050996630000000015  0.585340045  0.44268949599704566  1.0000
