data_image0
_chemical_formula_structural       COGa28Ni12
_chemical_formula_sum              "C1 O1 Ga28 Ni12"
_cell_length_a       7.4018235
_cell_length_b       7.401823500005097
_cell_length_c       106.26138148
_cell_angle_alpha    90.0
_cell_angle_beta     90.0
_cell_angle_gamma    109.47122063447674

_space_group_name_H-M_alt    "P 1"
_space_group_IT_number       1

loop_
  _space_group_symop_operation_xyz
  'x, y, z'

loop_
  _atom_site_type_symbol
  _atom_site_label
  _atom_site_symmetry_multiplicity
  _atom_site_fract_x
  _atom_site_fract_y
  _atom_site_fract_z
  _atom_site_occupancy
  C   C1        1.0  0.868942695  0.29222982000000003  0.5565935669974814  1.0000
  O   O1        1.0  0.858570375  0.32724836000000007  0.5672573730764583  1.0000
  Ga  Ga1       1.0  0.939938105  0.18648198000000002  0.5182379700244454  1.0000
  Ga  Ga2       1.0  0.437949665  0.6875  0.46117988220533274  1.0000
  Ga  Ga3       1.0  0.196399445  0.93216099  0.5170632202777933  1.0000
  Ga  Ga4       1.0  0.687949665  0.43750000000000006  0.46117988220533274  1.0000
  Ga  Ga5       1.0  0.437949665  0.6875  0.43274262692354165  1.0000
  Ga  Ga6       1.0  0.9379496649999999  0.18749999999999997  0.4896171340746534  1.0000
  Ga  Ga7       1.0  0.06006189499999997  0.5651962  0.5332315765092233  1.0000
  Ga  Ga8       1.0  0.562949665  0.06249999999999999  0.47539850643375786  1.0000
  Ga  Ga9       1.0  0.566405905  0.06635081999999999  0.5336038224260626  1.0000
  Ga  Ga10      1.0  0.06294966499999997  0.5625  0.47539850643375786  1.0000
  Ga  Ga11      1.0  0.687949665  0.43750000000000006  0.43274262692354165  1.0000
  Ga  Ga12      1.0  0.18794966499999993  0.9375  0.4896171340746534  1.0000
  Ga  Ga13      1.0  0.720749485  0.7195450800000001  0.522083233763714  1.0000
  Ga  Ga14      1.0  0.22454644499999996  0.22409678  0.46534272749873085  1.0000
  Ga  Ga15      1.0  0.3861432249999999  0.06249999999999999  0.4469612545644372  1.0000
  Ga  Ga16      1.0  0.886143225  0.5625  0.503835761715549  1.0000
  Ga  Ga17      1.0  0.06294966499999997  0.38569356  0.4469612545644372  1.0000
  Ga  Ga18      1.0  0.562949665  0.88569356  0.503835761715549  1.0000
  Ga  Ga19      1.0  0.410410265  0.40874491  0.5218975851386745  1.0000
  Ga  Ga20      1.0  0.901352885  0.9009032200000001  0.46534272749873085  1.0000
  Ga  Ga21      1.0  0.06294966499999997  0.73930644  0.4469612545644372  1.0000
  Ga  Ga22      1.0  0.5629496649999999  0.23930644  0.503835761715549  1.0000
  Ga  Ga23      1.0  0.22331857499999996  0.21626268  0.5405853375252626  1.0000
  Ga  Ga24      1.0  0.724546445  0.7240967799999999  0.485454285368785  1.0000
  Ga  Ga25      1.0  0.739756105  0.06249999999999999  0.4469612545644372  1.0000
  Ga  Ga26      1.0  0.23975610499999997  0.5625  0.503835761715549  1.0000
  Ga  Ga27      1.0  0.913447955  0.90946139  0.54079792077886  1.0000
  Ga  Ga28      1.0  0.40135288500000005  0.40090322000000006  0.485454285368785  1.0000
  Ni  Ni1       1.0  0.39011261500000005  0.7382674300000001  0.5235402186964982  1.0000
  Ni  Ni2       1.0  0.888025155  0.23742451  0.46685874475628686  1.0000
  Ni  Ni3       1.0  0.740671855  0.38672029  0.5232922720125516  1.0000
  Ni  Ni4       1.0  0.237874175  0.88757549  0.46685874475628686  1.0000
  Ni  Ni5       1.0  0.8939086449999999  0.23994551  0.5405770008601711  1.0000
  Ni  Ni6       1.0  0.388025155  0.73742451  0.4839382715236993  1.0000
  Ni  Ni7       1.0  0.713100645  0.7126509800000002  0.4469612545644372  1.0000
  Ni  Ni8       1.0  0.21310064499999998  0.21265098  0.503835761715549  1.0000
  Ni  Ni9       1.0  0.41279868500000005  0.41234902  0.4469612545644372  1.0000
  Ni  Ni10      1.0  0.9127986849999998  0.9123490200000001  0.503835761715549  1.0000
  Ni  Ni11      1.0  0.23517195500000002  0.89400359  0.5390814788996022  1.0000
  Ni  Ni12      1.0  0.7378741749999997  0.38757549  0.4839382715236993  1.0000
