data_image0
_chemical_formula_structural       COAl2Cu2Pt4Al2Cu2Pt4Al2Cu2Pt4Al2Cu2Pt4
_chemical_formula_sum              "C1 O1 Al8 Cu8 Pt16"
_cell_length_a       5.69404289
_cell_length_b       7.10164926
_cell_length_c       104.16425734
_cell_angle_alpha    90.0
_cell_angle_beta     90.0
_cell_angle_gamma    90.0

_space_group_name_H-M_alt    "P 1"
_space_group_IT_number       1

loop_
  _space_group_symop_operation_xyz
  'x, y, z'

loop_
  _atom_site_type_symbol
  _atom_site_label
  _atom_site_symmetry_multiplicity
  _atom_site_fract_x
  _atom_site_fract_y
  _atom_site_fract_z
  _atom_site_occupancy
  C   C1        1.0  0.005323140000000012  0.35536208  0.5513816300694114  1.0000
  O   O1        1.0  0.01701566000000002  0.34213466000000003  0.5625336985252606  1.0000
  Al  Al1       1.0  0.73201821  0.12351325000000005  0.5203297114810697  1.0000
  Al  Al2       1.0  0.23018057000000003  0.12626101000000003  0.49213037538689236  1.0000
  Cu  Cu1       1.0  0.73018057  0.12626101000000003  0.49213037538689236  1.0000
  Cu  Cu2       1.0  0.23510193000000001  0.12493970000000004  0.5193892685293042  1.0000
  Pt  Pt1       1.0  0.99467686  0.36982747000000005  0.5334135985467136  1.0000
  Pt  Pt2       1.0  0.47017375  0.37703142000000006  0.5051670458101654  1.0000
  Pt  Pt3       1.0  0.49796828000000004  0.3718231000000001  0.5318438419785508  1.0000
  Pt  Pt4       1.0  0.9675920499999999  0.37626937000000005  0.5066009971342315  1.0000
  Al  Al3       1.0  0.73018057  0.12626101000000003  0.4647983384308159  1.0000
  Al  Al4       1.0  0.23018057000000003  0.12626101000000003  0.43746630147473936  1.0000
  Cu  Cu3       1.0  0.73018057  0.12626101000000003  0.43746630147473936  1.0000
  Cu  Cu4       1.0  0.23018057000000003  0.12626101000000003  0.4647983384308159  1.0000
  Pt  Pt5       1.0  0.9801805700000001  0.37626101000000006  0.4784643585487764  1.0000
  Pt  Pt6       1.0  0.48018057000000003  0.37626101000000006  0.4511323183128554  1.0000
  Pt  Pt7       1.0  0.48018057000000003  0.37626101000000006  0.4784643585487764  1.0000
  Pt  Pt8       1.0  0.9801805700000001  0.37626101000000006  0.4511323183128554  1.0000
  Al  Al5       1.0  0.7335271499999999  0.62473316  0.520821491375284  1.0000
  Al  Al6       1.0  0.23018057000000003  0.6262610100000001  0.49213037538689236  1.0000
  Cu  Cu5       1.0  0.73018057  0.6262610100000001  0.49213037538689236  1.0000
  Cu  Cu6       1.0  0.23183062  0.6238380200000001  0.5198481187840769  1.0000
  Pt  Pt9       1.0  0.9776829  0.8764867500000001  0.5319065624461851  1.0000
  Pt  Pt10      1.0  0.48500608000000006  0.8739653400000001  0.5055756554058772  1.0000
  Pt  Pt11      1.0  0.48418844  0.8761817100000001  0.5321081023350719  1.0000
  Pt  Pt12      1.0  0.9865727400000002  0.8746461700000001  0.5053440787004556  1.0000
  Al  Al7       1.0  0.73018057  0.6262610100000001  0.4647983384308159  1.0000
  Al  Al8       1.0  0.23018057000000003  0.6262610100000001  0.43746630147473936  1.0000
  Cu  Cu7       1.0  0.73018057  0.6262610100000001  0.43746630147473936  1.0000
  Cu  Cu8       1.0  0.23018057000000003  0.6262610100000001  0.4647983384308159  1.0000
  Pt  Pt13      1.0  0.9801805700000001  0.87626101  0.4784643585487764  1.0000
  Pt  Pt14      1.0  0.48018057000000003  0.87626101  0.4511323183128554  1.0000
  Pt  Pt15      1.0  0.48018057000000003  0.87626101  0.4784643585487764  1.0000
  Pt  Pt16      1.0  0.9801805700000001  0.87626101  0.4511323183128554  1.0000
