data_image0
_chemical_formula_structural       In3Sb3CO
_chemical_formula_sum              "In3 Sb3 C1 O1"
_cell_length_a       4.75527261
_cell_length_b       4.755272619272032
_cell_length_c       104.94397447
_cell_angle_alpha    90.0
_cell_angle_beta     90.0
_cell_angle_gamma    120.00000000506407

_space_group_name_H-M_alt    "P 1"
_space_group_IT_number       1

loop_
  _space_group_symop_operation_xyz
  'x, y, z'

loop_
  _atom_site_type_symbol
  _atom_site_label
  _atom_site_symmetry_multiplicity
  _atom_site_fract_x
  _atom_site_fract_y
  _atom_site_fract_z
  _atom_site_occupancy
  In  In1       1.0  0.502042465  0.83244737  0.43637174161598336  1.0000
  In  In2       1.0  0.164624195  0.17029428000000002  0.5112544222208785  1.0000
  In  In3       1.0  0.835375805  0.49911403  0.4733692329991908  1.0000
  Sb  Sb1       1.0  0.16870913500000004  0.16578070000000003  0.48261860667743617  1.0000
  Sb  Sb2       1.0  0.835375805  0.49911403  0.4456211152942288  1.0000
  Sb  Sb3       1.0  0.497627335  0.83721854  0.5194004052735469  1.0000
  C   C1        1.0  0.168527545  0.16593267  0.5526773234432028  1.0000
  O   O1        1.0  0.171495705  0.16278146000000002  0.5636282583840166  1.0000
