data_image0
_chemical_formula_structural       CORu18
_chemical_formula_sum              "C1 O1 Ru18"
_cell_length_a       5.08059578264153
_cell_length_b       6.383635981720441
_cell_length_c       99.02926769
_cell_angle_alpha    85.58076068893105
_cell_angle_beta     85.90017111132282
_cell_angle_gamma    77.28314072227602

_space_group_name_H-M_alt    "P 1"
_space_group_IT_number       1

loop_
  _space_group_symop_operation_xyz
  'x, y, z'

loop_
  _atom_site_type_symbol
  _atom_site_label
  _atom_site_symmetry_multiplicity
  _atom_site_fract_x
  _atom_site_fract_y
  _atom_site_fract_z
  _atom_site_occupancy
  C   C1        1.0  0.7707901699999998  0.9109676750000001  0.5371373144754408  1.0000
  O   O1        1.0  0.7613650499999999  0.914027395  0.5492169033243254  1.0000
  Ru  Ru1       1.0  0.7354589399999999  0.7478192850000001  0.5210516072276358  1.0000
  Ru  Ru2       1.0  0.1263143399999999  0.427300135  0.5120857769976536  1.0000
  Ru  Ru3       1.0  0.5216358799999998  0.08709603500000004  0.5042431851763882  1.0000
  Ru  Ru4       1.0  0.22042694999999984  0.8127305550000001  0.513680627972229  1.0000
  Ru  Ru5       1.0  0.6202284899999998  0.4711772450000001  0.505264440782799  1.0000
  Ru  Ru6       1.0  0.8337054899999998  0.14552069500000003  0.5219031357787569  1.0000
  Ru  Ru7       1.0  0.9100608699999999  0.7488530850000001  0.49504721209475155  1.0000
  Ru  Ru8       1.0  0.30217733999999985  0.4193059350000001  0.486315007199009  1.0000
  Ru  Ru9       1.0  0.6961167399999997  0.08597260500000004  0.4774320295681754  1.0000
  Ru  Ru10      1.0  0.4031874399999998  0.8081948250000001  0.4877955020051233  1.0000
  Ru  Ru11      1.0  0.7971268399999999  0.47486149499999997  0.47891252437428966  1.0000
  Ru  Ru12      1.0  0.021054979999999886  0.136157725  0.4965564373821939  1.0000
  Ru  Ru13      1.0  0.09005612999999989  0.752639275  0.4685490519373418  1.0000
  Ru  Ru14      1.0  0.4839955199999998  0.4193059350000001  0.45966607430650824  1.0000
  Ru  Ru15      1.0  0.87793492  0.08597260500000004  0.4507830966756746  1.0000
  Ru  Ru16      1.0  0.5850056299999998  0.8081948250000001  0.46114656911262253  1.0000
  Ru  Ru17      1.0  0.9789450199999999  0.47486149499999997  0.4522635914817889  1.0000
  Ru  Ru18      1.0  0.19106622999999984  0.14152815500000002  0.47002954674345615  1.0000
