data_image0
_chemical_formula_structural       CORh16
_chemical_formula_sum              "C1 O1 Rh16"
_cell_length_a       5.44065814
_cell_length_b       5.44065814
_cell_length_c       100.77701009
_cell_angle_alpha    90.0
_cell_angle_beta     90.0
_cell_angle_gamma    90.0

_space_group_name_H-M_alt    "P 1"
_space_group_IT_number       1

loop_
  _space_group_symop_operation_xyz
  'x, y, z'

loop_
  _atom_site_type_symbol
  _atom_site_label
  _atom_site_symmetry_multiplicity
  _atom_site_fract_x
  _atom_site_fract_y
  _atom_site_fract_z
  _atom_site_occupancy
  C   C1        1.0  0.12302512  0.37636813499999994  0.5302188341930743  1.0000
  O   O1        1.0  0.12302450999999999  0.3763711249999999  0.5420120285553931  1.0000
  Rh  Rh1       1.0  0.12301896999999999  0.12561429499999996  0.4960201851769991  1.0000
  Rh  Rh2       1.0  0.36900762  0.3763779049999999  0.5151967461705979  1.0000
  Rh  Rh3       1.0  0.12301758  0.12637812499999995  0.4579879714446069  1.0000
  Rh  Rh4       1.0  0.37301757999999996  0.37637812499999995  0.47707529234157675  1.0000
  Rh  Rh5       1.0  0.12301634  0.6271419249999999  0.49602034398350897  1.0000
  Rh  Rh6       1.0  0.37446965  0.876383475  0.5145274744586091  1.0000
  Rh  Rh7       1.0  0.12301758  0.6263781249999999  0.4579879714446069  1.0000
  Rh  Rh8       1.0  0.37301757999999996  0.8763781249999999  0.47707529234157675  1.0000
  Rh  Rh9       1.0  0.62302189  0.12361652499999995  0.4961936629651961  1.0000
  Rh  Rh10      1.0  0.8769836599999999  0.3763784949999999  0.5151970301899328  1.0000
  Rh  Rh11      1.0  0.62301758  0.12637812499999995  0.4579879714446069  1.0000
  Rh  Rh12      1.0  0.87301758  0.37637812499999995  0.47707529234157675  1.0000
  Rh  Rh13      1.0  0.62301969  0.6291515749999999  0.49619387063524745  1.0000
  Rh  Rh14      1.0  0.8715822799999998  0.8763825949999999  0.514524289166498  1.0000
  Rh  Rh15      1.0  0.62301758  0.6263781249999999  0.4579879714446069  1.0000
  Rh  Rh16      1.0  0.87301758  0.8763781249999999  0.47707529234157675  1.0000
