data_image0
_chemical_formula_structural       COSn6
_chemical_formula_sum              "C1 O1 Sn6"
_cell_length_a       4.75645263
_cell_length_b       4.7564526329526675
_cell_length_c       104.95264581
_cell_angle_alpha    90.0
_cell_angle_beta     90.0
_cell_angle_gamma    120.00000004901213

_space_group_name_H-M_alt    "P 1"
_space_group_IT_number       1

loop_
  _space_group_symop_operation_xyz
  'x, y, z'

loop_
  _atom_site_type_symbol
  _atom_site_label
  _atom_site_symmetry_multiplicity
  _atom_site_fract_x
  _atom_site_fract_y
  _atom_site_fract_z
  _atom_site_occupancy
  C   C1        1.0  0.528777065  0.33694802500000004  0.5516275180188829  1.0000
  O   O1        1.0  0.5478555450000001  0.3517990450000001  0.5628105107994515  1.0000
  Sn  Sn1       1.0  0.42110306500000005  0.7934838750000001  0.5393060235405491  1.0000
  Sn  Sn2       1.0  0.16666666500000005  0.16722970500000003  0.5019458175247905  1.0000
  Sn  Sn3       1.0  0.8333333350000001  0.5005630350000001  0.46494220276679166  1.0000
  Sn  Sn4       1.0  0.16666666500000005  0.16722970500000003  0.47419310395854736  1.0000
  Sn  Sn5       1.0  0.8333333350000001  0.5005630350000001  0.43718948920054845  1.0000
  Sn  Sn6       1.0  0.49802529500000003  0.832770295  0.5118162624738758  1.0000
