data_image0
_chemical_formula_structural       COPd16
_chemical_formula_sum              "C1 O1 Pd16"
_cell_length_a       5.6258447
_cell_length_b       5.6258447
_cell_length_c       101.82458352
_cell_angle_alpha    90.0
_cell_angle_beta     90.0
_cell_angle_gamma    90.0

_space_group_name_H-M_alt    "P 1"
_space_group_IT_number       1

loop_
  _space_group_symop_operation_xyz
  'x, y, z'

loop_
  _atom_site_type_symbol
  _atom_site_label
  _atom_site_symmetry_multiplicity
  _atom_site_fract_x
  _atom_site_fract_y
  _atom_site_fract_z
  _atom_site_occupancy
  C   C1        1.0  0.37499978999999994  0.37499991  0.5333758110089802  1.0000
  O   O1        1.0  0.37499972  0.375  0.54480913905221  1.0000
  Pd  Pd1       1.0  0.1270775  0.12707747000000003  0.4941423164761409  1.0000
  Pd  Pd2       1.0  0.37500004  0.37499964  0.515024291841852  1.0000
  Pd  Pd3       1.0  0.12499982  0.12500000000000003  0.4551908609477901  1.0000
  Pd  Pd4       1.0  0.37499982  0.375  0.4747248123889892  1.0000
  Pd  Pd5       1.0  0.12707747  0.62292224  0.4941423414795987  1.0000
  Pd  Pd6       1.0  0.3750000499999999  0.87499981  0.5132512341374373  1.0000
  Pd  Pd7       1.0  0.12499982  0.625  0.4551908609477901  1.0000
  Pd  Pd8       1.0  0.37499982  0.8749999999999999  0.4747248123889892  1.0000
  Pd  Pd9       1.0  0.62292237  0.12707751000000003  0.4941423414795987  1.0000
  Pd  Pd10      1.0  0.87500015  0.37499969999999994  0.5132512622663273  1.0000
  Pd  Pd11      1.0  0.62499982  0.12500000000000003  0.4551908609477901  1.0000
  Pd  Pd12      1.0  0.87499982  0.375  0.4747248123889892  1.0000
  Pd  Pd13      1.0  0.6229224  0.6229222  0.49414236335762435  1.0000
  Pd  Pd14      1.0  0.8750001799999999  0.87499985  0.5133284854458808  1.0000
  Pd  Pd15      1.0  0.62499982  0.625  0.4551908609477901  1.0000
  Pd  Pd16      1.0  0.87499982  0.8749999999999999  0.4747248123889892  1.0000
