data_image0
_chemical_formula_structural       COAu16
_chemical_formula_sum              "C1 O1 Au16"
_cell_length_a       5.9341629
_cell_length_b       5.9341629
_cell_length_c       99.37260776
_cell_angle_alpha    90.0
_cell_angle_beta     90.0
_cell_angle_gamma    90.0

_space_group_name_H-M_alt    "P 1"
_space_group_IT_number       1

loop_
  _space_group_symop_operation_xyz
  'x, y, z'

loop_
  _atom_site_type_symbol
  _atom_site_label
  _atom_site_symmetry_multiplicity
  _atom_site_fract_x
  _atom_site_fract_y
  _atom_site_fract_z
  _atom_site_occupancy
  C   C1        1.0  0.3749999550000001  0.124999705  0.5335421885224076  1.0000
  O   O1        1.0  0.3749998050000001  0.12499966500000001  0.5453867209539425  1.0000
  Au  Au1       1.0  0.12653255500000005  0.125000565  0.4965145676314239  1.0000
  Au  Au2       1.0  0.37499951500000006  0.388945855  0.5189307090438368  1.0000
  Au  Au3       1.0  0.12499996500000005  0.12500033500000002  0.4546132790460576  1.0000
  Au  Au4       1.0  0.3749999650000001  0.375000335  0.4757261734015604  1.0000
  Au  Au5       1.0  0.13131358500000004  0.625000275  0.4967661332620536  1.0000
  Au  Au6       1.0  0.37500078500000006  0.8610552149999999  0.5189306469719261  1.0000
  Au  Au7       1.0  0.12499996500000005  0.6250003350000001  0.4546132790460576  1.0000
  Au  Au8       1.0  0.3749999650000001  0.875000335  0.4757261734015604  1.0000
  Au  Au9       1.0  0.6234671150000001  0.12500062500000003  0.49651453511756594  1.0000
  Au  Au10      1.0  0.8749995550000002  0.37756154499999994  0.516852662663404  1.0000
  Au  Au11      1.0  0.6249999650000001  0.12500033500000002  0.4546132790460576  1.0000
  Au  Au12      1.0  0.8749999650000001  0.375000335  0.4757261734015604  1.0000
  Au  Au13      1.0  0.6186862550000001  0.625000185  0.4967660918807798  1.0000
  Au  Au14      1.0  0.8750000350000001  0.8724396550000001  0.516852618326325  1.0000
  Au  Au15      1.0  0.6249999650000001  0.6250003350000001  0.4546132790460576  1.0000
  Au  Au16      1.0  0.8749999650000001  0.875000335  0.4757261734015604  1.0000
