data_image0
_chemical_formula_structural       COFe32
_chemical_formula_sum              "C1 O1 Fe32"
_cell_length_a       4.807749510673738
_cell_length_b       7.85102208
_cell_length_c       101.73964423
_cell_angle_alpha    90.0
_cell_angle_beta     91.44662954837779
_cell_angle_gamma    90.0

_space_group_name_H-M_alt    "P 1"
_space_group_IT_number       1

loop_
  _space_group_symop_operation_xyz
  'x, y, z'

loop_
  _atom_site_type_symbol
  _atom_site_label
  _atom_site_symmetry_multiplicity
  _atom_site_fract_x
  _atom_site_fract_y
  _atom_site_fract_z
  _atom_site_occupancy
  C   C1        1.0  0.322954665  0.32619249000000006  0.5406436893464974  1.0000
  O   O1        1.0  0.32741303499999996  0.29704426  0.5519835763739817  1.0000
  Fe  Fe1       1.0  0.291537985  0.12329004000000002  0.4925834636784182  1.0000
  Fe  Fe2       1.0  0.31617570500000003  0.36258221999999996  0.5233266174132035  1.0000
  Fe  Fe3       1.0  0.056178475000000005  0.12124275000000001  0.5154646607032839  1.0000
  Fe  Fe4       1.0  0.050750305000000016  0.37075113000000004  0.5029636801455231  1.0000
  Fe  Fe5       1.0  0.434395135  0.12329004000000002  0.4480164236260184  1.0000
  Fe  Fe6       1.0  0.452252285  0.37329004000000005  0.48144170522516466  1.0000
  Fe  Fe7       1.0  0.11296656500000002  0.12329004000000002  0.47029994365221833  1.0000
  Fe  Fe8       1.0  0.273680855  0.37329004000000005  0.45915818519896484  1.0000
  Fe  Fe9       1.0  0.291537985  0.62329004  0.4925834636784182  1.0000
  Fe  Fe10      1.0  0.316558075  0.8787572499999999  0.5222609490483139  1.0000
  Fe  Fe11      1.0  0.073886255  0.62278718  0.5150274482268767  1.0000
  Fe  Fe12      1.0  0.04774771500000002  0.87359106  0.5027999524245264  1.0000
  Fe  Fe13      1.0  0.434395135  0.62329004  0.4480164236260184  1.0000
  Fe  Fe14      1.0  0.452252285  0.87329004  0.48144170522516466  1.0000
  Fe  Fe15      1.0  0.11296656500000002  0.62329004  0.47029994365221833  1.0000
  Fe  Fe16      1.0  0.273680855  0.87329004  0.45915818519896484  1.0000
  Fe  Fe17      1.0  0.7915379849999999  0.12329004000000002  0.4925834636784182  1.0000
  Fe  Fe18      1.0  0.8170553150000001  0.3845544  0.5226613241913586  1.0000
  Fe  Fe19      1.0  0.5717844750000001  0.12251826000000002  0.51528994230432  1.0000
  Fe  Fe20      1.0  0.546043385  0.37169997000000005  0.5029737973094877  1.0000
  Fe  Fe21      1.0  0.9343951349999998  0.12329004000000002  0.4480164236260184  1.0000
  Fe  Fe22      1.0  0.9522522849999998  0.37329004000000005  0.48144170522516466  1.0000
  Fe  Fe23      1.0  0.6129665649999999  0.12329004000000002  0.47029994365221833  1.0000
  Fe  Fe24      1.0  0.773680855  0.37329004000000005  0.45915818519896484  1.0000
  Fe  Fe25      1.0  0.7915379849999999  0.62329004  0.4925834636784182  1.0000
  Fe  Fe26      1.0  0.8164803150000001  0.8632118400000001  0.5223686283672789  1.0000
  Fe  Fe27      1.0  0.5555138049999999  0.62255097  0.515110453894964  1.0000
  Fe  Fe28      1.0  0.548745355  0.87415949  0.5028190761417953  1.0000
  Fe  Fe29      1.0  0.9343951349999998  0.62329004  0.4480164236260184  1.0000
  Fe  Fe30      1.0  0.9522522849999998  0.87329004  0.48144170522516466  1.0000
  Fe  Fe31      1.0  0.6129665649999999  0.62329004  0.47029994365221833  1.0000
  Fe  Fe32      1.0  0.773680855  0.87329004  0.45915818519896484  1.0000
