data_image0
_chemical_formula_structural       CORh32
_chemical_formula_sum              "C1 O1 Rh32"
_cell_length_a       5.44065814
_cell_length_b       6.66341815
_cell_length_c       107.69398527
_cell_angle_alpha    90.0
_cell_angle_beta     90.0
_cell_angle_gamma    90.0

_space_group_name_H-M_alt    "P 1"
_space_group_IT_number       1

loop_
  _space_group_symop_operation_xyz
  'x, y, z'

loop_
  _atom_site_type_symbol
  _atom_site_label
  _atom_site_symmetry_multiplicity
  _atom_site_fract_x
  _atom_site_fract_y
  _atom_site_fract_z
  _atom_site_occupancy
  C   C1        1.0  0.25213991999999996  0.22496716000000005  0.5499242069758615  1.0000
  O   O1        1.0  0.2521395799999999  0.16816852000000004  0.5606659057156822  1.0000
  Rh  Rh1       1.0  0.002139529999999939  0.16478059000000003  0.490377236379147  1.0000
  Rh  Rh2       1.0  0.002139529999999939  0.16478059000000003  0.4466259707264073  1.0000
  Rh  Rh3       1.0  0.002139529999999939  0.83144726  0.46120972711068764  1.0000
  Rh  Rh4       1.0  0.002139529999999939  0.4981139300000001  0.4757934834949679  1.0000
  Rh  Rh5       1.0  0.25213952999999995  0.4981139300000001  0.45391785066859813  1.0000
  Rh  Rh6       1.0  0.25213952999999995  0.16478059000000003  0.4685016035527771  1.0000
  Rh  Rh7       1.0  0.25213952999999995  0.83144726  0.4830853599370575  1.0000
  Rh  Rh8       1.0  0.25213952999999995  0.83144726  0.43933409428431786  1.0000
  Rh  Rh9       1.0  0.9988602799999999  0.81621225  0.5476810585852381  1.0000
  Rh  Rh10      1.0  0.002139529999999939  0.83144726  0.5049609927634273  1.0000
  Rh  Rh11      1.0  0.002139529999999939  0.4981139300000001  0.5195447491477077  1.0000
  Rh  Rh12      1.0  0.001139719999999939  0.16352148000000002  0.5352143594439701  1.0000
  Rh  Rh13      1.0  0.25213952999999995  0.16478059000000003  0.5122528692055168  1.0000
  Rh  Rh14      1.0  0.2521387599999999  0.83374004  0.5264906755820278  1.0000
  Rh  Rh15      1.0  0.25213977999999987  0.49604236000000007  0.5416730437831714  1.0000
  Rh  Rh16      1.0  0.25213952999999995  0.4981139300000001  0.49766911632133776  1.0000
  Rh  Rh17      1.0  0.5021395299999999  0.16478059000000003  0.490377236379147  1.0000
  Rh  Rh18      1.0  0.5021395299999999  0.16478059000000003  0.4466259707264073  1.0000
  Rh  Rh19      1.0  0.5021395299999999  0.83144726  0.46120972711068764  1.0000
  Rh  Rh20      1.0  0.5021395299999999  0.4981139300000001  0.4757934834949679  1.0000
  Rh  Rh21      1.0  0.7521395299999999  0.4981139300000001  0.45391785066859813  1.0000
  Rh  Rh22      1.0  0.7521395299999999  0.16478059000000003  0.4685016035527771  1.0000
  Rh  Rh23      1.0  0.7521395299999999  0.83144726  0.4830853599370575  1.0000
  Rh  Rh24      1.0  0.7521395299999999  0.83144726  0.43933409428431786  1.0000
  Rh  Rh25      1.0  0.50541771  0.81621095  0.547680988583213  1.0000
  Rh  Rh26      1.0  0.5021395299999999  0.83144726  0.5049609927634273  1.0000
  Rh  Rh27      1.0  0.5021395299999999  0.4981139300000001  0.5195447491477077  1.0000
  Rh  Rh28      1.0  0.5031380199999999  0.16352169000000005  0.5352143734443751  1.0000
  Rh  Rh29      1.0  0.7521395299999999  0.16478059000000003  0.5122528692055168  1.0000
  Rh  Rh30      1.0  0.7521385899999999  0.83647852  0.5266863242418244  1.0000
  Rh  Rh31      1.0  0.7521301999999997  0.50045419  0.5409098817061374  1.0000
  Rh  Rh32      1.0  0.7521395299999999  0.4981139300000001  0.49766911632133776  1.0000
