data_image0
_chemical_formula_structural       COPd24
_chemical_formula_sum              "C1 O1 Pd24"
_cell_length_a       5.6258447
_cell_length_b       5.625844715439032
_cell_length_c       104.45112223999999
_cell_angle_alpha    90.0
_cell_angle_beta     90.0
_cell_angle_gamma    120.0000000268183

_space_group_name_H-M_alt    "P 1"
_space_group_IT_number       1

loop_
  _space_group_symop_operation_xyz
  'x, y, z'

loop_
  _atom_site_type_symbol
  _atom_site_label
  _atom_site_symmetry_multiplicity
  _atom_site_fract_x
  _atom_site_fract_y
  _atom_site_fract_z
  _atom_site_occupancy
  C   C1        1.0  0.416243365  0.25042336499999995  0.5559749437770414  1.0000
  O   O1        1.0  0.41596424499999995  0.250702135  0.5674264067552603  1.0000
  Pd  Pd1       1.0  0.25000000499999997  0.416666665  0.43257359324473965  1.0000
  Pd  Pd2       1.0  0.08333333499999995  0.08333333499999998  0.4765509397442145  1.0000
  Pd  Pd3       1.0  0.41666666499999994  0.2500000049999999  0.45456226649447706  1.0000
  Pd  Pd4       1.0  0.25000000499999997  0.416666665  0.49853960969565103  1.0000
  Pd  Pd5       1.0  0.08415381499999997  0.08375434499999998  0.5434310406884846  1.0000
  Pd  Pd6       1.0  0.4166070049999999  0.25006025499999995  0.5205822695332519  1.0000
  Pd  Pd7       1.0  0.25000000499999997  0.9166666649999999  0.43257359324473965  1.0000
  Pd  Pd8       1.0  0.08333333499999997  0.583333335  0.4765509397442145  1.0000
  Pd  Pd9       1.0  0.4166666649999999  0.750000005  0.45456226649447706  1.0000
  Pd  Pd10      1.0  0.25000000499999997  0.9166666649999999  0.49853960969565103  1.0000
  Pd  Pd11      1.0  0.08356254499999992  0.583104275  0.5421603768932005  1.0000
  Pd  Pd12      1.0  0.41872767499999997  0.751086975  0.5206874721362877  1.0000
  Pd  Pd13      1.0  0.7500000049999999  0.416666665  0.43257359324473965  1.0000
  Pd  Pd14      1.0  0.583333335  0.08333333499999998  0.4765509397442145  1.0000
  Pd  Pd15      1.0  0.9166666649999997  0.2500000049999999  0.45456226649447706  1.0000
  Pd  Pd16      1.0  0.7500000049999999  0.416666665  0.49853960969565103  1.0000
  Pd  Pd17      1.0  0.5828564949999999  0.08381073499999998  0.5435845864866765  1.0000
  Pd  Pd18      1.0  0.9155801949999998  0.24793938499999996  0.5206874754345887  1.0000
  Pd  Pd19      1.0  0.7500000049999999  0.9166666649999999  0.43257359324473965  1.0000
  Pd  Pd20      1.0  0.583333335  0.583333335  0.4765509397442145  1.0000
  Pd  Pd21      1.0  0.9166666649999998  0.750000005  0.45456226649447706  1.0000
  Pd  Pd22      1.0  0.7500000049999999  0.9166666649999999  0.49853960969565103  1.0000
  Pd  Pd23      1.0  0.582912625  0.582513345  0.5434310472850863  1.0000
  Pd  Pd24      1.0  0.9164418849999999  0.750225245  0.5206611253093173  1.0000
