data_image0
_chemical_formula_structural       COAu12
_chemical_formula_sum              "C1 O1 Au12"
_cell_length_a       5.9341629
_cell_length_b       5.934162893618572
_cell_length_c       99.07134228
_cell_angle_alpha    90.0
_cell_angle_beta     90.0
_cell_angle_gamma    119.99999992408387

_space_group_name_H-M_alt    "P 1"
_space_group_IT_number       1

loop_
  _space_group_symop_operation_xyz
  'x, y, z'

loop_
  _atom_site_type_symbol
  _atom_site_label
  _atom_site_symmetry_multiplicity
  _atom_site_fract_x
  _atom_site_fract_y
  _atom_site_fract_z
  _atom_site_occupancy
  C   C1        1.0  0.49858992  0.08620303500000003  0.5297192126530718  1.0000
  O   O1        1.0  0.5003522400000001  0.08444060500000003  0.5413989936297814  1.0000
  Au  Au1       1.0  0.16652326000000003  0.418267195  0.4586010063702187  1.0000
  Au  Au2       1.0  0.99949473  0.08173280500000003  0.5071411770923121  1.0000
  Au  Au3       1.0  0.33587810000000007  0.24891286500000004  0.4832506323736263  1.0000
  Au  Au4       1.0  0.16652326  0.918267195  0.4586010063702187  1.0000
  Au  Au5       1.0  0.0005052700000000115  0.5842874849999999  0.5069375190623342  1.0000
  Au  Au6       1.0  0.33687890000000004  0.755915315  0.4832155459367574  1.0000
  Au  Au7       1.0  0.6665232600000002  0.418267195  0.4586010063702187  1.0000
  Au  Au8       1.0  0.5006012300000001  0.08419185500000002  0.5091309627605992  1.0000
  Au  Au9       1.0  0.8288753100000001  0.24791185500000004  0.48321554887114204  1.0000
  Au  Au10      1.0  0.6665232600000001  0.918267195  0.4586010063702187  1.0000
  Au  Au11      1.0  0.50305847  0.585296935  0.5071411917642351  1.0000
  Au  Au12      1.0  0.8333599100000002  0.751431095  0.48271295334266306  1.0000
