data_image0
_chemical_formula_structural       COZn12
_chemical_formula_sum              "C1 O1 Zn12"
_cell_length_a       4.61531785
_cell_length_b       5.916443181908667
_cell_length_c       99.31120504
_cell_angle_alpha    103.01408747104847
_cell_angle_beta     90.0
_cell_angle_gamma    67.04291246870262

_space_group_name_H-M_alt    "P 1"
_space_group_IT_number       1

loop_
  _space_group_symop_operation_xyz
  'x, y, z'

loop_
  _atom_site_type_symbol
  _atom_site_label
  _atom_site_symmetry_multiplicity
  _atom_site_fract_x
  _atom_site_fract_y
  _atom_site_fract_z
  _atom_site_occupancy
  C   C1        1.0  0.4216771150000001  0.5844988049999998  0.5375307333903241  1.0000
  O   O1        1.0  0.293737845  0.693073735  0.5487881271977695  1.0000
  Zn  Zn1       1.0  0.07691468500000001  0.296906405  0.45791971277558663  1.0000
  Zn  Zn2       1.0  0.576914685  0.296906405  0.47133539567374805  1.0000
  Zn  Zn3       1.0  0.49358134500000017  0.796906405  0.4646275557003922  1.0000
  Zn  Zn4       1.0  0.993581345  0.796906405  0.4512118728022308  1.0000
  Zn  Zn5       1.0  0.07691468500000001  0.296906405  0.48475107562045955  1.0000
  Zn  Zn6       1.0  0.5581133850000001  0.31469555499999996  0.49926684950422057  1.0000
  Zn  Zn7       1.0  0.49358134500000017  0.796906405  0.4914589185452652  1.0000
  Zn  Zn8       1.0  0.993581345  0.796906405  0.47804323564710377  1.0000
  Zn  Zn9       1.0  0.08692351500000002  0.237246305  0.5117797251852856  1.0000
  Zn  Zn10      1.0  0.597749485  0.203093595  0.5243110061081917  1.0000
  Zn  Zn11      1.0  0.5115192150000001  0.762780225  0.5204020792413608  1.0000
  Zn  Zn12      1.0  0.006418655000000045  0.765861795  0.5073516117105281  1.0000
