data_image0
_chemical_formula_structural       V6Au2V6Au2CO
_chemical_formula_sum              "V12 Au4 C1 O1"
_cell_length_a       4.88416795
_cell_length_b       4.88416795
_cell_length_c       104.18917565000001
_cell_angle_alpha    90.0
_cell_angle_beta     90.0
_cell_angle_gamma    90.0

_space_group_name_H-M_alt    "P 1"
_space_group_IT_number       1

loop_
  _space_group_symop_operation_xyz
  'x, y, z'

loop_
  _atom_site_type_symbol
  _atom_site_label
  _atom_site_symmetry_multiplicity
  _atom_site_fract_x
  _atom_site_fract_y
  _atom_site_fract_z
  _atom_site_occupancy
  V   V1        1.0  0.375009385  1.3524999999991086e-05  0.46017170217258807  1.0000
  V   V2        1.0  0.8750093849999999  1.3524999999991086e-05  0.46017170217258807  1.0000
  V   V3        1.0  0.125009385  0.500013525  0.4484522333840539  1.0000
  V   V4        1.0  0.125009385  0.500013525  0.4718911742425741  1.0000
  V   V5        1.0  0.625009385  0.250013525  0.48361064631256  1.0000
  V   V6        1.0  0.625009385  0.750013525  0.48361064631256  1.0000
  Au  Au1       1.0  0.625009385  0.500013525  0.46017170217258807  1.0000
  Au  Au2       1.0  0.125009385  1.3524999999991086e-05  0.48361064631256  1.0000
  V   V7        1.0  0.37703812499999995  9.504999999991087e-06  0.5071244239605077  1.0000
  V   V8        1.0  0.8729754750000001  9.514999999991085e-06  0.5071239908088719  1.0000
  V   V9        1.0  0.125009385  0.500013525  0.4953301151010943  1.0000
  V   V10       1.0  0.125013035  0.499997235  0.5209610952856095  1.0000
  V   V11       1.0  0.624991505  0.226631335  0.5289961040686979  1.0000
  V   V12       1.0  0.624992325  0.773307525  0.5289991755075694  1.0000
  Au  Au3       1.0  0.625008925  0.5000163749999998  0.5068968487162574  1.0000
  Au  Au4       1.0  0.12499061499999999  0.999990495  0.5307395394025051  1.0000
  C   C1        1.0  0.12505906499999997  0.49999835499999995  0.539986641001885  1.0000
  O   O1        1.0  0.125072425  0.4999965649999999  0.5515477666159461  1.0000
