data_image0
_chemical_formula_structural       COFe48
_chemical_formula_sum              "C1 O1 Fe48"
_cell_length_a       7.85102208
_cell_length_b       7.851022091299429
_cell_length_c       103.65424663
_cell_angle_alpha    90.0
_cell_angle_beta     90.0
_cell_angle_gamma    60.00000004760936

_space_group_name_H-M_alt    "P 1"
_space_group_IT_number       1

loop_
  _space_group_symop_operation_xyz
  'x, y, z'

loop_
  _atom_site_type_symbol
  _atom_site_label
  _atom_site_symmetry_multiplicity
  _atom_site_fract_x
  _atom_site_fract_y
  _atom_site_fract_z
  _atom_site_occupancy
  C   C1        1.0  0.08320666999999998  0.08320430000000001  0.5445896700187205  1.0000
  O   O1        1.0  0.08323546999999999  0.08321985000000001  0.5559247968240734  1.0000
  Fe  Fe1       1.0  0.41650795  0.4165197400000001  0.4518056289353475  1.0000
  Fe  Fe2       1.0  0.08317461999999998  0.08318641  0.48272733846658966  1.0000
  Fe  Fe3       1.0  0.24984129  0.24985308  0.46726648370096857  1.0000
  Fe  Fe4       1.0  0.41650795  0.4165197400000001  0.47499690946038947  1.0000
  Fe  Fe5       1.0  0.08317461999999998  0.08318641  0.45953605794154767  1.0000
  Fe  Fe6       1.0  0.24984129  0.24985308  0.4440752031759266  1.0000
  Fe  Fe7       1.0  0.4167450399999999  0.41676065  0.5026756383850162  1.0000
  Fe  Fe8       1.0  0.08313648999999998  0.08313081000000001  0.5274917566428639  1.0000
  Fe  Fe9       1.0  0.24665806  0.24666615000000003  0.5137559806753434  1.0000
  Fe  Fe10      1.0  0.41670686999999995  0.41671462000000004  0.5249691129938338  1.0000
  Fe  Fe11      1.0  0.08315309999999998  0.08314068000000001  0.5037141142628581  1.0000
  Fe  Fe12      1.0  0.24984129  0.24985308  0.4904577642260106  1.0000
  Fe  Fe13      1.0  0.41650795000000007  0.9165197399999999  0.4518056289353475  1.0000
  Fe  Fe14      1.0  0.08317461999999999  0.58318641  0.48272733846658966  1.0000
  Fe  Fe15      1.0  0.24984128999999994  0.7498530800000001  0.46726648370096857  1.0000
  Fe  Fe16      1.0  0.41650795000000007  0.9165197399999999  0.47499690946038947  1.0000
  Fe  Fe17      1.0  0.08317461999999999  0.58318641  0.45953605794154767  1.0000
  Fe  Fe18      1.0  0.24984128999999994  0.7498530800000001  0.4440752031759266  1.0000
  Fe  Fe19      1.0  0.41990998  0.9152364900000001  0.5021920111218793  1.0000
  Fe  Fe20      1.0  0.08310538999999999  0.58331559  0.5257696161800645  1.0000
  Fe  Fe21      1.0  0.24709447999999998  0.75591717  0.5137545553392139  1.0000
  Fe  Fe22      1.0  0.41662612999999993  0.91689842  0.5248039688095631  1.0000
  Fe  Fe23      1.0  0.08656872999999995  0.5818575400000001  0.5040555390845298  1.0000
  Fe  Fe24      1.0  0.24984128999999994  0.7498530800000001  0.4904577642260106  1.0000
  Fe  Fe25      1.0  0.9165079500000001  0.4165197400000001  0.4518056289353475  1.0000
  Fe  Fe26      1.0  0.58317462  0.08318641  0.48272733846658966  1.0000
  Fe  Fe27      1.0  0.74984129  0.24985308  0.46726648370096857  1.0000
  Fe  Fe28      1.0  0.9165079500000001  0.4165197400000001  0.47499690946038947  1.0000
  Fe  Fe29      1.0  0.58317462  0.08318641  0.45953605794154767  1.0000
  Fe  Fe30      1.0  0.74984129  0.24985308  0.4440752031759266  1.0000
  Fe  Fe31      1.0  0.9152531899999999  0.41989593000000003  0.5021903844854307  1.0000
  Fe  Fe32      1.0  0.58330614  0.08310158000000001  0.5257725220475724  1.0000
  Fe  Fe33      1.0  0.7559528700000001  0.24707315000000002  0.5137548767703684  1.0000
  Fe  Fe34      1.0  0.9168946099999999  0.41665186000000004  0.5248026960720625  1.0000
  Fe  Fe35      1.0  0.58186929  0.08658766000000001  0.5040581754693526  1.0000
  Fe  Fe36      1.0  0.74984129  0.24985308  0.4904577642260106  1.0000
  Fe  Fe37      1.0  0.9165079499999998  0.9165197399999999  0.4518056289353475  1.0000
  Fe  Fe38      1.0  0.58317462  0.58318641  0.48272733846658966  1.0000
  Fe  Fe39      1.0  0.74984129  0.7498530800000001  0.46726648370096857  1.0000
  Fe  Fe40      1.0  0.9165079499999998  0.9165197399999999  0.47499690946038947  1.0000
  Fe  Fe41      1.0  0.58317462  0.58318641  0.45953605794154767  1.0000
  Fe  Fe42      1.0  0.74984129  0.7498530800000001  0.4440752031759266  1.0000
  Fe  Fe43      1.0  0.91492896  0.9149171799999999  0.5022121833619091  1.0000
  Fe  Fe44      1.0  0.58310333  0.58312401  0.5257765058458206  1.0000
  Fe  Fe45      1.0  0.7498919599999998  0.7498883500000001  0.5136020151523353  1.0000
  Fe  Fe46      1.0  0.9168649900000001  0.91683941  0.5248161929337724  1.0000
  Fe  Fe47      1.0  0.5820769  0.5820193800000001  0.5040423084587257  1.0000
  Fe  Fe48      1.0  0.74984129  0.7498530800000001  0.4904577642260106  1.0000
