data_image0
_chemical_formula_structural       In8Pd24CO
_chemical_formula_sum              "In8 Pd24 C1 O1"
_cell_length_a       5.7598712
_cell_length_b       7.05437271
_cell_length_c       30.094441760000002
_cell_angle_alpha    90.0
_cell_angle_beta     90.0
_cell_angle_gamma    90.0

_space_group_name_H-M_alt    "P 1"
_space_group_IT_number       1

loop_
  _space_group_symop_operation_xyz
  'x, y, z'

loop_
  _atom_site_type_symbol
  _atom_site_label
  _atom_site_symmetry_multiplicity
  _atom_site_fract_x
  _atom_site_fract_y
  _atom_site_fract_z
  _atom_site_occupancy
  In  In1       1.0  0.12500776  0.17141786499999997  0.4827998881043316  1.0000
  In  In2       1.0  0.6249900399999999  0.17686660499999998  0.6479094631360979  1.0000
  In  In3       1.0  0.1250007  0.832047375  0.5917200025755929  1.0000
  In  In4       1.0  0.62500776  0.5047512049999999  0.5380503340357228  1.0000
  In  In5       1.0  0.12500776  0.8380845349999999  0.26179806459843974  1.0000
  In  In6       1.0  0.62500776  0.8380845349999999  0.4275494289128314  1.0000
  In  In7       1.0  0.12500776  0.5047512049999999  0.3722989697213311  1.0000
  In  In8       1.0  0.62500776  0.17141786499999997  0.31704852378994003  1.0000
  Pd  Pd1       1.0  0.87410034  0.49914861499999996  0.6214993302719183  1.0000
  Pd  Pd2       1.0  0.37500776  0.17141786499999997  0.5656755702615275  1.0000
  Pd  Pd3       1.0  0.8750077600000001  0.8380845349999999  0.5104251110700272  1.0000
  Pd  Pd4       1.0  0.38118105999999996  0.8399584449999999  0.6746956792158523  1.0000
  Pd  Pd5       1.0  0.12499223999999999  0.160041555  0.6461820289374315  1.0000
  Pd  Pd6       1.0  0.62499773  0.8338447449999999  0.5928481726616623  1.0000
  Pd  Pd7       1.0  0.12500776  0.5047512049999999  0.5380503340357228  1.0000
  Pd  Pd8       1.0  0.62500776  0.17141786499999997  0.4827998881043316  1.0000
  Pd  Pd9       1.0  0.37595029999999996  0.49917770499999997  0.6214995026533372  1.0000
  Pd  Pd10      1.0  0.8750077600000001  0.17141786499999997  0.5656755702615275  1.0000
  Pd  Pd11      1.0  0.37500776  0.8380845349999999  0.5104251110700272  1.0000
  Pd  Pd12      1.0  0.8688506300000001  0.839932375  0.6746988086016106  1.0000
  Pd  Pd13      1.0  0.8750077600000001  0.17141786499999997  0.39992420594713585  1.0000
  Pd  Pd14      1.0  0.37500776  0.8380845349999999  0.34467374675563556  1.0000
  Pd  Pd15      1.0  0.8750077600000001  0.5047512049999999  0.2894232875641353  1.0000
  Pd  Pd16      1.0  0.37500776  0.5047512049999999  0.4551746518785269  1.0000
  Pd  Pd17      1.0  0.12500776  0.8380845349999999  0.4275494289128314  1.0000
  Pd  Pd18      1.0  0.62500776  0.5047512049999999  0.3722989697213311  1.0000
  Pd  Pd19      1.0  0.12500776  0.17141786499999997  0.31704852378994003  1.0000
  Pd  Pd20      1.0  0.62500776  0.8380845349999999  0.26179806459843974  1.0000
  Pd  Pd21      1.0  0.37500776  0.17141786499999997  0.39992420594713585  1.0000
  Pd  Pd22      1.0  0.8750077600000001  0.8380845349999999  0.34467374675563556  1.0000
  Pd  Pd23      1.0  0.37500776  0.5047512049999999  0.2894232875641353  1.0000
  Pd  Pd24      1.0  0.8750077600000001  0.5047512049999999  0.4551746518785269  1.0000
  C   C1        1.0  0.62495633  0.687534455  0.7070163333500642  1.0000
  O   O1        1.0  0.62498219  0.5848359649999999  0.7382019354015603  1.0000
