data_image0
_chemical_formula_structural       COAl3Ni3Al3Ni3Al3Ni3Al3Ni3Al3Ni3Al3Ni3Al3Ni3Al3Ni3
_chemical_formula_sum              "C1 O1 Al24 Ni24"
_cell_length_a       8.24841874
_cell_length_b       8.248418726433597
_cell_length_c       100.30662562
_cell_angle_alpha    90.0
_cell_angle_beta     90.0
_cell_angle_gamma    60.00000002580152

_space_group_name_H-M_alt    "P 1"
_space_group_IT_number       1

loop_
  _space_group_symop_operation_xyz
  'x, y, z'

loop_
  _atom_site_type_symbol
  _atom_site_label
  _atom_site_symmetry_multiplicity
  _atom_site_fract_x
  _atom_site_fract_y
  _atom_site_fract_z
  _atom_site_occupancy
  C   C1        1.0  0.08308488500000011  0.3337643249999999  0.5437884425133135  1.0000
  O   O1        1.0  0.12828384500000004  0.310972875  0.5554483232553736  1.0000
  Al  Al1       1.0  0.41401144500000003  0.41827839499999997  0.47812276730996606  1.0000
  Al  Al2       1.0  0.08067811500000006  0.08494506499999996  0.46133722353799533  1.0000
  Al  Al3       1.0  0.24734478500000007  0.25161173499999995  0.4445516767446264  1.0000
  Ni  Ni1       1.0  0.41401144500000003  0.41827839499999997  0.45294445014131085  1.0000
  Ni  Ni2       1.0  0.08067811500000006  0.08494506499999996  0.4865155407066505  1.0000
  Ni  Ni3       1.0  0.24734478500000007  0.25161173499999995  0.46972999693467976  1.0000
  Al  Al4       1.0  0.41402318500000007  0.418202965  0.5287784989174176  1.0000
  Al  Al5       1.0  0.08049980500000008  0.08445873499999997  0.5114566750966916  1.0000
  Al  Al6       1.0  0.24734478500000007  0.25161173499999995  0.49490831410333497  1.0000
  Ni  Ni4       1.0  0.41401144500000003  0.41827839499999997  0.5033010875000193  1.0000
  Ni  Ni5       1.0  0.08001486500000007  0.11026623499999996  0.5350520213303077  1.0000
  Ni  Ni6       1.0  0.25148826500000004  0.24954360499999997  0.5204633089832271  1.0000
  Al  Al7       1.0  0.41401144500000014  0.918278395  0.47812276730996606  1.0000
  Al  Al8       1.0  0.0806781150000001  0.5849450649999999  0.46133722353799533  1.0000
  Al  Al9       1.0  0.24734478500000012  0.751611735  0.4445516767446264  1.0000
  Ni  Ni7       1.0  0.41401144500000014  0.918278395  0.45294445014131085  1.0000
  Ni  Ni8       1.0  0.0806781150000001  0.5849450649999999  0.4865155407066505  1.0000
  Ni  Ni9       1.0  0.24734478500000012  0.751611735  0.46972999693467976  1.0000
  Al  Al10      1.0  0.41403402500000014  0.918340275  0.5287732930483515  1.0000
  Al  Al11      1.0  0.08051179500000004  0.585602225  0.5114570104718897  1.0000
  Al  Al12      1.0  0.24734478500000012  0.751611735  0.49490831410333497  1.0000
  Ni  Ni10      1.0  0.41401144500000014  0.918278395  0.5033010875000193  1.0000
  Ni  Ni11      1.0  0.08000499500000004  0.560283595  0.5350546227541416  1.0000
  Ni  Ni12      1.0  0.24249339499999994  0.754026215  0.521224767795623  1.0000
  Al  Al13      1.0  0.914011445  0.41827839499999997  0.47812276730996606  1.0000
  Al  Al14      1.0  0.5806781150000001  0.08494506499999996  0.46133722353799533  1.0000
  Al  Al15      1.0  0.7473447850000001  0.25161173499999995  0.4445516767446264  1.0000
  Ni  Ni13      1.0  0.914011445  0.41827839499999997  0.45294445014131085  1.0000
  Ni  Ni14      1.0  0.5806781150000001  0.08494506499999996  0.4865155407066505  1.0000
  Ni  Ni15      1.0  0.7473447850000001  0.25161173499999995  0.46972999693467976  1.0000
  Al  Al16      1.0  0.8920029349999999  0.42929108499999996  0.5279123305296576  1.0000
  Al  Al17      1.0  0.5812353050000001  0.08467591499999996  0.511078453450984  1.0000
  Al  Al18      1.0  0.7473447850000001  0.25161173499999995  0.49490831410333497  1.0000
  Ni  Ni16      1.0  0.914011445  0.41827839499999997  0.5033010875000193  1.0000
  Ni  Ni17      1.0  0.587237865  0.08165972499999996  0.5341276275782001  1.0000
  Ni  Ni18      1.0  0.7467958450000001  0.24856008499999996  0.5205980059355385  1.0000
  Al  Al19      1.0  0.914011445  0.918278395  0.47812276730996606  1.0000
  Al  Al20      1.0  0.5806781150000001  0.5849450649999999  0.46133722353799533  1.0000
  Al  Al21      1.0  0.747344785  0.751611735  0.4445516767446264  1.0000
  Ni  Ni19      1.0  0.914011445  0.918278395  0.45294445014131085  1.0000
  Ni  Ni20      1.0  0.5806781150000001  0.5849450649999999  0.4865155407066505  1.0000
  Ni  Ni21      1.0  0.747344785  0.751611735  0.46972999693467976  1.0000
  Al  Al22      1.0  0.9199950049999999  0.9152832949999999  0.5293611211714744  1.0000
  Al  Al23      1.0  0.5765084350000002  0.5870244649999999  0.5111702616561148  1.0000
  Al  Al24      1.0  0.747344785  0.751611735  0.49490831410333497  1.0000
  Ni  Ni22      1.0  0.914011445  0.918278395  0.5033010875000193  1.0000
  Ni  Ni23      1.0  0.567994815  0.591295115  0.5343669283569391  1.0000
  Ni  Ni24      1.0  0.7468213849999998  0.7551895949999999  0.5205920658667146  1.0000
