data_image0
_chemical_formula_structural       COOs18
_chemical_formula_sum              "C1 O1 Os18"
_cell_length_a       5.151223790187199
_cell_length_b       6.469294553875249
_cell_length_c       99.39924092
_cell_angle_alpha    85.5434437625111
_cell_angle_beta     85.85385157322253
_cell_angle_gamma    77.18903513602363

_space_group_name_H-M_alt    "P 1"
_space_group_IT_number       1

loop_
  _space_group_symop_operation_xyz
  'x, y, z'

loop_
  _atom_site_type_symbol
  _atom_site_label
  _atom_site_symmetry_multiplicity
  _atom_site_fract_x
  _atom_site_fract_y
  _atom_site_fract_z
  _atom_site_occupancy
  C   C1        1.0  0.6049104900000001  0.8019332049999999  0.5391954649185179  1.0000
  O   O1        1.0  0.53003354  0.7987266249999998  0.550621602651186  1.0000
  Os  Os1       1.0  0.7203400999999999  0.804736755  0.5205258697379637  1.0000
  Os  Os2       1.0  0.12024882999999999  0.47791076499999996  0.5114329315527988  1.0000
  Os  Os3       1.0  0.51987018  0.13980929499999997  0.5031200552401868  1.0000
  Os  Os4       1.0  0.2103375300000001  0.8650997949999999  0.5132522112899234  1.0000
  Os  Os5       1.0  0.6187664399999999  0.521792775  0.5044247970091588  1.0000
  Os  Os6       1.0  0.8332242000000001  0.19403185499999998  0.5207346887579303  1.0000
  Os  Os7       1.0  0.9117091199999998  0.798990455  0.4938390817416543  1.0000
  Os  Os8       1.0  0.30391484999999996  0.468233535  0.48522921758970505  1.0000
  Os  Os9       1.0  0.6978542499999999  0.13490020499999997  0.4762665125294824  1.0000
  Os  Os10      1.0  0.40492494999999995  0.8571224249999999  0.48672300028756255  1.0000
  Os  Os11      1.0  0.79886435  0.5237890949999999  0.47776029522733976  1.0000
  Os  Os12      1.0  0.019317470000000014  0.185347355  0.4956479326543206  1.0000
  Os  Os13      1.0  0.09179364000000005  0.8015668749999998  0.4673038074692595  1.0000
  Os  Os14      1.0  0.48573303000000007  0.468233535  0.45834110240903675  1.0000
  Os  Os15      1.0  0.87967243  0.13490020499999997  0.44937839734881396  1.0000
  Os  Os16      1.0  0.58674314  0.8571224249999999  0.4598348851068942  1.0000
  Os  Os17      1.0  0.9806825299999999  0.5237890949999999  0.45087218004667134  1.0000
  Os  Os18      1.0  0.19280374000000003  0.19045575499999995  0.46879759016711703  1.0000
