data_image0
_chemical_formula_structural       COCu32
_chemical_formula_sum              "C1 O1 Cu32"
_cell_length_a       5.20018608
_cell_length_b       6.36890124
_cell_length_c       106.02794604
_cell_angle_alpha    90.0
_cell_angle_beta     90.0
_cell_angle_gamma    90.0

_space_group_name_H-M_alt    "P 1"
_space_group_IT_number       1

loop_
  _space_group_symop_operation_xyz
  'x, y, z'

loop_
  _atom_site_type_symbol
  _atom_site_label
  _atom_site_symmetry_multiplicity
  _atom_site_fract_x
  _atom_site_fract_y
  _atom_site_fract_z
  _atom_site_occupancy
  C   C1        1.0  0.375783325  0.48594099999999996  0.5536029292283554  1.0000
  O   O1        1.0  0.375784465  0.47807068999999996  0.5645663236010546  1.0000
  Cu  Cu1       1.0  0.12578271500000002  0.16471510999999997  0.48498736050116653  1.0000
  Cu  Cu2       1.0  0.12578271500000002  0.16471510999999997  0.4425127731569864  1.0000
  Cu  Cu3       1.0  0.12578271500000002  0.8313817799999998  0.45667097007103546  1.0000
  Cu  Cu4       1.0  0.12578271500000002  0.4980484499999999  0.4708291669850845  1.0000
  Cu  Cu5       1.0  0.375782715  0.4980484499999999  0.44959187331299444  1.0000
  Cu  Cu6       1.0  0.375782715  0.16471510999999997  0.4637500668290765  1.0000
  Cu  Cu7       1.0  0.375782715  0.8313817799999998  0.47790826374312556  1.0000
  Cu  Cu8       1.0  0.375782715  0.8313817799999998  0.43543367639894537  1.0000
  Cu  Cu9       1.0  0.12421728500000001  0.8352758000000001  0.540425616648664  1.0000
  Cu  Cu10      1.0  0.12578271500000002  0.8313817799999998  0.4991455574152156  1.0000
  Cu  Cu11      1.0  0.13109767500000002  0.49850748999999994  0.5135740931848259  1.0000
  Cu  Cu12      1.0  0.12526725500000002  0.16819738999999995  0.5275177968307538  1.0000
  Cu  Cu13      1.0  0.375782715  0.16471510999999997  0.5062246541732567  1.0000
  Cu  Cu14      1.0  0.37578591499999997  0.8352235299999998  0.5202697361642576  1.0000
  Cu  Cu15      1.0  0.375783185  0.49248676999999996  0.53583494625867  1.0000
  Cu  Cu16      1.0  0.375782715  0.4980484499999999  0.4920664606571746  1.0000
  Cu  Cu17      1.0  0.625782715  0.16471510999999997  0.48498736050116653  1.0000
  Cu  Cu18      1.0  0.625782715  0.16471510999999997  0.4425127731569864  1.0000
  Cu  Cu19      1.0  0.625782715  0.8313817799999998  0.45667097007103546  1.0000
  Cu  Cu20      1.0  0.625782715  0.4980484499999999  0.4708291669850845  1.0000
  Cu  Cu21      1.0  0.875782715  0.4980484499999999  0.44959187331299444  1.0000
  Cu  Cu22      1.0  0.875782715  0.16471510999999997  0.4637500668290765  1.0000
  Cu  Cu23      1.0  0.875782715  0.8313817799999998  0.47790826374312556  1.0000
  Cu  Cu24      1.0  0.875782715  0.8313817799999998  0.43543367639894537  1.0000
  Cu  Cu25      1.0  0.6273482450000001  0.8352848899999998  0.5404262418745897  1.0000
  Cu  Cu26      1.0  0.625782715  0.8313817799999998  0.4991455574152156  1.0000
  Cu  Cu27      1.0  0.6204700750000001  0.4985084699999999  0.5135734237853293  1.0000
  Cu  Cu28      1.0  0.626295005  0.16819978999999996  0.5275184628322833  1.0000
  Cu  Cu29      1.0  0.875782715  0.16471510999999997  0.5062246541732567  1.0000
  Cu  Cu30      1.0  0.8757798750000001  0.8344843900000001  0.5202505308548441  1.0000
  Cu  Cu31      1.0  0.8757783250000001  0.5007975299999999  0.5340726620378919  1.0000
  Cu  Cu32      1.0  0.875782715  0.4980484499999999  0.4920664606571746  1.0000
