data_image0
_chemical_formula_structural       COOs24
_chemical_formula_sum              "C1 O1 Os24"
_cell_length_a       8.68948186
_cell_length_b       4.7932242
_cell_length_c       100.44106209
_cell_angle_alpha    90.0
_cell_angle_beta     90.0
_cell_angle_gamma    90.0

_space_group_name_H-M_alt    "P 1"
_space_group_IT_number       1

loop_
  _space_group_symop_operation_xyz
  'x, y, z'

loop_
  _atom_site_type_symbol
  _atom_site_label
  _atom_site_symmetry_multiplicity
  _atom_site_fract_x
  _atom_site_fract_y
  _atom_site_fract_z
  _atom_site_occupancy
  C   C1        1.0  0.136186965  0.71007311  0.5381461298447907  1.0000
  O   O1        1.0  0.14392098499999997  0.7431955699999999  0.5497501648604276  1.0000
  Os  Os1       1.0  0.373734715  0.33626538  0.4640259188011781  1.0000
  Os  Os2       1.0  0.373734715  0.83626538  0.45024983513957223  1.0000
  Os  Os3       1.0  0.12373471499999998  0.6695987200000001  0.4640259188011781  1.0000
  Os  Os4       1.0  0.12373471499999998  0.16959871999999998  0.45024983513957223  1.0000
  Os  Os5       1.0  0.373558685  0.33791072  0.49166342566665416  1.0000
  Os  Os6       1.0  0.373734715  0.83626538  0.47780200549352275  1.0000
  Os  Os7       1.0  0.12433227499999998  0.66728566  0.4914865184139547  1.0000
  Os  Os8       1.0  0.12373471499999998  0.16959871999999998  0.47780200549352275  1.0000
  Os  Os9       1.0  0.376301555  0.35496828  0.5179249498542454  1.0000
  Os  Os10      1.0  0.373031315  0.8495786599999999  0.5053803341537906  1.0000
  Os  Os11      1.0  0.125430185  0.6516806399999999  0.5195249950493402  1.0000
  Os  Os12      1.0  0.12474504499999998  0.15820721000000001  0.5051003211681615  1.0000
  Os  Os13      1.0  0.873734715  0.33626538  0.4640259188011781  1.0000
  Os  Os14      1.0  0.873734715  0.83626538  0.45024983513957223  1.0000
  Os  Os15      1.0  0.623734715  0.6695987200000001  0.4640259188011781  1.0000
  Os  Os16      1.0  0.623734715  0.16959871999999998  0.45024983513957223  1.0000
  Os  Os17      1.0  0.875006555  0.33745350999999996  0.49166554718379263  1.0000
  Os  Os18      1.0  0.873734715  0.83626538  0.47780200549352275  1.0000
  Os  Os19      1.0  0.624269795  0.6666808300000001  0.4915443509711494  1.0000
  Os  Os20      1.0  0.623734715  0.16959871999999998  0.47780200549352275  1.0000
  Os  Os21      1.0  0.874228645  0.35709615  0.5178973671007066  1.0000
  Os  Os22      1.0  0.876265285  0.85000635  0.5054210642521104  1.0000
  Os  Os23      1.0  0.624745455  0.64295528  0.5176348384470372  1.0000
  Os  Os24      1.0  0.624476935  0.14999365  0.505178723349383  1.0000
