data_image0
_chemical_formula_structural       CONi32
_chemical_formula_sum              "C1 O1 Ni32"
_cell_length_a       5.01325844
_cell_length_b       6.13996256
_cell_length_c       104.73287327
_cell_angle_alpha    90.0
_cell_angle_beta     90.0
_cell_angle_gamma    90.0

_space_group_name_H-M_alt    "P 1"
_space_group_IT_number       1

loop_
  _space_group_symop_operation_xyz
  'x, y, z'

loop_
  _atom_site_type_symbol
  _atom_site_label
  _atom_site_symmetry_multiplicity
  _atom_site_fract_x
  _atom_site_fract_y
  _atom_site_fract_z
  _atom_site_occupancy
  C   C1        1.0  0.12430037500000005  0.839294375  0.55445702299431  1.0000
  O   O1        1.0  0.12428149500000002  0.8625778649999999  0.5655259231936701  1.0000
  Ni  Ni1       1.0  0.12430904500000003  0.137422135  0.48283721639454724  1.0000
  Ni  Ni2       1.0  0.12430904500000003  0.137422135  0.441383095799981  1.0000
  Ni  Ni3       1.0  0.12430904500000003  0.8040888049999999  0.45520113710361293  1.0000
  Ni  Ni4       1.0  0.12430904500000003  0.470755475  0.46901917840724494  1.0000
  Ni  Ni5       1.0  0.374309045  0.470755475  0.4482921181099618  1.0000
  Ni  Ni6       1.0  0.374309045  0.137422135  0.46211015609726414  1.0000
  Ni  Ni7       1.0  0.374309045  0.8040888049999999  0.47592819740089604  1.0000
  Ni  Ni8       1.0  0.374309045  0.8040888049999999  0.4344740768063298  1.0000
  Ni  Ni9       1.0  0.12429962500000002  0.8068527950000001  0.5378965694192611  1.0000
  Ni  Ni10      1.0  0.12430904500000003  0.8040888049999999  0.49665525769817914  1.0000
  Ni  Ni11      1.0  0.12430868500000004  0.471086155  0.510351387407637  1.0000
  Ni  Ni12      1.0  0.12430783500000005  0.14243473500000003  0.5245925724763204  1.0000
  Ni  Ni13      1.0  0.374309045  0.137422135  0.5035642766918302  1.0000
  Ni  Ni14      1.0  0.372886785  0.8079848149999999  0.5173809350859992  1.0000
  Ni  Ni15      1.0  0.37500709500000007  0.47103963499999996  0.5307832744683089  1.0000
  Ni  Ni16      1.0  0.374309045  0.470755475  0.489746238704528  1.0000
  Ni  Ni17      1.0  0.6243090450000001  0.137422135  0.48283721639454724  1.0000
  Ni  Ni18      1.0  0.6243090450000001  0.137422135  0.441383095799981  1.0000
  Ni  Ni19      1.0  0.6243090450000001  0.8040888049999999  0.45520113710361293  1.0000
  Ni  Ni20      1.0  0.6243090450000001  0.470755475  0.46901917840724494  1.0000
  Ni  Ni21      1.0  0.8743090450000001  0.470755475  0.4482921181099618  1.0000
  Ni  Ni22      1.0  0.8743090450000001  0.137422135  0.46211015609726414  1.0000
  Ni  Ni23      1.0  0.8743090450000001  0.8040888049999999  0.47592819740089604  1.0000
  Ni  Ni24      1.0  0.8743090450000001  0.8040888049999999  0.4344740768063298  1.0000
  Ni  Ni25      1.0  0.6243051050000001  0.799469255  0.5371806070116482  1.0000
  Ni  Ni26      1.0  0.6243090450000001  0.8040888049999999  0.49665525769817914  1.0000
  Ni  Ni27      1.0  0.6243075050000001  0.47021352499999997  0.5104288635008634  1.0000
  Ni  Ni28      1.0  0.6243095350000002  0.139214935  0.5246745222982414  1.0000
  Ni  Ni29      1.0  0.8743090450000001  0.137422135  0.5035642766918302  1.0000
  Ni  Ni30      1.0  0.8757185049999999  0.8079727749999999  0.5173822947811547  1.0000
  Ni  Ni31      1.0  0.8736169450000001  0.471032805  0.5307855328887989  1.0000
  Ni  Ni32      1.0  0.8743090450000001  0.470755475  0.489746238704528  1.0000
