data_image0
_chemical_formula_structural       COGa16
_chemical_formula_sum              "C1 O1 Ga16"
_cell_length_a       7.85148198
_cell_length_b       4.66766583
_cell_length_c       102.44056239
_cell_angle_alpha    90.0
_cell_angle_beta     90.0
_cell_angle_gamma    90.0

_space_group_name_H-M_alt    "P 1"
_space_group_IT_number       1

loop_
  _space_group_symop_operation_xyz
  'x, y, z'

loop_
  _atom_site_type_symbol
  _atom_site_label
  _atom_site_symmetry_multiplicity
  _atom_site_fract_x
  _atom_site_fract_y
  _atom_site_fract_z
  _atom_site_occupancy
  C   C1        1.0  0.7429493599999999  0.281959485  0.5345290000416117  1.0000
  O   O1        1.0  0.7433838399999999  0.295057505  0.5460132032583285  1.0000
  Ga  Ga1       1.0  0.64330303  0.128598625  0.4766065767140987  1.0000
  Ga  Ga2       1.0  0.8307873100000001  0.628598625  0.4766065767140987  1.0000
  Ga  Ga3       1.0  0.3307873099999999  0.964990405  0.4766065767140987  1.0000
  Ga  Ga4       1.0  0.14330303  0.46499040499999994  0.4766065767140987  1.0000
  Ga  Ga5       1.0  0.14330303  0.128598625  0.45398679674167164  1.0000
  Ga  Ga6       1.0  0.3307873099999999  0.628598625  0.45398679674167164  1.0000
  Ga  Ga7       1.0  0.8307873100000001  0.964990405  0.45398679674167164  1.0000
  Ga  Ga8       1.0  0.64330303  0.46499040499999994  0.45398679674167164  1.0000
  Ga  Ga9       1.0  0.6294229499999999  0.013646885000000008  0.5184427337333324  1.0000
  Ga  Ga10      1.0  0.85669697  0.577300105  0.5184771280142597  1.0000
  Ga  Ga11      1.0  0.30769891  0.986353115  0.523484670575344  1.0000
  Ga  Ga12      1.0  0.1739706  0.48342366500000006  0.5230795394504408  1.0000
  Ga  Ga13      1.0  0.16245494999999996  0.173760895  0.4993104185765185  1.0000
  Ga  Ga14      1.0  0.33290591999999997  0.673849445  0.4994538542233571  1.0000
  Ga  Ga15      1.0  0.85567394  0.982291915  0.49773991953089763  1.0000
  Ga  Ga16      1.0  0.62995739  0.443432615  0.4988923670330366  1.0000
