data_image0
_chemical_formula_structural       COCo18
_chemical_formula_sum              "C1 O1 Co18"
_cell_length_a       4.69015511225412
_cell_length_b       5.8492997143037675
_cell_length_c       98.65301646
_cell_angle_alpha    85.3959244969956
_cell_angle_beta     86.86696930915411
_cell_angle_gamma    75.8068469133148

_space_group_name_H-M_alt    "P 1"
_space_group_IT_number       1

loop_
  _space_group_symop_operation_xyz
  'x, y, z'

loop_
  _atom_site_type_symbol
  _atom_site_label
  _atom_site_symmetry_multiplicity
  _atom_site_fract_x
  _atom_site_fract_y
  _atom_site_fract_z
  _atom_site_occupancy
  C   C1        1.0  0.3623657899999999  0.372571475  0.529543028772965  1.0000
  O   O1        1.0  0.47476356000000003  0.317677575  0.540636074498239  1.0000
  Co  Co1       1.0  0.7119193799999999  0.8093533050000001  0.5224344254905269  1.0000
  Co  Co2       1.0  0.10133467999999997  0.473891415  0.51670655040857  1.0000
  Co  Co3       1.0  0.47679914  0.137364405  0.5076588492674217  1.0000
  Co  Co4       1.0  0.19350825  0.8626355950000001  0.5168945189052059  1.0000
  Co  Co5       1.0  0.5871198499999999  0.526678325  0.508886069959131  1.0000
  Co  Co6       1.0  0.7881419700000001  0.19978428500000003  0.5244320184436814  1.0000
  Co  Co7       1.0  0.86544929  0.8054957950000001  0.4995600175584863  1.0000
  Co  Co8       1.0  0.25333299  0.47156134499999997  0.49163530314929466  1.0000
  Co  Co9       1.0  0.6422218799999999  0.138228015  0.48356745873741125  1.0000
  Co  Co10      1.0  0.35518483999999995  0.8604502350000001  0.4929799409801848  1.0000
  Co  Co11      1.0  0.74407373  0.527116905  0.48491209947272523  1.0000
  Co  Co12      1.0  0.9688892299999998  0.19359513500000003  0.5014087355587595  1.0000
  Co  Co13      1.0  0.031110769999999958  0.8048946849999999  0.47549961432552784  1.0000
  Co  Co14      1.0  0.41999965000000006  0.47156134499999997  0.4674317699136443  1.0000
  Co  Co15      1.0  0.80888854  0.138228015  0.4593639255017608  1.0000
  Co  Co16      1.0  0.5218515099999999  0.8604502350000001  0.4687764106489582  1.0000
  Co  Co17      1.0  0.9107403900000001  0.527116905  0.4607085662370748  1.0000
  Co  Co18      1.0  0.13296261999999995  0.193783565  0.4768442550608417  1.0000
