data_image0
_chemical_formula_structural       Rh24Sb8CO
_chemical_formula_sum              "Rh24 Sb8 C1 O1"
_cell_length_a       5.6246151
_cell_length_b       6.8887185
_cell_length_c       31.031523479999997
_cell_angle_alpha    90.0
_cell_angle_beta     90.0
_cell_angle_gamma    90.0

_space_group_name_H-M_alt    "P 1"
_space_group_IT_number       1

loop_
  _space_group_symop_operation_xyz
  'x, y, z'

loop_
  _atom_site_type_symbol
  _atom_site_label
  _atom_site_symmetry_multiplicity
  _atom_site_fract_x
  _atom_site_fract_y
  _atom_site_fract_z
  _atom_site_occupancy
  Rh  Rh1       1.0  0.87612675  0.49541979500000005  0.6292011566688602  1.0000
  Rh  Rh2       1.0  0.37388446000000003  0.15531032500000003  0.5722170345501476  1.0000
  Rh  Rh3       1.0  0.8738844600000001  0.8219769949999999  0.519893253134515  1.0000
  Rh  Rh4       1.0  0.38075673  0.8446896749999999  0.670898317987211  1.0000
  Rh  Rh5       1.0  0.37163809000000003  0.495414015  0.6292017092079478  1.0000
  Rh  Rh6       1.0  0.8738844600000001  0.15531032500000003  0.5722170345501476  1.0000
  Rh  Rh7       1.0  0.37388446000000003  0.8219769949999999  0.519893253134515  1.0000
  Rh  Rh8       1.0  0.8670009200000001  0.8446826849999999  0.6708987700646463  1.0000
  Rh  Rh9       1.0  0.12387325  0.164196425  0.6514116708325972  1.0000
  Rh  Rh10      1.0  0.62388206  0.8158671650000001  0.5969825020124034  1.0000
  Rh  Rh11      1.0  0.12388446  0.488643665  0.546055137563478  1.0000
  Rh  Rh12      1.0  0.6238844600000001  0.15531032500000003  0.49373136870555207  1.0000
  Rh  Rh13      1.0  0.8738844600000001  0.15531032500000003  0.41524570286095647  1.0000
  Rh  Rh14      1.0  0.37388446000000003  0.8219769949999999  0.3629219214453239  1.0000
  Rh  Rh15      1.0  0.8738844600000001  0.488643665  0.31059814002969144  1.0000
  Rh  Rh16      1.0  0.37388446000000003  0.488643665  0.46756947171888247  1.0000
  Rh  Rh17      1.0  0.37388446000000003  0.15531032500000003  0.41524570286095647  1.0000
  Rh  Rh18      1.0  0.8738844600000001  0.8219769949999999  0.3629219214453239  1.0000
  Rh  Rh19      1.0  0.37388446000000003  0.488643665  0.31059814002969144  1.0000
  Rh  Rh20      1.0  0.8738844600000001  0.488643665  0.46756947171888247  1.0000
  Rh  Rh21      1.0  0.12388446  0.8219769949999999  0.4414075872899195  1.0000
  Rh  Rh22      1.0  0.6238844600000001  0.488643665  0.38908380587428687  1.0000
  Rh  Rh23      1.0  0.12388446  0.15531032500000003  0.336760037016361  1.0000
  Rh  Rh24      1.0  0.6238844600000001  0.8219769949999999  0.2844362556007283  1.0000
  Sb  Sb1       1.0  0.12388446  0.15531032500000003  0.49373136870555207  1.0000
  Sb  Sb2       1.0  0.6238817000000001  0.16363244500000002  0.6492316153049782  1.0000
  Sb  Sb3       1.0  0.12388426000000001  0.817311905  0.5963063323040192  1.0000
  Sb  Sb4       1.0  0.6238844600000001  0.488643665  0.546055137563478  1.0000
  Sb  Sb5       1.0  0.12388446  0.8219769949999999  0.2844362556007283  1.0000
  Sb  Sb6       1.0  0.6238844600000001  0.8219769949999999  0.4414075872899195  1.0000
  Sb  Sb7       1.0  0.12388446  0.488643665  0.38908380587428687  1.0000
  Sb  Sb8       1.0  0.6238844600000001  0.15531032500000003  0.336760037016361  1.0000
  C   C1        1.0  0.12388297000000001  0.436306075  0.6774114101547786  1.0000
  O   O1        1.0  0.12388400000000001  0.47865738499999994  0.7155637443992718  1.0000
