data_image0
_chemical_formula_structural       Co2Rh4Sn2Co2Rh4Sn2CO
_chemical_formula_sum              "Co4 Rh8 Sn4 C1 O1"
_cell_length_a       8.16704732
_cell_length_b       4.600758099019271
_cell_length_c       41.617325109999996
_cell_angle_alpha    90.56693590348651
_cell_angle_beta     90.0
_cell_angle_gamma    116.3458296649541

_space_group_name_H-M_alt    "P 1"
_space_group_IT_number       1

loop_
  _space_group_symop_operation_xyz
  'x, y, z'

loop_
  _atom_site_type_symbol
  _atom_site_label
  _atom_site_symmetry_multiplicity
  _atom_site_fract_x
  _atom_site_fract_y
  _atom_site_fract_z
  _atom_site_occupancy
  Co  Co1       1.0  0.06559635999999998  0.225974635  0.5248979285417614  1.0000
  Co  Co2       1.0  0.44018993999999995  0.705007195  0.4284910752091273  1.0000
  Rh  Rh1       1.0  0.21660714999999997  0.8558078849999999  0.5352785190658298  1.0000
  Rh  Rh2       1.0  0.40446655  0.5730066850000001  0.4919204191541217  1.0000
  Rh  Rh3       1.0  0.09643993999999999  0.33000719500000003  0.44980331927979145  1.0000
  Rh  Rh4       1.0  0.28393994  0.080007195  0.4071788311384631  1.0000
  Sn  Sn1       1.0  0.40439274999999997  0.539924905  0.5565405889990132  1.0000
  Sn  Sn2       1.0  0.25268994  0.9550071950000001  0.4711155633504556  1.0000
  Co  Co3       1.0  0.5546522099999999  0.188811715  0.5128523982312203  1.0000
  Co  Co4       1.0  0.9401899400000001  0.705007195  0.4284910752091273  1.0000
  Rh  Rh5       1.0  0.72256694  0.803227365  0.5318926343254258  1.0000
  Rh  Rh6       1.0  0.9105423099999999  0.565372865  0.4926869097496743  1.0000
  Rh  Rh7       1.0  0.59643994  0.33000719500000003  0.44980331927979145  1.0000
  Rh  Rh8       1.0  0.7839399400000001  0.080007195  0.4071788311384631  1.0000
  Sn  Sn3       1.0  0.83098437  0.387917635  0.5564241525372472  1.0000
  Sn  Sn4       1.0  0.7526899400000001  0.9550071950000001  0.4711155633504556  1.0000
  C   C1        1.0  0.08693454999999999  0.053842035  0.5640469454984898  1.0000
  O   O1        1.0  0.05981005999999999  0.044992805000000004  0.5928211688615369  1.0000
