data_image0
_chemical_formula_structural       COGa2Ni2Ga2Ni2Ga2Ni2Ga2Ni2Ga2Ni2Ga2Ni2Ga2Ni2Ga2Ni2
_chemical_formula_sum              "C1 O1 Ga16 Ni16"
_cell_length_a       5.88603578
_cell_length_b       8.32411162
_cell_length_c       99.1343907
_cell_angle_alpha    90.0
_cell_angle_beta     90.0
_cell_angle_gamma    90.0

_space_group_name_H-M_alt    "P 1"
_space_group_IT_number       1

loop_
  _space_group_symop_operation_xyz
  'x, y, z'

loop_
  _atom_site_type_symbol
  _atom_site_label
  _atom_site_symmetry_multiplicity
  _atom_site_fract_x
  _atom_site_fract_y
  _atom_site_fract_z
  _atom_site_occupancy
  C   C1        1.0  0.10883714499999997  0.38645366000000003  0.5332472712885417  1.0000
  O   O1        1.0  0.10883809499999997  0.38645389  0.545257843750765  1.0000
  Ga  Ga1       1.0  0.10883709499999997  0.38645345999999997  0.45474215624923486  1.0000
  Ga  Ga2       1.0  0.10883709499999997  0.13645346000000003  0.475734143498341  1.0000
  Ni  Ni1       1.0  0.35883709499999994  0.38645345999999997  0.475734143498341  1.0000
  Ni  Ni2       1.0  0.35883709499999994  0.13645346000000003  0.45474215624923486  1.0000
  Ga  Ga3       1.0  0.10882639499999995  0.38645339999999995  0.496751228767904  1.0000
  Ga  Ga4       1.0  0.10884568499999997  0.11354506000000002  0.518143893864205  1.0000
  Ni  Ni3       1.0  0.32649839499999994  0.38645492000000004  0.5187326511042789  1.0000
  Ni  Ni4       1.0  0.36022022499999995  0.14110514000000002  0.4965400409751593  1.0000
  Ga  Ga5       1.0  0.10883709499999997  0.88645346  0.45474215624923486  1.0000
  Ga  Ga6       1.0  0.10883709499999997  0.63645346  0.475734143498341  1.0000
  Ni  Ni5       1.0  0.35883709499999994  0.88645346  0.475734143498341  1.0000
  Ni  Ni6       1.0  0.35883709499999994  0.63645346  0.45474215624923486  1.0000
  Ga  Ga7       1.0  0.10884258499999998  0.88645475  0.49640727127139056  1.0000
  Ga  Ga8       1.0  0.10883396499999996  0.65936111  0.518143614670769  1.0000
  Ni  Ni7       1.0  0.37426240499999996  0.8864513  0.5163762202990467  1.0000
  Ni  Ni8       1.0  0.36022025499999993  0.63180299  0.49654034367962147  1.0000
  Ga  Ga9       1.0  0.6088370949999999  0.38645345999999997  0.45474215624923486  1.0000
  Ga  Ga10      1.0  0.6088370949999999  0.13645346000000003  0.475734143498341  1.0000
  Ni  Ni9       1.0  0.8588370949999999  0.38645345999999997  0.475734143498341  1.0000
  Ni  Ni10      1.0  0.8588370949999999  0.13645346000000003  0.45474215624923486  1.0000
  Ga  Ga11      1.0  0.608832305  0.38645393  0.49807909038277526  1.0000
  Ga  Ga12      1.0  0.6088339949999999  0.14025799000000003  0.5197594657843103  1.0000
  Ni  Ni11      1.0  0.891173605  0.38645199  0.5187326511042789  1.0000
  Ni  Ni12      1.0  0.8574498949999998  0.14110148000000003  0.496540713978284  1.0000
  Ga  Ga13      1.0  0.6088370949999999  0.88645346  0.45474215624923486  1.0000
  Ga  Ga14      1.0  0.6088370949999999  0.63645346  0.475734143498341  1.0000
  Ni  Ni13      1.0  0.8588370949999999  0.88645346  0.475734143498341  1.0000
  Ni  Ni14      1.0  0.8588370949999999  0.63645346  0.45474215624923486  1.0000
  Ga  Ga15      1.0  0.6088341449999999  0.88645416  0.49635547060293916  1.0000
  Ga  Ga16      1.0  0.608843175  0.63264877  0.5197594275788928  1.0000
  Ni  Ni15      1.0  0.8434146349999999  0.8864549399999999  0.5163762996487602  1.0000
  Ni  Ni16      1.0  0.8574506649999998  0.63180607  0.49653973827069714  1.0000
