data_image0
_chemical_formula_structural       COGa16
_chemical_formula_sum              "C1 O1 Ga16"
_cell_length_a       4.558594026345187
_cell_length_b       6.524406779581325
_cell_length_c       106.44440154
_cell_angle_alpha    88.45677655383689
_cell_angle_beta     87.25637376750907
_cell_angle_gamma    70.2668956871451

_space_group_name_H-M_alt    "P 1"
_space_group_IT_number       1

loop_
  _space_group_symop_operation_xyz
  'x, y, z'

loop_
  _atom_site_type_symbol
  _atom_site_label
  _atom_site_symmetry_multiplicity
  _atom_site_fract_x
  _atom_site_fract_y
  _atom_site_fract_z
  _atom_site_occupancy
  C   C1        1.0  0.788947485  0.94964217  0.550449062320806  1.0000
  O   O1        1.0  0.7908315550000001  0.95091455  0.5614990176909054  1.0000
  Ga  Ga1       1.0  0.1557168050000001  0.04908544999999999  0.5235968495395328  1.0000
  Ga  Ga2       1.0  0.8887756250000003  0.6666624500000001  0.49556426564703643  1.0000
  Ga  Ga3       1.0  0.7794202750000003  0.29687732999999994  0.5044808531489308  1.0000
  Ga  Ga4       1.0  0.14709268500000006  0.6788158700000001  0.5363347333732127  1.0000
  Ga  Ga5       1.0  0.32326291500000004  0.6865386600000001  0.5092089866074639  1.0000
  Ga  Ga6       1.0  0.5661088550000002  0.16401974  0.5341657272027447  1.0000
  Ga  Ga7       1.0  0.7584908550000001  0.50509775  0.5283397772246081  1.0000
  Ga  Ga8       1.0  0.42967767500000015  0.07122432000000001  0.5002322772314473  1.0000
  Ga  Ga9       1.0  0.6387756250000001  0.24999577999999995  0.46703262568996395  1.0000
  Ga  Ga10      1.0  0.3887756250000001  0.8333291100000001  0.4385009823090946  1.0000
  Ga  Ga11      1.0  0.27942027500000005  0.463544  0.4474175698109889  1.0000
  Ga  Ga12      1.0  0.5294202750000002  0.8802106599999999  0.4759492097680615  1.0000
  Ga  Ga13      1.0  0.8203223250000002  0.8681058700000001  0.4520855813953998  1.0000
  Ga  Ga14      1.0  0.07032232500000005  0.28477253  0.4806172213524722  1.0000
  Ga  Ga15      1.0  0.1796776750000001  0.65455765  0.47170063385057787  1.0000
  Ga  Ga16      1.0  0.9296776750000002  0.23789098  0.44316899389350534  1.0000
