data_image0
_chemical_formula_structural       COSi16
_chemical_formula_sum              "C1 O1 Si16"
_cell_length_a       7.77573034
_cell_length_b       5.49827165
_cell_length_c       101.10292135
_cell_angle_alpha    90.0
_cell_angle_beta     90.0
_cell_angle_gamma    90.0

_space_group_name_H-M_alt    "P 1"
_space_group_IT_number       1

loop_
  _space_group_symop_operation_xyz
  'x, y, z'

loop_
  _atom_site_type_symbol
  _atom_site_label
  _atom_site_symmetry_multiplicity
  _atom_site_fract_x
  _atom_site_fract_y
  _atom_site_fract_z
  _atom_site_occupancy
  C   C1        1.0  0.11096818999999995  0.25694531500000006  0.529021289631591  1.0000
  O   O1        1.0  0.11096969999999995  0.36839154500000004  0.5391599737314763  1.0000
  Si  Si1       1.0  0.11096895999999995  0.8655405350000002  0.4800672905099343  1.0000
  Si  Si2       1.0  0.11096527999999994  0.886461775  0.5093370625373135  1.0000
  Si  Si3       1.0  0.3329036199999999  0.11268072500000005  0.5180376857082436  1.0000
  Si  Si4       1.0  0.36096895999999995  0.11554053500000006  0.4800672905099343  1.0000
  Si  Si5       1.0  0.36096895999999995  0.36554053500000006  0.4608400262685238  1.0000
  Si  Si6       1.0  0.37581061  0.36606185500000005  0.4992924474431841  1.0000
  Si  Si7       1.0  0.11096895999999995  0.615540535  0.4608400262685238  1.0000
  Si  Si8       1.0  0.11098323999999996  0.5551976350000001  0.49647172779354987  1.0000
  Si  Si9       1.0  0.6109689599999999  0.8655405350000002  0.4800672905099343  1.0000
  Si  Si10      1.0  0.61096707  0.887323285  0.5212581386432755  1.0000
  Si  Si11      1.0  0.8890347200000001  0.11267671500000005  0.5180377410827647  1.0000
  Si  Si12      1.0  0.86096896  0.11554053500000006  0.4800672905099343  1.0000
  Si  Si13      1.0  0.86096896  0.36554053500000006  0.4608400262685238  1.0000
  Si  Si14      1.0  0.84610829  0.366054475  0.4992926935521663  1.0000
  Si  Si15      1.0  0.6109689599999999  0.615540535  0.4608400262685238  1.0000
  Si  Si16      1.0  0.6109741599999999  0.6508191050000001  0.5007910388763332  1.0000
