data_image0
_chemical_formula_structural       COCu18Si6Cu18Si6
_chemical_formula_sum              "C1 O1 Cu36 Si12"
_cell_length_a       5.235018243848428
_cell_length_b       9.900795163917106
_cell_length_c       110.27627014000001
_cell_angle_alpha    71.02752255292995
_cell_angle_beta     67.04965733273856
_cell_angle_gamma    74.67026309675128

_space_group_name_H-M_alt    "P 1"
_space_group_IT_number       1

loop_
  _space_group_symop_operation_xyz
  'x, y, z'

loop_
  _atom_site_type_symbol
  _atom_site_label
  _atom_site_symmetry_multiplicity
  _atom_site_fract_x
  _atom_site_fract_y
  _atom_site_fract_z
  _atom_site_occupancy
  C   C1        1.0  0.63679378  0.7054521599999999  0.5605179918407827  1.0000
  O   O1        1.0  0.64769833  0.65085084  0.5717075805032044  1.0000
  Cu  Cu1       1.0  0.13369517000000003  0.02742674999999998  0.4284206227478359  1.0000
  Cu  Cu2       1.0  0.8003618400000001  0.36076009  0.4487112141824056  1.0000
  Cu  Cu3       1.0  0.46702851000000006  0.69409342  0.4690018019646691  1.0000
  Cu  Cu4       1.0  0.29930876  0.8618131599999999  0.44858300727905914  1.0000
  Cu  Cu5       1.0  0.96597543  0.19514649999999997  0.4688735987136289  1.0000
  Cu  Cu6       1.0  0.63264209  0.52847983  0.4282924194967956  1.0000
  Cu  Cu7       1.0  0.63053594  0.02742674999999998  0.4284206227478359  1.0000
  Cu  Cu8       1.0  0.2972026  0.36076009  0.4487112141824056  1.0000
  Cu  Cu9       1.0  0.96386927  0.69409342  0.4690018019646691  1.0000
  Cu  Cu10      1.0  0.8531091900000003  0.9725732500000001  0.4655345691089826  1.0000
  Cu  Cu11      1.0  0.51977585  0.30590657999999993  0.48582515689124617  1.0000
  Cu  Cu12      1.0  0.18644252000000003  0.63923991  0.445243977674413  1.0000
  Cu  Cu13      1.0  0.6874956  0.13818683999999998  0.44537218457775946  1.0000
  Cu  Cu14      1.0  0.35416227  0.47152016999999996  0.465662772360023  1.0000
  Cu  Cu15      1.0  0.020828930000000034  0.8048535  0.4859533637945926  1.0000
  Cu  Cu16      1.0  0.35626842  0.9725732500000001  0.4655345691089828  1.0000
  Cu  Cu17      1.0  0.022935090000000036  0.30590657999999993  0.48582515689124617  1.0000
  Cu  Cu18      1.0  0.6896017600000001  0.63923991  0.445243977674413  1.0000
  Si  Si1       1.0  0.18784662000000005  0.13888888999999996  0.44528671330886177  1.0000
  Si  Si2       1.0  0.85451329  0.47222222  0.4655773010911254  1.0000
  Si  Si3       1.0  0.52117996  0.80555556  0.48586789252569507  1.0000
  Si  Si4       1.0  0.79895774  0.8611111099999998  0.4486684785479567  1.0000
  Si  Si5       1.0  0.46562440000000005  0.19444443999999997  0.4689590663302203  1.0000
  Si  Si6       1.0  0.13229107000000004  0.52777778  0.428377887113387  1.0000
  Cu  Cu19      1.0  0.13369517000000003  0.02742674999999998  0.48929239339923886  1.0000
  Cu  Cu20      1.0  0.8003618400000001  0.36076009  0.5095829811815024  1.0000
  Cu  Cu21      1.0  0.47944942  0.68118744  0.5302816155655541  1.0000
  Cu  Cu22      1.0  0.29930876  0.8618131599999999  0.5094547779304621  1.0000
  Cu  Cu23      1.0  0.97917107  0.18446088999999996  0.5290167269802949  1.0000
  Cu  Cu24      1.0  0.63264209  0.52847983  0.4891641864958924  1.0000
  Cu  Cu25      1.0  0.63053594  0.02742674999999998  0.48929239339923875  1.0000
  Cu  Cu26      1.0  0.2972026  0.36076009  0.5095829811815024  1.0000
  Cu  Cu27      1.0  0.96829162  0.684045  0.5299757933610472  1.0000
  Cu  Cu28      1.0  0.8400577300000001  0.9671325300000001  0.5276607535315607  1.0000
  Cu  Cu29      1.0  0.54883348  0.3056063  0.5438239431617079  1.0000
  Cu  Cu30      1.0  0.18644252000000003  0.63923991  0.506115748325816  1.0000
  Cu  Cu31      1.0  0.6874956  0.13818683999999998  0.5062439515768562  1.0000
  Cu  Cu32      1.0  0.35981638  0.47689585  0.5257325111865886  1.0000
  Cu  Cu33      1.0  0.03787780000000001  0.79813809  0.5458803997146389  1.0000
  Cu  Cu34      1.0  0.35888936  0.97117206  0.5267640101032257  1.0000
  Cu  Cu35      1.0  0.04868507000000004  0.30377892999999995  0.5438828365986353  1.0000
  Cu  Cu36      1.0  0.6896017600000001  0.63923991  0.506115748325816  1.0000
  Si  Si7       1.0  0.18784662000000005  0.13888888999999996  0.5061584839602647  1.0000
  Si  Si8       1.0  0.8550632100000001  0.47001668999999996  0.5269821185228493  1.0000
  Si  Si9       1.0  0.5416413600000001  0.79240457  0.5452042555787326  1.0000
  Si  Si10      1.0  0.79895774  0.8611111099999998  0.5095402491993597  1.0000
  Si  Si11      1.0  0.47219571  0.18928009999999998  0.5296767279229472  1.0000
  Si  Si12      1.0  0.13229107000000004  0.52777778  0.48924965776479  1.0000
