data_image0
_chemical_formula_structural       COAu3Ga6Au3Ga6Au3Ga6Au3Ga6
_chemical_formula_sum              "C1 O1 Au12 Ga24"
_cell_length_a       8.85090312
_cell_length_b       8.850903112764403
_cell_length_c       102.5202946
_cell_angle_alpha    90.0
_cell_angle_beta     90.0
_cell_angle_gamma    120.00000002704262

_space_group_name_H-M_alt    "P 1"
_space_group_IT_number       1

loop_
  _space_group_symop_operation_xyz
  'x, y, z'

loop_
  _atom_site_type_symbol
  _atom_site_label
  _atom_site_symmetry_multiplicity
  _atom_site_fract_x
  _atom_site_fract_y
  _atom_site_fract_z
  _atom_site_occupancy
  C   C1        1.0  0.49938323999999995  0.5457437500000001  0.5532848888391715  1.0000
  O   O1        1.0  0.42390030999999995  0.50655786  0.5630949221868886  1.0000
  Au  Au1       1.0  0.2484767499999999  0.42303959999999996  0.4633391099954766  1.0000
  Au  Au2       1.0  0.07699988999999996  0.07696040000000001  0.5312889061445885  1.0000
  Au  Au3       1.0  0.41514340999999993  0.25637294  0.49858448306654657  1.0000
  Ga  Ga1       1.0  0.2484767499999999  0.42303959999999996  0.4897731390057582  1.0000
  Ga  Ga2       1.0  0.08181007999999997  0.08970627000000002  0.4545277659346882  1.0000
  Ga  Ga3       1.0  0.41065645999999995  0.24779774000000004  0.525619536274309  1.0000
  Ga  Ga4       1.0  0.08064779999999995  0.08893606000000001  0.5059747082942296  1.0000
  Ga  Ga5       1.0  0.41514340999999993  0.25637294  0.47215045088418134  1.0000
  Ga  Ga6       1.0  0.2484767499999999  0.42303959999999996  0.4369050778131114  1.0000
  Au  Au4       1.0  0.24847674999999997  0.9230396  0.4633391099954766  1.0000
  Au  Au5       1.0  0.07629497000000002  0.59697728  0.5312400021316022  1.0000
  Au  Au6       1.0  0.41514340999999993  0.75637294  0.49858448306654657  1.0000
  Ga  Ga7       1.0  0.24847674999999997  0.9230396  0.4897731390057582  1.0000
  Ga  Ga8       1.0  0.08181007999999997  0.58970627  0.4545277659346882  1.0000
  Ga  Ga9       1.0  0.40990407999999995  0.75812647  0.5256584450518461  1.0000
  Ga  Ga10      1.0  0.08132733999999998  0.5908428299999999  0.505941712280538  1.0000
  Ga  Ga11      1.0  0.41514340999999993  0.75637294  0.47215045088418134  1.0000
  Ga  Ga12      1.0  0.24847674999999997  0.9230396  0.4369050778131114  1.0000
  Au  Au7       1.0  0.7484767499999999  0.42303959999999996  0.4633391099954766  1.0000
  Au  Au8       1.0  0.5879763100000001  0.09175356000000003  0.5313319291145654  1.0000
  Au  Au9       1.0  0.9151434099999999  0.25637294  0.49858448306654657  1.0000
  Ga  Ga13      1.0  0.7484767499999999  0.42303959999999996  0.4897731390057582  1.0000
  Ga  Ga14      1.0  0.58181008  0.08970627000000002  0.4545277659346882  1.0000
  Ga  Ga15      1.0  0.9237050299999999  0.26000714999999996  0.5266952564395773  1.0000
  Ga  Ga16      1.0  0.5837498399999999  0.09078297000000002  0.5060000056610044  1.0000
  Ga  Ga17      1.0  0.9151434099999999  0.25637294  0.47215045088418134  1.0000
  Ga  Ga18      1.0  0.7484767499999999  0.42303959999999996  0.4369050778131114  1.0000
  Au  Au10      1.0  0.74847675  0.9230396  0.4633391099954766  1.0000
  Au  Au11      1.0  0.5595777599999999  0.5781387200000001  0.5336489141444424  1.0000
  Au  Au12      1.0  0.9151434099999999  0.75637294  0.49858448306654657  1.0000
  Ga  Ga19      1.0  0.74847675  0.9230396  0.4897731390057582  1.0000
  Ga  Ga20      1.0  0.5818100799999999  0.58970627  0.4545277659346882  1.0000
  Ga  Ga21      1.0  0.89155345  0.7444173199999999  0.5259635233649405  1.0000
  Ga  Ga22      1.0  0.57855637  0.5885134  0.5080839503965274  1.0000
  Ga  Ga23      1.0  0.9151434099999999  0.75637294  0.47215045088418134  1.0000
  Ga  Ga24      1.0  0.74847675  0.9230396  0.4369050778131114  1.0000
