data_image0
_chemical_formula_structural       COAl10W2
_chemical_formula_sum              "C1 O1 Al10 W2"
_cell_length_a       4.9350801
_cell_length_b       4.935080103194727
_cell_length_c       105.64364312000001
_cell_angle_alpha    90.0
_cell_angle_beta     90.0
_cell_angle_gamma    119.99999997858582

_space_group_name_H-M_alt    "P 1"
_space_group_IT_number       1

loop_
  _space_group_symop_operation_xyz
  'x, y, z'

loop_
  _atom_site_type_symbol
  _atom_site_label
  _atom_site_symmetry_multiplicity
  _atom_site_fract_x
  _atom_site_fract_y
  _atom_site_fract_z
  _atom_site_occupancy
  C   C1        1.0  0.9090763699999997  0.5124954099999999  0.5340423178857541  1.0000
  O   O1        1.0  0.9151932899999999  0.50736885  0.545355400242228  1.0000
  Al  Al1       1.0  0.0918755499999999  0.16880091999999994  0.4966843107965506  1.0000
  Al  Al2       1.0  0.0892510499999999  0.16436595999999995  0.454644599757772  1.0000
  Al  Al3       1.0  0.4246054099999999  0.8335739499999999  0.49734886772085535  1.0000
  Al  Al4       1.0  0.75591772  0.4976992899999999  0.454644599757772  1.0000
  Al  Al5       1.0  0.4365338399999999  0.5032104999999999  0.5179662429883305  1.0000
  Al  Al6       1.0  0.08925104999999989  0.5018845799999999  0.4757317908959036  1.0000
  Al  Al7       1.0  0.42676966999999993  0.16436595999999995  0.4757317908959036  1.0000
  Al  Al8       1.0  0.7539927499999999  0.17209095999999993  0.5188630930362623  1.0000
  Al  Al9       1.0  0.08480671000000006  0.83563404  0.5187861500932375  1.0000
  Al  Al10      1.0  0.7517324299999999  0.8268473399999999  0.4757317908959036  1.0000
  W   W1        1.0  0.4225843799999998  0.8310326299999999  0.454644599757772  1.0000
  W   W2        1.0  0.76069146  0.5009035299999999  0.49672434946810845  1.0000
