data_image0
_chemical_formula_structural       COPt4Sn8
_chemical_formula_sum              "C1 O1 Pt4 Sn8"
_cell_length_a       4.65759902
_cell_length_b       6.5868397
_cell_length_c       107.26079214
_cell_angle_alpha    90.0
_cell_angle_beta     90.0
_cell_angle_gamma    90.0

_space_group_name_H-M_alt    "P 1"
_space_group_IT_number       1

loop_
  _space_group_symop_operation_xyz
  'x, y, z'

loop_
  _atom_site_type_symbol
  _atom_site_label
  _atom_site_symmetry_multiplicity
  _atom_site_fract_x
  _atom_site_fract_y
  _atom_site_fract_z
  _atom_site_occupancy
  C   C1        1.0  0.74999896  0.6163446699999999  0.536681044014968  1.0000
  O   O1        1.0  0.74999713  0.61634478  0.5475683440502095  1.0000
  Pt  Pt1       1.0  0.24999939  0.11634477999999998  0.4948583196194979  1.0000
  Pt  Pt2       1.0  0.24999862  0.11634489999999997  0.4524316559497905  1.0000
  Pt  Pt3       1.0  0.75000138  0.6163451  0.5187962911502652  1.0000
  Pt  Pt4       1.0  0.7499986200000001  0.6163449  0.4741432195350228  1.0000
  Sn  Sn1       1.0  0.25000176  0.34903583  0.5181119530876092  1.0000
  Sn  Sn2       1.0  0.24999862  0.3663449  0.4741432195350228  1.0000
  Sn  Sn3       1.0  0.25000309000000004  0.8836552200000001  0.5181120260384628  1.0000
  Sn  Sn4       1.0  0.24999862  0.8663449000000001  0.4741432195350228  1.0000
  Sn  Sn5       1.0  0.7499986200000001  0.8663449000000001  0.4524316559497905  1.0000
  Sn  Sn6       1.0  0.75000103  0.86082723  0.4963779171656036  1.0000
  Sn  Sn7       1.0  0.7499986200000001  0.3663449  0.4524316559497905  1.0000
  Sn  Sn8       1.0  0.74999975  0.37186243999999996  0.49637788242710174  1.0000
