data_image0
_chemical_formula_structural       COAl24Re4
_chemical_formula_sum              "C1 O1 Al24 Re4"
_cell_length_a       5.0807173740860305
_cell_length_b       9.10397713
_cell_length_c       39.81273265
_cell_angle_alpha    90.0
_cell_angle_beta     88.54440998070832
_cell_angle_gamma    90.0

_space_group_name_H-M_alt    "P 1"
_space_group_IT_number       1

loop_
  _space_group_symop_operation_xyz
  'x, y, z'

loop_
  _atom_site_type_symbol
  _atom_site_label
  _atom_site_symmetry_multiplicity
  _atom_site_fract_x
  _atom_site_fract_y
  _atom_site_fract_z
  _atom_site_occupancy
  C   C1        1.0  0.69452465  0.643893285  0.6142063880417346  1.0000
  O   O1        1.0  0.76921438  0.6541549650000001  0.6423975483428878  1.0000
  Al  Al1       1.0  0.72000868  0.05540288500000005  0.5296963786957813  1.0000
  Al  Al2       1.0  0.8815855799999999  0.05021662500000005  0.40196390679745464  1.0000
  Al  Al3       1.0  0.29113094  0.550216625  0.3576024516571121  1.0000
  Al  Al4       1.0  0.12446426999999997  0.550216625  0.48397436814559813  1.0000
  Al  Al5       1.0  0.29113094  0.05021662500000005  0.3576024516571121  1.0000
  Al  Al6       1.0  0.12446426999999997  0.05021662500000005  0.48397436814559813  1.0000
  Al  Al7       1.0  0.69484402  0.544146405  0.5262988268224877  1.0000
  Al  Al8       1.0  0.8815855799999999  0.550216625  0.40196390679745464  1.0000
  Al  Al9       1.0  0.39374897  0.650649875  0.42639784053867485  1.0000
  Al  Al10      1.0  0.18958806  0.6319614650000001  0.5541095520589759  1.0000
  Al  Al11      1.0  0.43336898  0.17454432500000006  0.5832641288657174  1.0000
  Al  Al12      1.0  0.6123008800000002  0.15064987500000004  0.4595404344043779  1.0000
  Al  Al13      1.0  0.39374897  0.949783375  0.42639784053867485  1.0000
  Al  Al14      1.0  0.23093629999999996  0.941367325  0.5560010059891201  1.0000
  Al  Al15      1.0  0.4789137300000001  0.4637511050000001  0.5895833437861483  1.0000
  Al  Al16      1.0  0.6123008800000002  0.44978337500000004  0.4595404344043779  1.0000
  Al  Al17      1.0  0.5391201300000001  0.30021662500000007  0.39385217199088174  1.0000
  Al  Al18      1.0  0.3734503  0.29816247500000004  0.519219401434118  1.0000
  Al  Al19      1.0  0.46692973  0.800216625  0.49208609536985637  1.0000
  Al  Al20      1.0  0.6335963900000001  0.800216625  0.3657141864636851  1.0000
  Al  Al21      1.0  0.9462679599999999  0.3048036050000001  0.5665662944716976  1.0000
  Al  Al22      1.0  0.11913552999999999  0.30021662500000007  0.4393443929075946  1.0000
  Al  Al23      1.0  0.667161  0.774769225  0.5699854407776488  1.0000
  Al  Al24      1.0  0.88691433  0.800216625  0.44659387445314347  1.0000
  Re  Re1       1.0  0.04953005  0.30021662500000007  0.3741983190811951  1.0000
  Re  Re2       1.0  0.88286338  0.30021662500000007  0.5005702355696813  1.0000
  Re  Re3       1.0  0.12318647  0.800216625  0.3853680393733717  1.0000
  Re  Re4       1.0  0.95046995  0.8020500750000001  0.5133283295033108  1.0000
