data_image0
_chemical_formula_structural       COAu4Sn16
_chemical_formula_sum              "C1 O1 Au4 Sn16"
_cell_length_a       6.65792401
_cell_length_b       6.917362304045895
_cell_length_c       105.17205768
_cell_angle_alpha    92.154267332016
_cell_angle_beta     90.0
_cell_angle_gamma    90.0

_space_group_name_H-M_alt    "P 1"
_space_group_IT_number       1

loop_
  _space_group_symop_operation_xyz
  'x, y, z'

loop_
  _atom_site_type_symbol
  _atom_site_label
  _atom_site_symmetry_multiplicity
  _atom_site_fract_x
  _atom_site_fract_y
  _atom_site_fract_z
  _atom_site_occupancy
  C   C1        1.0  0.9719267850000001  0.9108415049999999  0.5539267088578024  1.0000
  O   O1        1.0  0.962151685  0.895842625  0.564865275668932  1.0000
  Au  Au1       1.0  0.028073215000000002  0.441179235  0.47955418427327456  1.0000
  Au  Au2       1.0  0.528073215  0.19117923499999998  0.45168552073200924  1.0000
  Au  Au3       1.0  0.045103025  0.9133025349999999  0.5351248545116692  1.0000
  Au  Au4       1.0  0.5348619250000001  0.6919695849999999  0.5070197398425033  1.0000
  Sn  Sn1       1.0  0.19610834500000002  0.910264195  0.44989883388699425  1.0000
  Sn  Sn2       1.0  0.19610834500000002  0.472094265  0.45347220423278445  1.0000
  Sn  Sn3       1.0  0.36003808500000006  0.16026419500000003  0.4777674974282596  1.0000
  Sn  Sn4       1.0  0.8600380850000001  0.074763315  0.4682363171329505  1.0000
  Sn  Sn5       1.0  0.6961083450000001  0.557595155  0.4630033878723333  1.0000
  Sn  Sn6       1.0  0.8600380850000001  0.30759515499999995  0.4351347243310679  1.0000
  Sn  Sn7       1.0  0.6961083450000001  0.824763315  0.4403676535916851  1.0000
  Sn  Sn8       1.0  0.36003808500000006  0.722094265  0.48134087111828966  1.0000
  Sn  Sn9       1.0  0.19610834500000002  0.410264195  0.5056361643137648  1.0000
  Sn  Sn10      1.0  0.19178810500000004  0.9501588249999999  0.5099207139981652  1.0000
  Sn  Sn11      1.0  0.39994268499999996  0.651135325  0.5331243369764815  1.0000
  Sn  Sn12      1.0  0.851772085  0.561070925  0.5248331974394667  1.0000
  Sn  Sn13      1.0  0.702173675  0.04984117500000001  0.5196105082409906  1.0000
  Sn  Sn14      1.0  0.8600380850000001  0.807595155  0.4908720514135987  1.0000
  Sn  Sn15      1.0  0.6961083450000001  0.324763315  0.49610498067421593  1.0000
  Sn  Sn16      1.0  0.337629985  0.21304091500000003  0.533544012312283  1.0000
