data_image0
_chemical_formula_structural       COAs16
_chemical_formula_sum              "C1 O1 As16"
_cell_length_a       8.40804352
_cell_length_b       5.705269427818158
_cell_length_c       100.85584569
_cell_angle_alpha    90.0
_cell_angle_beta     90.0
_cell_angle_gamma    96.69793672459862

_space_group_name_H-M_alt    "P 1"
_space_group_IT_number       1

loop_
  _space_group_symop_operation_xyz
  'x, y, z'

loop_
  _atom_site_type_symbol
  _atom_site_label
  _atom_site_symmetry_multiplicity
  _atom_site_fract_x
  _atom_site_fract_y
  _atom_site_fract_z
  _atom_site_occupancy
  C   C1        1.0  0.007688024999999953  0.500398635  0.5380214624089189  1.0000
  O   O1        1.0  0.008044584999999951  0.500923635  0.5494106418278145  1.0000
  As  As1       1.0  0.48498286500000004  0.27347190499999996  0.4505893581721855  1.0000
  As  As2       1.0  0.23498286499999996  0.7734719050000001  0.46971061329063035  1.0000
  As  As3       1.0  0.28034328499999994  0.22811148500000006  0.46971061329063035  1.0000
  As  As4       1.0  0.03034328499999996  0.7281114850000001  0.4505893581721855  1.0000
  As  As5       1.0  0.4921636549999999  0.28164310500000006  0.4920127610939478  1.0000
  As  As6       1.0  0.25489851499999994  0.785680025  0.5074043006740094  1.0000
  As  As7       1.0  0.26169222499999995  0.21343121500000006  0.5077006587125396  1.0000
  As  As8       1.0  0.024236424999999954  0.7227794150000001  0.4918245192209586  1.0000
  As  As9       1.0  0.9849828650000002  0.27347190499999996  0.4505893581721855  1.0000
  As  As10      1.0  0.7349828649999999  0.7734719050000001  0.46971061329063035  1.0000
  As  As11      1.0  0.7803432849999998  0.22811148500000006  0.46971061329063035  1.0000
  As  As12      1.0  0.5303432849999999  0.7281114850000001  0.4505893581721855  1.0000
  As  As13      1.0  0.9923119749999999  0.28076277499999996  0.4918069276662496  1.0000
  As  As14      1.0  0.753630515  0.7865687849999999  0.5077130248106497  1.0000
  As  As15      1.0  0.759988495  0.215315215  0.5073193227568621  1.0000
  As  As16      1.0  0.522467005  0.7223285750000001  0.492142908004786  1.0000
