data_image0
_chemical_formula_structural       Ga24Co8CO
_chemical_formula_sum              "Ga24 Co8 C1 O1"
_cell_length_a       6.31360991
_cell_length_b       9.069419597543318
_cell_length_c       106.27767841
_cell_angle_alpha    88.23668542619708
_cell_angle_beta     90.0
_cell_angle_gamma    90.0

_space_group_name_H-M_alt    "P 1"
_space_group_IT_number       1

loop_
  _space_group_symop_operation_xyz
  'x, y, z'

loop_
  _atom_site_type_symbol
  _atom_site_label
  _atom_site_symmetry_multiplicity
  _atom_site_fract_x
  _atom_site_fract_y
  _atom_site_fract_z
  _atom_site_occupancy
  Ga  Ga1       1.0  0.033464855000000036  0.7647930999999999  0.4672132551386877  1.0000
  Ga  Ga2       1.0  0.992020985  0.26857018999999993  0.5115901027154408  1.0000
  Ga  Ga3       1.0  0.033464855000000036  0.014793099999999953  0.48854750833791516  1.0000
  Ga  Ga4       1.0  0.007979015000000039  0.5406582199999999  0.5287114007186247  1.0000
  Ga  Ga5       1.0  0.536545425  0.042043079999999955  0.5301156246776784  1.0000
  Ga  Ga6       1.0  0.5334648550000001  0.5147930999999999  0.4885475083379152  1.0000
  Ga  Ga7       1.0  0.5334648550000001  0.26479309999999995  0.46721325513868783  1.0000
  Ga  Ga8       1.0  0.574594675  0.7674179799999999  0.5117042187824334  1.0000
  Ga  Ga9       1.0  0.37533563500000006  0.05647045999999995  0.5047828443012026  1.0000
  Ga  Ga10      1.0  0.382184305  0.5616503299999999  0.4627874865001314  1.0000
  Ga  Ga11      1.0  0.8620579850000001  0.9852068999999999  0.5162273979143571  1.0000
  Ga  Ga12      1.0  0.882184305  0.46793586999999986  0.4716390237772441  1.0000
  Ga  Ga13      1.0  0.18474540500000003  0.31665531999999996  0.48454885144840726  1.0000
  Ga  Ga14      1.0  0.19640965500000004  0.8284396599999999  0.5251908905252984  1.0000
  Ga  Ga15      1.0  0.684745405  0.21293087999999996  0.492546165227423  1.0000
  Ga  Ga16      1.0  0.684745405  0.71293088  0.4498776588289683  1.0000
  Ga  Ga17      1.0  0.684745405  0.9679358699999999  0.47163902377724415  1.0000
  Ga  Ga18      1.0  0.6820432850000001  0.47258366999999996  0.5155690877167587  1.0000
  Ga  Ga19      1.0  0.382184305  0.8166553199999999  0.48454885144840737  1.0000
  Ga  Ga20      1.0  0.346508415  0.32656677999999995  0.5257425260434202  1.0000
  Ga  Ga21      1.0  0.882184305  0.71293088  0.492546165227423  1.0000
  Ga  Ga22      1.0  0.882184305  0.21293087999999996  0.4498776588289683  1.0000
  Ga  Ga23      1.0  0.18474540500000003  0.06165032999999995  0.4627874865001314  1.0000
  Ga  Ga24      1.0  0.19674514500000004  0.5540915199999998  0.5048681164578698  1.0000
  Co  Co1       1.0  0.188321705  0.5922215299999999  0.48193999656279046  1.0000
  Co  Co2       1.0  0.19105982500000004  0.09125962999999995  0.5231718475238482  1.0000
  Co  Co3       1.0  0.6883217050000001  0.9373646700000001  0.4951550201130398  1.0000
  Co  Co4       1.0  0.6883217050000001  0.4373646699999999  0.45248651371458515  1.0000
  Co  Co5       1.0  0.3786080050000001  0.09222152999999995  0.48193999656279046  1.0000
  Co  Co6       1.0  0.37435956500000006  0.59605983  0.5248259928720593  1.0000
  Co  Co7       1.0  0.8786080049999999  0.9373646700000001  0.45248651371458515  1.0000
  Co  Co8       1.0  0.8786080049999999  0.4373646699999999  0.4951550201130399  1.0000
  C   C1        1.0  0.4769918450000001  0.6157952599999998  0.5399628127774563  1.0000
  O   O1        1.0  0.546523395  0.6297277299999999  0.550122341171032  1.0000
