data_image0
_chemical_formula_structural       COAl6Sb6Al6Sb6
_chemical_formula_sum              "C1 O1 Al12 Sb12"
_cell_length_a       11.732488445160229
_cell_length_b       8.521251618830597
_cell_length_c       101.04124669000001
_cell_angle_alpha    105.08194535455841
_cell_angle_beta     79.10660533162765
_cell_angle_gamma    66.83466028407958

_space_group_name_H-M_alt    "P 1"
_space_group_IT_number       1

loop_
  _space_group_symop_operation_xyz
  'x, y, z'

loop_
  _atom_site_type_symbol
  _atom_site_label
  _atom_site_symmetry_multiplicity
  _atom_site_fract_x
  _atom_site_fract_y
  _atom_site_fract_z
  _atom_site_occupancy
  C   C1        1.0  0.9394194850000002  0.537347075  0.5420139549306899  1.0000
  O   O1        1.0  0.8834496450000002  0.537111785  0.5527732116706608  1.0000
  Al  Al1       1.0  0.7027452249999999  0.47991861500000005  0.4703821636008218  1.0000
  Al  Al2       1.0  0.03607855499999987  0.47991861500000005  0.4850113841084478  1.0000
  Al  Al3       1.0  0.36941188499999994  0.47991861500000005  0.4557529430931958  1.0000
  Al  Al4       1.0  0.758300775  0.9799186150000001  0.48013497624852713  1.0000
  Al  Al5       1.0  0.09163410499999987  0.9799186150000001  0.4508765383054113  1.0000
  Al  Al6       1.0  0.42496744499999994  0.9799186150000001  0.4655057557409011  1.0000
  Sb  Sb1       1.0  0.5776591450000002  0.855176855  0.4813616341323756  1.0000
  Sb  Sb2       1.0  0.910992475  0.855176855  0.45210319618925965  1.0000
  Sb  Sb3       1.0  0.24432580499999992  0.855176855  0.4667324136247496  1.0000
  Sb  Sb4       1.0  0.9665480250000001  0.355176855  0.4618560088369651  1.0000
  Sb  Sb5       1.0  0.2998813649999999  0.355176855  0.47648522627245493  1.0000
  Sb  Sb6       1.0  0.633214695  0.355176855  0.44722678832933904  1.0000
  Al  Al7       1.0  0.696876885  0.545541065  0.5107194925456746  1.0000
  Al  Al8       1.0  0.033451974999999926  0.558587345  0.5239644422962589  1.0000
  Al  Al9       1.0  0.3645806649999999  0.511870615  0.5007100367158844  1.0000
  Al  Al10      1.0  0.823630515  0.8039748250000001  0.5203766235128948  1.0000
  Al  Al11      1.0  0.09163410499999987  0.9799186150000001  0.4947641967561531  1.0000
  Al  Al12      1.0  0.404467775  0.020081384999999983  0.5101359402834134  1.0000
  Sb  Sb7       1.0  0.5634834950000001  0.8931632650000001  0.5278582243355081  1.0000
  Sb  Sb8       1.0  0.910992475  0.855176855  0.4959908546400015  1.0000
  Sb  Sb9       1.0  0.22900048499999992  0.885039085  0.5125135217506666  1.0000
  Sb  Sb10      1.0  0.9563177850000002  0.35538280499999997  0.5059334239214688  1.0000
  Sb  Sb11      1.0  0.28990346499999997  0.40320893500000005  0.5223313407993692  1.0000
  Sb  Sb12      1.0  0.633214695  0.355176855  0.49111444678008087  1.0000
