data_image0
_chemical_formula_structural       COAl12Sb12
_chemical_formula_sum              "C1 O1 Al12 Sb12"
_cell_length_a       8.521251617051325
_cell_length_b       10.5802016925265
_cell_length_c       99.97531384
_cell_angle_alpha    85.75952374457037
_cell_angle_beta     89.15069838790922
_cell_angle_gamma    74.92345491142376

_space_group_name_H-M_alt    "P 1"
_space_group_IT_number       1

loop_
  _space_group_symop_operation_xyz
  'x, y, z'

loop_
  _atom_site_type_symbol
  _atom_site_label
  _atom_site_symmetry_multiplicity
  _atom_site_fract_x
  _atom_site_fract_y
  _atom_site_fract_z
  _atom_site_occupancy
  C   C1        1.0  0.65817856  0.4758811199999999  0.5451618488817911  1.0000
  O   O1        1.0  0.64350475  0.5552355899999999  0.5526726720066255  1.0000
  Al  Al1       1.0  0.045667829999999965  0.9265177499999999  0.5045553489107164  1.0000
  Al  Al2       1.0  0.42067045  0.5999238399999999  0.49015977773829855  1.0000
  Al  Al3       1.0  0.6965106799999999  0.21750825999999995  0.5139856294975513  1.0000
  Al  Al4       1.0  0.9392451100000002  0.5370393099999998  0.5033489283937744  1.0000
  Al  Al5       1.0  0.12718186999999992  0.24657766999999994  0.5229106233744806  1.0000
  Al  Al6       1.0  0.51345787  0.87559887  0.5092758875920456  1.0000
  Al  Al7       1.0  0.18257521999999995  0.93325718  0.4616048122411062  1.0000
  Al  Al8       1.0  0.5635276  0.5999238399999999  0.4473273279933744  1.0000
  Al  Al9       1.0  0.80162283  0.26659050999999995  0.47588229349056665  1.0000
  Al  Al10      1.0  0.07940060999999994  0.5443682899999999  0.459225231033439  1.0000
  Al  Al11      1.0  0.3174958499999999  0.21103495999999994  0.4877801965306313  1.0000
  Al  Al12      1.0  0.69844823  0.8777016199999998  0.4735027152811709  1.0000
  Sb  Sb1       1.0  0.81142847  0.79987268  0.49905902545749564  1.0000
  Sb  Sb2       1.0  0.07913516999999994  0.4943142899999999  0.5276781569639606  1.0000
  Sb  Sb3       1.0  0.4263088199999999  0.13104094999999993  0.5139960934652332  1.0000
  Sb  Sb4       1.0  0.3084523199999999  0.7257006199999999  0.5123941289733699  1.0000
  Sb  Sb5       1.0  0.7042407499999999  0.41928220999999993  0.4966999374358187  1.0000
  Sb  Sb6       1.0  0.9543321699999999  0.06674281999999995  0.526873258975395  1.0000
  Sb  Sb7       1.0  0.9502725000000001  0.8081710999999999  0.45624706889856187  1.0000
  Sb  Sb8       1.0  0.18836772999999993  0.4748377599999999  0.4848020343957541  1.0000
  Sb  Sb9       1.0  0.5693201099999999  0.14150442999999996  0.47052455014802214  1.0000
  Sb  Sb10      1.0  0.46614550999999993  0.7526155399999999  0.4681449719386266  1.0000
  Sb  Sb11      1.0  0.84709789  0.41928220999999993  0.4538674876908946  1.0000
  Sb  Sb12      1.0  0.08519312999999992  0.08594887999999995  0.48242245318808685  1.0000
