data_image0
_chemical_formula_structural       COGa4Cu2Ga4Cu2Ga4Cu2Ga4Cu2
_chemical_formula_sum              "C1 O1 Ga16 Cu8"
_cell_length_a       8.13194814
_cell_length_b       6.626954159212512
_cell_length_c       102.52779258999999
_cell_angle_alpha    107.86501294145212
_cell_angle_beta     90.0
_cell_angle_gamma    72.13498705854788

_space_group_name_H-M_alt    "P 1"
_space_group_IT_number       1

loop_
  _space_group_symop_operation_xyz
  'x, y, z'

loop_
  _atom_site_type_symbol
  _atom_site_label
  _atom_site_symmetry_multiplicity
  _atom_site_fract_x
  _atom_site_fract_y
  _atom_site_fract_z
  _atom_site_occupancy
  C   C1        1.0  0.33313641  0.8385298849999997  0.5390210141677061  1.0000
  O   O1        1.0  0.32072657999999993  0.8773465849999998  0.5508937110342306  1.0000
  Ga  Ga1       1.0  0.46444720999999994  0.29421476499999993  0.4689349323561986  1.0000
  Ga  Ga2       1.0  0.21444720999999992  0.29421476499999993  0.4491062889657694  1.0000
  Ga  Ga3       1.0  0.35665837000000006  0.7253700649999998  0.47748415823551066  1.0000
  Ga  Ga4       1.0  0.10665836999999995  0.7253700649999998  0.4576555148450815  1.0000
  Cu  Cu1       1.0  0.035552789999999904  0.009792414999999978  0.4831238654047778  1.0000
  Cu  Cu2       1.0  0.2855527899999999  0.009792414999999978  0.4632952220143486  1.0000
  Ga  Ga5       1.0  0.4619370699999999  0.30321558499999995  0.5098960333408428  1.0000
  Ga  Ga6       1.0  0.21444720999999992  0.29421476499999993  0.48876357574662777  1.0000
  Ga  Ga7       1.0  0.35190089  0.7364545049999999  0.5167781874420394  1.0000
  Ga  Ga8       1.0  0.09364590999999994  0.7179399649999998  0.49580299795686555  1.0000
  Cu  Cu3       1.0  0.03841748999999992  0.9902075849999998  0.5190541952723835  1.0000
  Cu  Cu4       1.0  0.27705965999999993  0.03362637499999998  0.5037128944393603  1.0000
  Ga  Ga9       1.0  0.96444721  0.29421476499999993  0.4689349323561986  1.0000
  Ga  Ga10      1.0  0.7144472099999999  0.29421476499999993  0.4491062889657694  1.0000
  Ga  Ga11      1.0  0.8566583699999999  0.7253700649999998  0.47748415823551066  1.0000
  Ga  Ga12      1.0  0.60665837  0.7253700649999998  0.4576555148450815  1.0000
  Cu  Cu5       1.0  0.5355527899999998  0.009792414999999978  0.4831238654047778  1.0000
  Cu  Cu6       1.0  0.7855527899999999  0.009792414999999978  0.4632952220143486  1.0000
  Ga  Ga13      1.0  0.95530392  0.3213439249999999  0.5100961344921902  1.0000
  Ga  Ga14      1.0  0.7144472099999999  0.29421476499999993  0.48876357574662777  1.0000
  Ga  Ga15      1.0  0.84457003  0.7675537349999998  0.5208225866593497  1.0000
  Ga  Ga16      1.0  0.6229867499999999  0.7171340049999998  0.49599413338881754  1.0000
  Cu  Cu7       1.0  0.54024044  0.9876065649999999  0.5192542171091573  1.0000
  Cu  Cu8       1.0  0.77897038  0.037682244999999975  0.5040189376529055  1.0000
