data_image0
_chemical_formula_structural       COIn3Pd9
_chemical_formula_sum              "C1 O1 In3 Pd9"
_cell_length_a       5.81753587
_cell_length_b       5.732840811620421
_cell_length_c       98.22405373000001
_cell_angle_alpha    91.38576591731103
_cell_angle_beta     90.0
_cell_angle_gamma    59.51007592701698

_space_group_name_H-M_alt    "P 1"
_space_group_IT_number       1

loop_
  _space_group_symop_operation_xyz
  'x, y, z'

loop_
  _atom_site_type_symbol
  _atom_site_label
  _atom_site_symmetry_multiplicity
  _atom_site_fract_x
  _atom_site_fract_y
  _atom_site_fract_z
  _atom_site_occupancy
  C   C1        1.0  0.32952656999999996  0.4250117300000001  0.5247182968871914  1.0000
  O   O1        1.0  0.32641922  0.42872606  0.5368753364590984  1.0000
  In  In1       1.0  0.6681754800000002  0.74499603  0.46312466354090165  1.0000
  In  In2       1.0  0.9971942800000001  0.08763386000000002  0.5102338890494634  1.0000
  In  In3       1.0  0.3348617100000001  0.41406447  0.4863554716597597  1.0000
  Pd  Pd1       1.0  0.83364779  0.41438963000000006  0.48701327875515904  1.0000
  Pd  Pd2       1.0  0.16817548000000004  0.74499603  0.46312466354090165  1.0000
  Pd  Pd3       1.0  0.49610199  0.08920480000000003  0.5109634946915294  1.0000
  Pd  Pd4       1.0  0.3361569500000001  0.9123661399999999  0.48690307960907464  1.0000
  Pd  Pd5       1.0  0.6681754800000002  0.24499603000000003  0.46312466354090165  1.0000
  Pd  Pd6       1.0  0.0028057200000000423  0.58431515  0.5111187665555474  1.0000
  Pd  Pd7       1.0  0.8342939300000001  0.91110798  0.4868990079501869  1.0000
  Pd  Pd8       1.0  0.16817548000000004  0.24499603000000003  0.46312466354090165  1.0000
  Pd  Pd9       1.0  0.49277756000000017  0.58455566  0.510986990778138  1.0000
