data_image0
_chemical_formula_structural       CORe4V8W4Re4V8W4
_chemical_formula_sum              "C1 O1 Re8 V16 W8"
_cell_length_a       8.65419448
_cell_length_b       6.1194396
_cell_length_c       104.61677793
_cell_angle_alpha    90.0
_cell_angle_beta     90.0
_cell_angle_gamma    90.0

_space_group_name_H-M_alt    "P 1"
_space_group_IT_number       1

loop_
  _space_group_symop_operation_xyz
  'x, y, z'

loop_
  _atom_site_type_symbol
  _atom_site_label
  _atom_site_symmetry_multiplicity
  _atom_site_fract_x
  _atom_site_fract_y
  _atom_site_fract_z
  _atom_site_occupancy
  C   C1        1.0  0.37639466  0.12440587999999994  0.5347067264418116  1.0000
  O   O1        1.0  0.376392  0.12440959999999994  0.5459825212954921  1.0000
  Re  Re1       1.0  0.12526476  0.6244013199999999  0.4954622515035977  1.0000
  Re  Re2       1.0  0.12640084  0.6243987999999999  0.45401747870450787  1.0000
  Re  Re3       1.0  0.37640016000000004  0.12440200999999995  0.5158581938173051  1.0000
  Re  Re4       1.0  0.37640084  0.12439879999999995  0.4746981827314723  1.0000
  V   V1        1.0  0.37640084  0.3743988  0.45401747870450787  1.0000
  V   V2        1.0  0.37640044  0.37871796999999996  0.4952996879342952  1.0000
  V   V3        1.0  0.37640084  0.8743987999999999  0.45401747870450787  1.0000
  V   V4        1.0  0.37640005  0.87008236  0.49529973756798484  1.0000
  V   V5        1.0  0.12359677999999999  0.8756012000000002  0.5154420418007677  1.0000
  V   V6        1.0  0.12640084  0.8743987999999999  0.4746981827314723  1.0000
  V   V7        1.0  0.12359655  0.37320435999999996  0.5154421509948849  1.0000
  V   V8        1.0  0.12640084  0.3743988  0.4746981827314723  1.0000
  W   W1        1.0  0.1275841  0.12439999999999994  0.49537968751529676  1.0000
  W   W2        1.0  0.12640084  0.12439879999999995  0.45401747870450787  1.0000
  W   W3        1.0  0.37640019  0.62440018  0.5151735897179344  1.0000
  W   W4        1.0  0.37640084  0.6243987999999999  0.4746981827314723  1.0000
  Re  Re5       1.0  0.6275386  0.6244007899999999  0.49546219525208274  1.0000
  Re  Re6       1.0  0.6264008400000001  0.6243987999999999  0.45401747870450787  1.0000
  Re  Re7       1.0  0.8764034500000001  0.12440284999999994  0.5148669924901376  1.0000
  Re  Re8       1.0  0.87640084  0.12439879999999995  0.4746981827314723  1.0000
  V   V9        1.0  0.87640084  0.3743988  0.45401747870450787  1.0000
  V   V10       1.0  0.8764024100000001  0.37534898  0.4953897598453861  1.0000
  V   V11       1.0  0.87640084  0.8743987999999999  0.45401747870450787  1.0000
  V   V12       1.0  0.87640258  0.87345189  0.49538976646321137  1.0000
  V   V13       1.0  0.62920629  0.8756003600000001  0.5154417373808045  1.0000
  V   V14       1.0  0.6264008400000001  0.8743987999999999  0.4746981827314723  1.0000
  V   V15       1.0  0.6292063800000001  0.37320344999999994  0.5154418234125332  1.0000
  V   V16       1.0  0.6264008400000001  0.3743988  0.4746981827314723  1.0000
  W   W5        1.0  0.62521806  0.12440020999999994  0.49537972722224843  1.0000
  W   W6        1.0  0.6264008400000001  0.12439879999999995  0.45401747870450787  1.0000
  W   W7        1.0  0.8764032900000001  0.6243993899999999  0.5158629685782509  1.0000
  W   W8        1.0  0.87640084  0.6243987999999999  0.4746981827314723  1.0000
