data_image0
_chemical_formula_structural       COPt8W4
_chemical_formula_sum              "C1 O1 Pt8 W4"
_cell_length_a       4.845183677438649
_cell_length_b       4.8664047747387045
_cell_length_c       37.76953927
_cell_angle_alpha    90.00882641892439
_cell_angle_beta     92.59323406712508
_cell_angle_gamma    80.36847424282367

_space_group_name_H-M_alt    "P 1"
_space_group_IT_number       1

loop_
  _space_group_symop_operation_xyz
  'x, y, z'

loop_
  _atom_site_type_symbol
  _atom_site_label
  _atom_site_symmetry_multiplicity
  _atom_site_fract_x
  _atom_site_fract_y
  _atom_site_fract_z
  _atom_site_occupancy
  C   C1        1.0  0.0791701000000001  0.532983215  0.5904385813369095  1.0000
  O   O1        1.0  0.13534749000000004  0.4666365750000001  0.6208634833963512  1.0000
  Pt  Pt1       1.0  0.15767894000000005  0.501378435  0.4684187467228802  1.0000
  Pt  Pt2       1.0  0.9076789400000002  0.8763784350000001  0.4150846623109737  1.0000
  Pt  Pt3       1.0  0.40963481  0.11721303500000006  0.5210144399363743  1.0000
  Pt  Pt4       1.0  0.6623192400000001  0.7426804150000001  0.5711475235367739  1.0000
  Pt  Pt5       1.0  0.6654826100000001  0.5753966650000001  0.5019850775549043  1.0000
  Pt  Pt6       1.0  0.4187064200000001  0.957873855  0.4498565311866839  1.0000
  Pt  Pt7       1.0  0.9208299  0.191057725  0.5555216096177849  1.0000
  Pt  Pt8       1.0  0.16870642000000005  0.33287385500000005  0.3965224467747774  1.0000
  W   W1        1.0  0.16637461000000012  0.666982925  0.5386412524330673  1.0000
  W   W2        1.0  0.9131926799999999  0.04212614500000004  0.4858046854274621  1.0000
  W   W3        1.0  0.4131926800000001  0.792126145  0.379136516603649  1.0000
  W   W4        1.0  0.6631926800000001  0.41712614500000006  0.4324706010155556  1.0000
