data_image0
_chemical_formula_structural       Fe9Ga12CO
_chemical_formula_sum              "Fe9 Ga12 C1 O1"
_cell_length_a       6.283058365746711
_cell_length_b       6.2830583599703935
_cell_length_c       39.87591606
_cell_angle_alpha    92.06179243795742
_cell_angle_beta     92.0617924360611
_cell_angle_gamma    74.68710285208668

_space_group_name_H-M_alt    "P 1"
_space_group_IT_number       1

loop_
  _space_group_symop_operation_xyz
  'x, y, z'

loop_
  _atom_site_type_symbol
  _atom_site_label
  _atom_site_symmetry_multiplicity
  _atom_site_fract_x
  _atom_site_fract_y
  _atom_site_fract_z
  _atom_site_occupancy
  Fe  Fe1       1.0  0.62062904  0.615120315  0.5443530212283136  1.0000
  Fe  Fe2       1.0  0.01841184000000004  0.01836408499999997  0.4879452455788234  1.0000
  Fe  Fe3       1.0  0.93222467  0.9322724249999998  0.4176266952944253  1.0000
  Fe  Fe4       1.0  0.66373561  0.663783365  0.4271634401076693  1.0000
  Fe  Fe5       1.0  0.2847250200000001  0.2847727749999999  0.47972546146468265  1.0000
  Fe  Fe6       1.0  0.72409578  0.3219000449999999  0.38777782475177464  1.0000
  Fe  Fe7       1.0  0.5943494199999999  0.23506119499999995  0.5186060992326169  1.0000
  Fe  Fe8       1.0  0.24070498000000007  0.597161405  0.5186331441838458  1.0000
  Fe  Fe9       1.0  0.32185229000000004  0.7241435350000001  0.3877778247517746  1.0000
  Ga  Ga1       1.0  0.84867995  0.8499985849999999  0.5294914730230512  1.0000
  Ga  Ga2       1.0  0.39818948000000004  0.40099659499999996  0.5673514282880409  1.0000
  Ga  Ga3       1.0  0.55355625  0.5536040050000001  0.4823265285352651  1.0000
  Ga  Ga4       1.0  0.39490439000000005  0.394952145  0.4245623805915426  1.0000
  Ga  Ga5       1.0  0.3601020000000001  0.9580985549999999  0.5236096645070071  1.0000
  Ga  Ga6       1.0  0.9815881599999999  0.575977775  0.3875527473001224  1.0000
  Ga  Ga7       1.0  0.5759300199999999  0.981635915  0.3875527473001224  1.0000
  Ga  Ga8       1.0  0.95750379  0.36019466499999997  0.5228763837148318  1.0000
  Ga  Ga9       1.0  0.025383600000000055  0.6531787049999999  0.4630152473082649  1.0000
  Ga  Ga10      1.0  0.29532968000000004  0.923124785  0.44387365426408704  1.0000
  Ga  Ga11      1.0  0.9230770300000001  0.2953774349999999  0.44387365426408704  1.0000
  Ga  Ga12      1.0  0.6531309499999999  0.025431354999999968  0.4630152473082649  1.0000
  C   C1        1.0  0.73439849  0.646193775  0.5850027765294031  1.0000
  O   O1        1.0  0.80689736  0.660739805  0.6124472526998775  1.0000
