data_image0
_chemical_formula_structural       COIn12Pt6
_chemical_formula_sum              "C1 O1 In12 Pt6"
_cell_length_a       7.996320585924985
_cell_length_b       6.52896842
_cell_length_c       105.15957096
_cell_angle_alpha    90.0
_cell_angle_beta     85.65224684292981
_cell_angle_gamma    114.09484255835181

_space_group_name_H-M_alt    "P 1"
_space_group_IT_number       1

loop_
  _space_group_symop_operation_xyz
  'x, y, z'

loop_
  _atom_site_type_symbol
  _atom_site_label
  _atom_site_symmetry_multiplicity
  _atom_site_fract_x
  _atom_site_fract_y
  _atom_site_fract_z
  _atom_site_occupancy
  C   C1        1.0  0.061677589999999984  0.6968611549999998  0.5386987656796381  1.0000
  O   O1        1.0  0.006687929999999981  0.7261094549999999  0.5488772890198027  1.0000
  In  In1       1.0  0.29166223  0.461357515  0.5002465727099765  1.0000
  In  In2       1.0  0.5149215300000001  0.9455648849999999  0.5238297672589903  1.0000
  In  In3       1.0  0.11831206999999999  0.866935115  0.4720192700374404  1.0000
  In  In4       1.0  0.27340037  0.9477965450000001  0.5003046216793128  1.0000
  In  In5       1.0  0.35516056  0.3774066449999999  0.5294320244084053  1.0000
  In  In6       1.0  0.11831206999999999  0.366935115  0.4720192700374404  1.0000
  In  In7       1.0  0.8414935900000001  0.744608965  0.5143609412161514  1.0000
  In  In8       1.0  0.5349787300000001  0.575268455  0.45808822955146167  1.0000
  In  In9       1.0  0.7016454000000001  0.15860178500000002  0.4859503071799695  1.0000
  In  In10      1.0  0.8875428500000001  0.26565731499999995  0.5132567937831622  1.0000
  In  In11      1.0  0.5349787300000001  0.07526845499999996  0.45808822955146167  1.0000
  In  In12      1.0  0.7016454000000001  0.658601785  0.4859503071799695  1.0000
  Pt  Pt1       1.0  0.40997873  0.7627684549999999  0.4789847886087049  1.0000
  Pt  Pt2       1.0  0.5748063499999999  0.33492336499999986  0.5071853537159962  1.0000
  Pt  Pt3       1.0  0.24331207  0.17943511499999992  0.4511227109801972  1.0000
  Pt  Pt4       1.0  0.9933120700000001  0.05443511499999998  0.49291582909468357  1.0000
  Pt  Pt5       1.0  0.15348518  0.6442320650000001  0.5223537847824119  1.0000
  Pt  Pt6       1.0  0.8266454000000001  0.47110178499999994  0.46505374812272626  1.0000
