data_image0
_chemical_formula_structural       COSi3Pd6Si3Pd6
_chemical_formula_sum              "C1 O1 Si6 Pd12"
_cell_length_a       6.576270992923798
_cell_length_b       6.57627099
_cell_length_c       98.28462016
_cell_angle_alpha    90.0
_cell_angle_beta     90.0
_cell_angle_gamma    120.00000003559447

_space_group_name_H-M_alt    "P 1"
_space_group_IT_number       1

loop_
  _space_group_symop_operation_xyz
  'x, y, z'

loop_
  _atom_site_type_symbol
  _atom_site_label
  _atom_site_symmetry_multiplicity
  _atom_site_fract_x
  _atom_site_fract_y
  _atom_site_fract_z
  _atom_site_occupancy
  C   C1        1.0  0.880810565  0.8947102349999999  0.5290587528852911  1.0000
  O   O1        1.0  0.872026625  0.9128999149999998  0.5409420516610048  1.0000
  Si  Si1       1.0  0.668229345  0.3655590949999999  0.4959807193656451  1.0000
  Si  Si2       1.0  0.01806377500000001  0.040630054999999936  0.4943631154425599  1.0000
  Si  Si3       1.0  0.33555458499999996  0.695102355  0.5133096796821446  1.0000
  Pd  Pd1       1.0  0.060698455000000005  0.4389344749999999  0.4956438091999079  1.0000
  Pd  Pd2       1.0  0.356665765  0.9657669049999998  0.49508877983990657  1.0000
  Pd  Pd3       1.0  0.608593945  0.696698175  0.4944425808986208  1.0000
  Pd  Pd4       1.0  0.7501226350000001  0.039158004999999906  0.5139853907464125  1.0000
  Pd  Pd5       1.0  0.32948326499999997  0.3113804649999999  0.5112926505423677  1.0000
  Pd  Pd6       1.0  0.988544725  0.7584055949999998  0.5137424877000641  1.0000
  Si  Si4       1.0  0.678121945  0.3673229349999999  0.4590579483389952  1.0000
  Si  Si5       1.0  0.01145527500000001  0.03398960499999993  0.4590579483389952  1.0000
  Si  Si6       1.0  0.344788605  0.7006562749999998  0.4770443714143673  1.0000
  Pd  Pd7       1.0  0.079434485  0.43530215499999997  0.4590579483389952  1.0000
  Pd  Pd8       1.0  0.344788605  0.9660103949999999  0.4590579483389952  1.0000
  Pd  Pd9       1.0  0.610142725  0.7006562749999999  0.4590579483389952  1.0000
  Pd  Pd10      1.0  0.7386684150000001  0.09453608499999994  0.4770443714143673  1.0000
  Pd  Pd11      1.0  0.344788605  0.3067764649999999  0.4770443714143673  1.0000
  Pd  Pd12      1.0  0.950908795  0.7006562749999998  0.4770443714143673  1.0000
