data_image0
_chemical_formula_structural       COSi4Ir4Si4Ir4Si4Ir4
_chemical_formula_sum              "C1 O1 Si12 Ir12"
_cell_length_a       5.6116727
_cell_length_b       7.165477224188752
_cell_length_c       37.6055912
_cell_angle_alpha    63.12214202241109
_cell_angle_beta     90.0
_cell_angle_gamma    90.0

_space_group_name_H-M_alt    "P 1"
_space_group_IT_number       1

loop_
  _space_group_symop_operation_xyz
  'x, y, z'

loop_
  _atom_site_type_symbol
  _atom_site_label
  _atom_site_symmetry_multiplicity
  _atom_site_fract_x
  _atom_site_fract_y
  _atom_site_fract_z
  _atom_site_occupancy
  C   C1        1.0  0.7965064599999999  0.7153490199999999  0.6172547608237288  1.0000
  O   O1        1.0  0.8003683899999999  0.65256844  0.6526841595403092  1.0000
  Si  Si1       1.0  0.70352615  0.01729523000000002  0.5741495541781084  1.0000
  Si  Si2       1.0  0.3072487299999999  0.98270477  0.5485458570430446  1.0000
  Si  Si3       1.0  0.17958652999999997  0.4781451100000001  0.55366307668616  1.0000
  Si  Si4       1.0  0.83748882  0.57728432  0.5812595434935537  1.0000
  Ir  Ir1       1.0  0.51147412  0.73088925  0.5350292752651636  1.0000
  Ir  Ir2       1.0  0.49875027  0.3330748500000001  0.5231825492605015  1.0000
  Ir  Ir3       1.0  0.0061488299999999645  0.8445428299999999  0.5178173080364437  1.0000
  Ir  Ir4       1.0  0.99989752  0.23817818000000004  0.5304139823189351  1.0000
  Si  Si5       1.0  0.68465686  0.09607634000000001  0.49668993009915924  1.0000
  Si  Si6       1.0  0.31885571999999995  0.97510048  0.46403982545223926  1.0000
  Si  Si7       1.0  0.18465685999999995  0.47510048  0.46403982545223926  1.0000
  Si  Si8       1.0  0.81885572  0.59607634  0.49668993009915924  1.0000
  Ir  Ir5       1.0  0.5034101  0.7410663699999999  0.44112884914119554  1.0000
  Ir  Ir6       1.0  0.50010248  0.33011045  0.4334583734349468  1.0000
  Ir  Ir7       1.0  0.003410099999999964  0.83011045  0.4334583734349468  1.0000
  Ir  Ir8       1.0  0.00010248000000001589  0.24106637  0.44112884914119554  1.0000
  Si  Si9       1.0  0.68465686  0.09607634000000001  0.4105473971239032  1.0000
  Si  Si10      1.0  0.31885571999999995  0.97510048  0.37789729247698317  1.0000
  Si  Si11      1.0  0.18465685999999995  0.47510048  0.3778972924769832  1.0000
  Si  Si12      1.0  0.81885572  0.59607634  0.41054739712390326  1.0000
  Ir  Ir9       1.0  0.5034101  0.7410663699999999  0.3549863161659395  1.0000
  Ir  Ir10      1.0  0.50010248  0.33011045  0.3473158404596908  1.0000
  Ir  Ir11      1.0  0.003410099999999964  0.83011045  0.3473158404596908  1.0000
  Ir  Ir12      1.0  0.00010248000000001589  0.24106637  0.3549863161659395  1.0000
