data_image0
_chemical_formula_structural       COCo6Ni2Co6Ni2Co6Ni2Co6Ni2
_chemical_formula_sum              "C1 O1 Co24 Ni8"
_cell_length_a       4.94551128
_cell_length_b       6.99400912
_cell_length_c       104.61857893999999
_cell_angle_alpha    90.0
_cell_angle_beta     90.0
_cell_angle_gamma    90.0

_space_group_name_H-M_alt    "P 1"
_space_group_IT_number       1

loop_
  _space_group_symop_operation_xyz
  'x, y, z'

loop_
  _atom_site_type_symbol
  _atom_site_label
  _atom_site_symmetry_multiplicity
  _atom_site_fract_x
  _atom_site_fract_y
  _atom_site_fract_z
  _atom_site_occupancy
  C   C1        1.0  0.25032408999999994  0.07548258500000003  0.5401681085040465  1.0000
  O   O1        1.0  0.24999931999999997  0.14667078500000003  0.5507887212145309  1.0000
  Co  Co1       1.0  0.75051134  0.17282571500000002  0.4964831073127399  1.0000
  Co  Co2       1.0  0.25054455999999997  0.17514754500000002  0.5219163349336567  1.0000
  Co  Co3       1.0  0.002920659999999997  0.43370347500000006  0.530834945870003  1.0000
  Co  Co4       1.0  0.49944523999999996  0.418662695  0.5083082260080418  1.0000
  Co  Co5       1.0  0.49835088000000005  0.43361914500000004  0.5308251676927611  1.0000
  Co  Co6       1.0  0.0016809699999999971  0.418670635  0.5083062802996771  1.0000
  Ni  Ni1       1.0  0.75061225  0.17470209500000003  0.5204325337637529  1.0000
  Ni  Ni2       1.0  0.25051133999999997  0.17282571500000002  0.4964831073127399  1.0000
  Co  Co7       1.0  0.75051134  0.17282571500000002  0.4492112787854691  1.0000
  Co  Co8       1.0  0.25051133999999997  0.17282571500000002  0.47284719139459064  1.0000
  Co  Co9       1.0  0.0005113400000000823  0.42282571500000005  0.4846651493536653  1.0000
  Co  Co10      1.0  0.50051134  0.42282571500000005  0.46102923674454377  1.0000
  Co  Co11      1.0  0.50051134  0.42282571500000005  0.4846651493536653  1.0000
  Co  Co12      1.0  0.0005113400000000823  0.42282571500000005  0.46102923674454377  1.0000
  Ni  Ni3       1.0  0.75051134  0.17282571500000002  0.47284719139459064  1.0000
  Ni  Ni4       1.0  0.25051133999999997  0.17282571500000002  0.4492112787854691  1.0000
  Co  Co13      1.0  0.75051134  0.672825715  0.4964831073127399  1.0000
  Co  Co14      1.0  0.25059712999999995  0.673101515  0.5201577289294338  1.0000
  Co  Co15      1.0  0.99948866  0.915321255  0.5310577724951455  1.0000
  Co  Co16      1.0  0.5014631599999999  0.924517415  0.5082270919546423  1.0000
  Co  Co17      1.0  0.50145953  0.9154639250000001  0.5310639239778843  1.0000
  Co  Co18      1.0  0.99966893  0.924517105  0.5082269827567238  1.0000
  Ni  Ni5       1.0  0.75057417  0.671399525  0.5198248175663943  1.0000
  Ni  Ni6       1.0  0.25051133999999997  0.672825715  0.4964831073127399  1.0000
  Co  Co19      1.0  0.75051134  0.672825715  0.4492112787854691  1.0000
  Co  Co20      1.0  0.25051133999999997  0.672825715  0.47284719139459064  1.0000
  Co  Co21      1.0  0.0005113400000000823  0.922825715  0.4846651493536653  1.0000
  Co  Co22      1.0  0.50051134  0.922825715  0.46102923674454377  1.0000
  Co  Co23      1.0  0.50051134  0.922825715  0.4846651493536653  1.0000
  Co  Co24      1.0  0.0005113400000000823  0.922825715  0.46102923674454377  1.0000
  Ni  Ni7       1.0  0.75051134  0.672825715  0.47284719139459064  1.0000
  Ni  Ni8       1.0  0.25051133999999997  0.672825715  0.4492112787854691  1.0000
