data_image0
_chemical_formula_structural       COCu12Si4
_chemical_formula_sum              "C1 O1 Cu12 Si4"
_cell_length_a       4.53557281
_cell_length_b       4.535572809314684
_cell_length_c       100.98517946999999
_cell_angle_alpha    90.0
_cell_angle_beta     90.0
_cell_angle_gamma    110.59724771522775

_space_group_name_H-M_alt    "P 1"
_space_group_IT_number       1

loop_
  _space_group_symop_operation_xyz
  'x, y, z'

loop_
  _atom_site_type_symbol
  _atom_site_label
  _atom_site_symmetry_multiplicity
  _atom_site_fract_x
  _atom_site_fract_y
  _atom_site_fract_z
  _atom_site_occupancy
  C   C1        1.0  0.4999995949999999  0.5000002749999999  0.5492555888432766  1.0000
  O   O1        1.0  0.49999994499999995  0.5000010349999999  0.5607324408755039  1.0000
  Cu  Cu1       1.0  0.5000018049999999  2.1149999999960656e-06  0.4392675591244961  1.0000
  Cu  Cu2       1.0  1.8049999999884906e-06  0.5000021149999999  0.4648366396513056  1.0000
  Cu  Cu3       1.0  1.8049999999884906e-06  0.5000021149999999  0.4392675591244961  1.0000
  Cu  Cu4       1.0  0.5000018049999999  2.1149999999960656e-06  0.4648366396513056  1.0000
  Cu  Cu5       1.0  0.5000018049999999  0.5000021149999999  0.4776211814488552  1.0000
  Cu  Cu6       1.0  1.8050000000060507e-06  2.1149999999960656e-06  0.452052097853756  1.0000
  Cu  Cu7       1.0  0.5000018049999999  2.1149999999960656e-06  0.49040572017811507  1.0000
  Cu  Cu8       1.0  0.9999975949999997  0.499998705  0.5168047945700521  1.0000
  Cu  Cu9       1.0  1.8049999999884906e-06  0.5000021149999999  0.49040572017811507  1.0000
  Cu  Cu10      1.0  0.4999995949999999  0.999998355  0.5168047945700521  1.0000
  Cu  Cu11      1.0  0.4999976149999999  0.49999790499999996  0.5306445917956546  1.0000
  Cu  Cu12      1.0  9.050000000060507e-07  1.0449999999960657e-06  0.502734252747677  1.0000
  Si  Si1       1.0  0.5000018049999999  0.5000021149999999  0.452052097853756  1.0000
  Si  Si2       1.0  1.8050000000060507e-06  2.1149999999960656e-06  0.4776211814488552  1.0000
  Si  Si3       1.0  0.49999979499999997  0.500000335  0.5044795051827939  1.0000
  Si  Si4       1.0  0.9999990950000001  0.9999989549999999  0.527290944923033  1.0000
