data_image0
_chemical_formula_structural       COSn4Au4Sn4Au4Sn4Au4Sn4Au4
_chemical_formula_sum              "C1 O1 Sn16 Au16"
_cell_length_a       7.238734378466347
_cell_length_b       8.90486381120702
_cell_length_c       113.43240628000001
_cell_angle_alpha    72.08882857770236
_cell_angle_beta     104.083907394959
_cell_angle_gamma    72.08882854181302

_space_group_name_H-M_alt    "P 1"
_space_group_IT_number       1

loop_
  _space_group_symop_operation_xyz
  'x, y, z'

loop_
  _atom_site_type_symbol
  _atom_site_label
  _atom_site_symmetry_multiplicity
  _atom_site_fract_x
  _atom_site_fract_y
  _atom_site_fract_z
  _atom_site_occupancy
  C   C1        1.0  0.527001005  0.14005813500000014  0.5619512034785081  1.0000
  O   O1        1.0  0.504468435  0.12713849500000018  0.5719365663132414  1.0000
  Sn  Sn1       1.0  0.19619951500000002  0.4155332150000001  0.5104916595408107  1.0000
  Sn  Sn2       1.0  0.6596438749999999  0.4444274950000002  0.5405529898500786  1.0000
  Sn  Sn3       1.0  0.095467145  0.09200330500000015  0.5363754652932614  1.0000
  Sn  Sn4       1.0  0.6128661849999999  0.08219987500000012  0.5051737091151696  1.0000
  Au  Au1       1.0  0.35370697500000003  0.2668610350000002  0.5400115417072177  1.0000
  Au  Au2       1.0  0.904532855  0.24886653500000017  0.5078326862424521  1.0000
  Au  Au3       1.0  0.15453285500000002  0.2488665350000001  0.49187883496552864  1.0000
  Au  Au4       1.0  0.6432089550000001  0.24678315500000006  0.5244892905725148  1.0000
  Sn  Sn5       1.0  0.19619951500000002  0.4155332150000001  0.44667625826204055  1.0000
  Sn  Sn6       1.0  0.6961995149999999  0.4155332150000002  0.4785839608158876  1.0000
  Sn  Sn7       1.0  0.112866185  0.08219987500000013  0.4732660103902465  1.0000
  Sn  Sn8       1.0  0.6128661849999999  0.08219987500000012  0.44135831166532347  1.0000
  Au  Au5       1.0  0.40453285499999997  0.24886653500000006  0.4759249836886051  1.0000
  Au  Au6       1.0  0.904532855  0.24886653500000017  0.44401728496368204  1.0000
  Au  Au7       1.0  0.15453285500000002  0.2488665350000001  0.4280634336867584  1.0000
  Au  Au8       1.0  0.654532855  0.24886653500000017  0.4599711362406056  1.0000
  Sn  Sn9       1.0  0.19619951500000002  0.9155332150000001  0.5104916595408108  1.0000
  Sn  Sn10      1.0  0.6638667749999999  0.917800125  0.5408206354666129  1.0000
  Sn  Sn11      1.0  0.09586129500000001  0.5967565950000001  0.5365370382282196  1.0000
  Sn  Sn12      1.0  0.6128661849999999  0.5821998750000001  0.5051737091151696  1.0000
  Au  Au9       1.0  0.35458170499999997  0.7683308650000001  0.5392627037248128  1.0000
  Au  Au10      1.0  0.904532855  0.7488665350000002  0.5078326862424521  1.0000
  Au  Au11      1.0  0.15453285500000002  0.7488665350000001  0.4918788349655286  1.0000
  Au  Au12      1.0  0.641542295  0.7553331750000003  0.5228270895723427  1.0000
  Sn  Sn13      1.0  0.19619951500000002  0.9155332150000001  0.4466762582620406  1.0000
  Sn  Sn14      1.0  0.6961995149999999  0.9155332150000001  0.4785839608158877  1.0000
  Sn  Sn15      1.0  0.112866185  0.5821998750000001  0.47326601039024646  1.0000
  Sn  Sn16      1.0  0.6128661849999999  0.5821998750000001  0.4413583116653234  1.0000
  Au  Au13      1.0  0.40453285499999997  0.748866535  0.4759249836886051  1.0000
  Au  Au14      1.0  0.904532855  0.7488665350000002  0.4440172849636819  1.0000
  Au  Au15      1.0  0.15453285500000002  0.7488665350000001  0.4280634336867584  1.0000
  Au  Au16      1.0  0.654532855  0.7488665350000002  0.45997113624060554  1.0000
