data_image0
_chemical_formula_structural       Al4Sb4Al4Sb4CO
_chemical_formula_sum              "Al8 Sb8 C1 O1"
_cell_length_a       8.8835419
_cell_length_b       6.28161272
_cell_length_c       105.53416759000001
_cell_angle_alpha    90.0
_cell_angle_beta     90.0
_cell_angle_gamma    90.0

_space_group_name_H-M_alt    "P 1"
_space_group_IT_number       1

loop_
  _space_group_symop_operation_xyz
  'x, y, z'

loop_
  _atom_site_type_symbol
  _atom_site_label
  _atom_site_symmetry_multiplicity
  _atom_site_fract_x
  _atom_site_fract_y
  _atom_site_fract_z
  _atom_site_occupancy
  Al  Al1       1.0  0.12721192000000003  0.999100735  0.5004067227077151  1.0000
  Al  Al2       1.0  0.12128870000000004  0.004543005000000007  0.4572161072483328  1.0000
  Al  Al3       1.0  0.37757853  0.5558674549999999  0.5169670549038919  1.0000
  Al  Al4       1.0  0.3712887  0.5045430049999999  0.47826033894212067  1.0000
  Sb  Sb1       1.0  0.12745648000000004  0.7848993249999999  0.5228268666745677  1.0000
  Sb  Sb2       1.0  0.12128870000000004  0.754543005  0.47826033894212067  1.0000
  Sb  Sb3       1.0  0.3712887  0.254543005  0.4572161072483328  1.0000
  Sb  Sb4       1.0  0.37636985  0.249961805  0.4991236744202687  1.0000
  Al  Al5       1.0  0.62671626  0.0008992650000000074  0.5002692516850601  1.0000
  Al  Al6       1.0  0.6212887  0.004543005000000007  0.4572161072483328  1.0000
  Al  Al7       1.0  0.8787113  0.5752693849999999  0.5154556918544149  1.0000
  Al  Al8       1.0  0.8712887  0.5045430049999999  0.47826033894212067  1.0000
  Sb  Sb5       1.0  0.62960938  0.7857089549999999  0.5225778578568586  1.0000
  Sb  Sb6       1.0  0.6212887  0.754543005  0.47826033894212067  1.0000
  Sb  Sb7       1.0  0.8712887  0.254543005  0.4572161072483328  1.0000
  Sb  Sb8       1.0  0.87722406  0.24848758499999998  0.49931642611427557  1.0000
  C   C1        1.0  0.40260019  0.38286176499999997  0.5333901753423483  1.0000
  O   O1        1.0  0.42637034  0.294180715  0.5427838927516672  1.0000
