data_image0
_chemical_formula_structural       COV4Ni12V4Ni12
_chemical_formula_sum              "C1 O1 V8 Ni24"
_cell_length_a       5.02822273
_cell_length_b       8.081240693945745
_cell_length_c       105.19755907999999
_cell_angle_alpha    108.12581296129318
_cell_angle_beta     90.0
_cell_angle_gamma    71.87418703870684

_space_group_name_H-M_alt    "P 1"
_space_group_IT_number       1

loop_
  _space_group_symop_operation_xyz
  'x, y, z'

loop_
  _atom_site_type_symbol
  _atom_site_label
  _atom_site_symmetry_multiplicity
  _atom_site_fract_x
  _atom_site_fract_y
  _atom_site_fract_z
  _atom_site_occupancy
  C   C1        1.0  0.8733048199999999  0.38318144499999995  0.5433191964791585  1.0000
  O   O1        1.0  0.8300502499999999  0.47005545499999996  0.5550114377788637  1.0000
  V   V1        1.0  0.062098379999999925  0.005861324999999992  0.4868117273542182  1.0000
  V   V2        1.0  0.5620983799999999  0.005861324999999992  0.46291277632757893  1.0000
  V   V3        1.0  0.8120983799999997  0.505861325  0.47486225016797196  1.0000
  V   V4        1.0  0.3120983799999999  0.505861325  0.4509632991413327  1.0000
  Ni  Ni1       1.0  0.18709837999999993  0.255861325  0.4569380360615293  1.0000
  Ni  Ni2       1.0  0.6870983799999999  0.255861325  0.4808369904340218  1.0000
  Ni  Ni3       1.0  0.6870983799999999  0.255861325  0.4569380360615293  1.0000
  Ni  Ni4       1.0  0.18709837999999993  0.255861325  0.4808369904340218  1.0000
  Ni  Ni5       1.0  0.062098379999999925  0.005861324999999992  0.46291277632757893  1.0000
  Ni  Ni6       1.0  0.5620983799999999  0.005861324999999992  0.4868117273542182  1.0000
  Ni  Ni7       1.0  0.4370983799999999  0.755861325  0.4688875132477755  1.0000
  Ni  Ni8       1.0  0.9370983799999998  0.755861325  0.4449885622211362  1.0000
  Ni  Ni9       1.0  0.9370983799999998  0.755861325  0.4688875132477755  1.0000
  Ni  Ni10      1.0  0.4370983799999999  0.755861325  0.4449885622211362  1.0000
  Ni  Ni11      1.0  0.8120983799999997  0.505861325  0.4509632991413327  1.0000
  Ni  Ni12      1.0  0.3120983799999999  0.505861325  0.47486225016797196  1.0000
  V   V5        1.0  0.06790478999999995  0.994138675  0.5323319498719088  1.0000
  V   V6        1.0  0.5612773899999999  0.007333764999999991  0.5113555782037968  1.0000
  V   V7        1.0  0.8118635899999996  0.506301285  0.5217194220949856  1.0000
  V   V8        1.0  0.3120983799999999  0.505861325  0.49876120119461126  1.0000
  Ni  Ni13      1.0  0.18709837999999993  0.255861325  0.504735941460661  1.0000
  Ni  Ni14      1.0  0.68925886  0.26412954499999997  0.5291269135853388  1.0000
  Ni  Ni15      1.0  0.6870983799999999  0.255861325  0.504735941460661  1.0000
  Ni  Ni16      1.0  0.17662479999999994  0.264227795  0.5291287471128983  1.0000
  Ni  Ni17      1.0  0.06102127999999993  0.007694944999999992  0.5108887748014072  1.0000
  Ni  Ni18      1.0  0.5601911199999999  0.009197764999999991  0.5335591285290969  1.0000
  Ni  Ni19      1.0  0.4377750399999999  0.7531285249999999  0.5168319703633869  1.0000
  Ni  Ni20      1.0  0.9370983799999998  0.755861325  0.4927864642744148  1.0000
  Ni  Ni21      1.0  0.9389787200000002  0.7531530849999999  0.5168368620007808  1.0000
  Ni  Ni22      1.0  0.4370983799999999  0.755861325  0.4927864642744148  1.0000
  Ni  Ni23      1.0  0.8120983799999997  0.505861325  0.49876120119461126  1.0000
  Ni  Ni24      1.0  0.31123010999999995  0.5074415749999999  0.5224296664311289  1.0000
