data_image0
_chemical_formula_structural       Al6Sb6CO
_chemical_formula_sum              "Al6 Sb6 C1 O1"
_cell_length_a       6.28250532
_cell_length_b       7.694466160703235
_cell_length_c       36.16767348
_cell_angle_alpha    85.65224688063687
_cell_angle_beta     90.0
_cell_angle_gamma    114.09484258360406

_space_group_name_H-M_alt    "P 1"
_space_group_IT_number       1

loop_
  _space_group_symop_operation_xyz
  'x, y, z'

loop_
  _atom_site_type_symbol
  _atom_site_label
  _atom_site_symmetry_multiplicity
  _atom_site_fract_x
  _atom_site_fract_y
  _atom_site_fract_z
  _atom_site_occupancy
  Al  Al1       1.0  0.23025734500000006  0.3541666599999999  0.4490684093591284  1.0000
  Al  Al2       1.0  0.826975785  0.53452955  0.5297302476001647  1.0000
  Al  Al3       1.0  0.6469240050000001  0.1875  0.37111591313019726  1.0000
  Al  Al4       1.0  0.5219240050000001  0.9375000000000001  0.4880446621507439  1.0000
  Al  Al5       1.0  0.06140932500000006  0.14333141000000002  0.5570334659598595  1.0000
  Al  Al6       1.0  0.938590675  0.7708333300000001  0.41009215656751286  1.0000
  Sb  Sb1       1.0  0.4305627850000001  0.23539783  0.5078490246868527  1.0000
  Sb  Sb2       1.0  0.11643038500000004  0.48326532  0.5816876307704438  1.0000
  Sb  Sb3       1.0  0.8344240050000001  0.06249999999999999  0.4295802876404706  1.0000
  Sb  Sb4       1.0  0.6681778950000001  0.8002311599999999  0.549020376206681  1.0000
  Sb  Sb5       1.0  0.5427573450000002  0.47916665999999997  0.3906040348488551  1.0000
  Sb  Sb6       1.0  0.12609067500000004  0.64583333  0.4685565310777861  1.0000
  C   C1        1.0  0.22875787500000005  0.09339089999999999  0.6027906414103745  1.0000
  O   O1        1.0  0.33010446499999996  0.08051086  0.6288840868698028  1.0000
