data_image0
_chemical_formula_structural       COCu4In4Pd8
_chemical_formula_sum              "C1 O1 Cu4 In4 Pd8"
_cell_length_a       4.5093804
_cell_length_b       4.5093804
_cell_length_c       108.26336151999999
_cell_angle_alpha    90.0
_cell_angle_beta     90.0
_cell_angle_gamma    90.0

_space_group_name_H-M_alt    "P 1"
_space_group_IT_number       1

loop_
  _space_group_symop_operation_xyz
  'x, y, z'

loop_
  _atom_site_type_symbol
  _atom_site_label
  _atom_site_symmetry_multiplicity
  _atom_site_fract_x
  _atom_site_fract_y
  _atom_site_fract_z
  _atom_site_occupancy
  C   C1        1.0  0.49999947499999997  0.9999997199999998  0.5547002018905084  1.0000
  O   O1        1.0  0.4999995749999999  0.9999987899999999  0.5654397747747476  1.0000
  Cu  Cu1       1.0  0.5000002849999999  0.5000002800000001  0.493464979108521  1.0000
  Cu  Cu2       1.0  0.999999715  6.900000000516382e-07  0.5226833510155183  1.0000
  Cu  Cu3       1.0  0.5000002849999999  0.5000002800000001  0.43456022522525245  1.0000
  Cu  Cu4       1.0  2.849999999804579e-07  2.8000000005163817e-07  0.4640126021668867  1.0000
  In  In1       1.0  2.849999999804579e-07  2.8000000005163817e-07  0.493464979108521  1.0000
  In  In2       1.0  0.5000005649999999  0.50000038  0.5225323734128962  1.0000
  In  In3       1.0  2.849999999804579e-07  2.8000000005163817e-07  0.43456022522525245  1.0000
  In  In4       1.0  0.5000002849999999  0.5000002800000001  0.4640126021668867  1.0000
  Pd  Pd1       1.0  0.5000002849999999  2.8000000005163817e-07  0.5081911693464808  1.0000
  Pd  Pd2       1.0  0.49999880499999994  2.8000000005163817e-07  0.5369437683868464  1.0000
  Pd  Pd3       1.0  6.54999999980458e-07  0.5000012100000001  0.5359959154608656  1.0000
  Pd  Pd4       1.0  2.849999999804579e-07  0.5000002800000001  0.5081911693464808  1.0000
  Pd  Pd5       1.0  0.5000002849999999  2.8000000005163817e-07  0.44928641192892693  1.0000
  Pd  Pd6       1.0  0.5000002849999999  2.8000000005163817e-07  0.4787387924048465  1.0000
  Pd  Pd7       1.0  2.849999999804579e-07  0.5000002800000001  0.4787387924048465  1.0000
  Pd  Pd8       1.0  2.849999999804579e-07  0.5000002800000001  0.44928641192892693  1.0000
