data_image0
_chemical_formula_structural       CONi6Sb12
_chemical_formula_sum              "C1 O1 Ni6 Sb12"
_cell_length_a       6.557482173990294
_cell_length_b       7.539881480856139
_cell_length_c       106.72752299999999
_cell_angle_alpha    68.15274447082865
_cell_angle_beta     78.5876537743815
_cell_angle_gamma    71.67700840009586

_space_group_name_H-M_alt    "P 1"
_space_group_IT_number       1

loop_
  _space_group_symop_operation_xyz
  'x, y, z'

loop_
  _atom_site_type_symbol
  _atom_site_label
  _atom_site_symmetry_multiplicity
  _atom_site_fract_x
  _atom_site_fract_y
  _atom_site_fract_z
  _atom_site_occupancy
  C   C1        1.0  0.6761226449999999  0.6474416100000001  0.5342722130382817  1.0000
  O   O1        1.0  0.6815588349999999  0.58279378  0.5460210260248588  1.0000
  Ni  Ni1       1.0  0.6687037949999999  0.7509505900000001  0.4722259701781484  1.0000
  Ni  Ni2       1.0  0.01995800499999992  0.09540802000000007  0.5265345908241007  1.0000
  Ni  Ni3       1.0  0.3393987349999999  0.4229040400000001  0.5003112568936718  1.0000
  Ni  Ni4       1.0  0.6709563449999999  0.7498418000000001  0.5161713491749332  1.0000
  Ni  Ni5       1.0  0.002037124999999927  0.08428392000000005  0.4865644794749341  1.0000
  Ni  Ni6       1.0  0.33537045499999985  0.41761725000000005  0.45788746088136273  1.0000
  Sb  Sb1       1.0  0.6971758749999999  0.91571608  0.48885040015148307  1.0000
  Sb  Sb2       1.0  0.030509214999999933  0.24904942000000008  0.46017338499915356  1.0000
  Sb  Sb3       1.0  0.37273142499999995  0.55961401  0.5184741869969376  1.0000
  Sb  Sb4       1.0  0.997962875  0.90833317  0.5123572142406595  1.0000
  Sb  Sb5       1.0  0.30689837499999983  0.2528517600000001  0.4842785553571431  1.0000
  Sb  Sb6       1.0  0.6402317049999998  0.5861850900000001  0.4556015367635717  1.0000
  Sb  Sb7       1.0  0.9435458149999999  0.44170593  0.5109014794210105  1.0000
  Sb  Sb8       1.0  0.2691779349999999  0.7717119800000001  0.4826559891274707  1.0000
  Sb  Sb9       1.0  0.602511265  0.10504531000000007  0.45397897397514125  1.0000
  Sb  Sb10      1.0  0.4050194449999998  0.08826565000000006  0.5202686329385826  1.0000
  Sb  Sb11      1.0  0.734896315  0.39685586  0.49047296638115545  1.0000
  Sb  Sb12      1.0  0.06822965499999992  0.7301892000000001  0.461795951228826  1.0000
