data_image0
_chemical_formula_structural       COV5Pt5V5Pt5
_chemical_formula_sum              "C1 O1 V10 Pt10"
_cell_length_a       6.060091655967714
_cell_length_b       4.770865232195313
_cell_length_c       102.92141403
_cell_angle_alpha    72.04130764841047
_cell_angle_beta     77.23851128186371
_cell_angle_gamma    75.28294763066931

_space_group_name_H-M_alt    "P 1"
_space_group_IT_number       1

loop_
  _space_group_symop_operation_xyz
  'x, y, z'

loop_
  _atom_site_type_symbol
  _atom_site_label
  _atom_site_symmetry_multiplicity
  _atom_site_fract_x
  _atom_site_fract_y
  _atom_site_fract_z
  _atom_site_occupancy
  C   C1        1.0  0.394087685  0.67864975  0.5470976532260887  1.0000
  O   O1        1.0  0.421588405  0.5844945  0.5590051861934144  1.0000
  V   V1        1.0  0.40570654500000003  0.8048844900000001  0.47298175679631554  1.0000
  V   V2        1.0  0.8057065449999999  0.60488449  0.48364407005999405  1.0000
  V   V3        1.0  0.005706544999999975  0.004884490000000021  0.4623194403339427  1.0000
  V   V4        1.0  0.20570654499999996  0.40488449000000004  0.44099481380658556  1.0000
  V   V5        1.0  0.605706545  0.20488449000000003  0.4516571270702641  1.0000
  Pt  Pt1       1.0  0.40570654500000003  0.8048844900000001  0.4463259688390777  1.0000
  Pt  Pt2       1.0  0.8057065449999999  0.60488449  0.45698828530145047  1.0000
  Pt  Pt3       1.0  0.005706544999999975  0.004884490000000021  0.4889752282911805  1.0000
  Pt  Pt4       1.0  0.20570654499999996  0.40488449000000004  0.46765059856512914  1.0000
  Pt  Pt5       1.0  0.605706545  0.20488449000000003  0.4783129118288076  1.0000
  V   V6        1.0  0.41331011500000003  0.79222943  0.5266006056825391  1.0000
  V   V7        1.0  0.8077453549999998  0.5955466500000001  0.5358812717320248  1.0000
  V   V8        1.0  0.9942934549999999  0.9951155100000001  0.5162315838978276  1.0000
  V   V9        1.0  0.20570654499999996  0.40488449000000004  0.4943063833236726  1.0000
  V   V10       1.0  0.605706545  0.20488449000000003  0.5049686997860455  1.0000
  Pt  Pt6       1.0  0.40570654500000003  0.8048844900000001  0.49963754155485907  1.0000
  Pt  Pt7       1.0  0.8057065449999999  0.60488449  0.5102998548185376  1.0000
  Pt  Pt8       1.0  0.02191780499999994  0.9463290600000002  0.5414464176498756  1.0000
  Pt  Pt9       1.0  0.20757033499999997  0.39719581000000004  0.5210169009403659  1.0000
  Pt  Pt10      1.0  0.611704395  0.18241571  0.531084071540166  1.0000
