data_image0
_chemical_formula_structural       COAl16Au16
_chemical_formula_sum              "C1 O1 Al16 Au16"
_cell_length_a       7.300916898324258
_cell_length_b       14.682399201358683
_cell_length_c       108.32192809
_cell_angle_alpha    106.15965816487284
_cell_angle_beta     113.56688764191476
_cell_angle_gamma    37.619428081612156

_space_group_name_H-M_alt    "P 1"
_space_group_IT_number       1

loop_
  _space_group_symop_operation_xyz
  'x, y, z'

loop_
  _atom_site_type_symbol
  _atom_site_label
  _atom_site_symmetry_multiplicity
  _atom_site_fract_x
  _atom_site_fract_y
  _atom_site_fract_z
  _atom_site_occupancy
  C   C1        1.0  0.32366835000000016  0.5351658300000001  0.5451413363518058  1.0000
  O   O1        1.0  0.40636757000000007  0.5138484600000001  0.5566995505593901  1.0000
  Al  Al1       1.0  0.7388046200000001  0.6647466800000001  0.48198569064680735  1.0000
  Al  Al2       1.0  0.48990794000000026  0.41421420000000003  0.5055271091799234  1.0000
  Al  Al3       1.0  0.9888046200000002  0.9147466799999999  0.4598745581378384  1.0000
  Al  Al4       1.0  0.22053668000000018  0.16933222000000006  0.52593553236111  1.0000
  Al  Al5       1.0  0.70817046  0.8605030100000001  0.5218738022259614  1.0000
  Al  Al6       1.0  0.5187379800000002  0.5852533200000001  0.4572271161802437  1.0000
  Al  Al7       1.0  0.00219381000000018  0.09005390000000006  0.5007922241888904  1.0000
  Al  Al8       1.0  0.26873798000000015  0.3352533200000001  0.47933824868921276  1.0000
  Al  Al9       1.0  0.5813424700000003  0.008232800000000057  0.4959123573864413  1.0000
  Al  Al10      1.0  0.33803268999999997  0.7530251100000002  0.5189754855900293  1.0000
  Al  Al11      1.0  0.8313424700000005  0.25823280000000004  0.47380122487747234  1.0000
  Al  Al12      1.0  0.08134247000000001  0.5082328000000002  0.4516900923685034  1.0000
  Al  Al13      1.0  0.9700016300000003  0.4773794800000001  0.5113981738304844  1.0000
  Al  Al14      1.0  0.6762001300000002  0.24176720000000004  0.4433004494406098  1.0000
  Al  Al15      1.0  0.17620013000000034  0.7417672000000001  0.4875227144585478  1.0000
  Al  Al16      1.0  0.4262001300000002  0.9917671999999998  0.4654115819495788  1.0000
  Au  Au1       1.0  0.53395862  0.7563564700000001  0.5028446113484036  1.0000
  Au  Au2       1.0  0.23021975000000014  0.5586107300000002  0.5253629601625638  1.0000
  Au  Au3       1.0  0.7571037800000003  0.025491370000000055  0.48036723004055615  1.0000
  Au  Au4       1.0  0.00710378000000025  0.27549137000000007  0.4582560975315871  1.0000
  Au  Au5       1.0  0.9978061900000001  0.7242419700000001  0.5027160872951367  1.0000
  Au  Au6       1.0  0.76886379  0.4655978700000002  0.5247691082100908  1.0000
  Au  Au7       1.0  0.2504388200000004  0.97450863  0.480956709295464  1.0000
  Au  Au8       1.0  0.5004388200000002  0.22450863000000001  0.458845576786495  1.0000
  Au  Au9       1.0  0.20032034000000007  0.9917635500000002  0.524538964929594  1.0000
  Au  Au10      1.0  0.9900078900000001  0.7330539900000002  0.4597681346037369  1.0000
  Au  Au11      1.0  0.4738495900000002  0.23897685000000005  0.5038906872585124  1.0000
  Au  Au12      1.0  0.7400078900000002  0.48305399000000004  0.4818792671127058  1.0000
  Au  Au13      1.0  0.26753471000000006  0.5169460100000001  0.47944467222331427  1.0000
  Au  Au14      1.0  0.011884890000000217  0.26392179000000004  0.5005260556824191  1.0000
  Au  Au15      1.0  0.5175347100000004  0.7669460100000001  0.45733353971434526  1.0000
  Au  Au16      1.0  0.7726764900000002  0.010066440000000058  0.5237105545456847  1.0000
