data_image0
_chemical_formula_structural       COCu4Sn4Cu4Sn4
_chemical_formula_sum              "C1 O1 Cu8 Sn8"
_cell_length_a       7.32390762
_cell_length_b       6.672399256299901
_cell_length_c       103.82768027
_cell_angle_alpha    108.47325992561521
_cell_angle_beta     90.0
_cell_angle_gamma    56.71382376921673

_space_group_name_H-M_alt    "P 1"
_space_group_IT_number       1

loop_
  _space_group_symop_operation_xyz
  'x, y, z'

loop_
  _atom_site_type_symbol
  _atom_site_label
  _atom_site_symmetry_multiplicity
  _atom_site_fract_x
  _atom_site_fract_y
  _atom_site_fract_z
  _atom_site_occupancy
  C   C1        1.0  0.8410293449999999  0.05002984999999998  0.5411108140964529  1.0000
  O   O1        1.0  0.7409524249999999  0.058242949999999974  0.5501647866528211  1.0000
  Cu  Cu1       1.0  0.02243017499999989  0.019027919999999972  0.4854702436195476  1.0000
  Cu  Cu2       1.0  0.5224301749999999  0.019027919999999972  0.4651073691781942  1.0000
  Cu  Cu3       1.0  0.7724301749999998  0.51902792  0.4549259319575174  1.0000
  Cu  Cu4       1.0  0.27243017499999994  0.51902792  0.4752888063988709  1.0000
  Sn  Sn1       1.0  0.06409684499999989  0.26902792  0.4701980877885325  1.0000
  Sn  Sn2       1.0  0.5640968449999998  0.26902792  0.4498352133471791  1.0000
  Sn  Sn3       1.0  0.4807635049999998  0.76902792  0.4803795250092093  1.0000
  Sn  Sn4       1.0  0.9807635049999998  0.76902792  0.4600166505678558  1.0000
  Cu  Cu5       1.0  0.019236494999999933  0.98701987  0.5255852268172305  1.0000
  Cu  Cu6       1.0  0.511331365  0.012980129999999972  0.5058390281815789  1.0000
  Cu  Cu7       1.0  0.7763379549999998  0.5164200900000001  0.4958500803984814  1.0000
  Cu  Cu8       1.0  0.25473074499999987  0.49609067999999995  0.5138772158512547  1.0000
  Sn  Sn5       1.0  0.04649146499999986  0.26203325  0.5124238702605066  1.0000
  Sn  Sn6       1.0  0.5640968449999998  0.26902792  0.49056096222988593  1.0000
  Sn  Sn7       1.0  0.46342255499999985  0.74072659  0.519193893948634  1.0000
  Sn  Sn8       1.0  0.9658649749999998  0.7804706200000001  0.5000056022340164  1.0000
