data_image0
_chemical_formula_structural       V2Rh2V2Rh2V2Rh2V2Rh2V2Rh2V2Rh2CO
_chemical_formula_sum              "V12 Rh12 C1 O1"
_cell_length_a       5.4881435
_cell_length_b       7.829173459566454
_cell_length_c       100.18478921
_cell_angle_alpha    110.51748197416927
_cell_angle_beta     90.0
_cell_angle_gamma    90.0

_space_group_name_H-M_alt    "P 1"
_space_group_IT_number       1

loop_
  _space_group_symop_operation_xyz
  'x, y, z'

loop_
  _atom_site_type_symbol
  _atom_site_label
  _atom_site_symmetry_multiplicity
  _atom_site_fract_x
  _atom_site_fract_y
  _atom_site_fract_z
  _atom_site_occupancy
  V   V1        1.0  0.376045585  0.253210875  0.4696326597575669  1.0000
  V   V2        1.0  0.376045585  0.7532108750000002  0.45593760663418864  1.0000
  Rh  Rh1       1.0  0.126045585  0.0032108749999999863  0.4764801848128004  1.0000
  Rh  Rh2       1.0  0.126045585  0.5032108750000001  0.4627851316894221  1.0000
  V   V3        1.0  0.376045585  0.253210875  0.4970227629914121  1.0000
  V   V4        1.0  0.376045585  0.7532108750000002  0.4833277098680338  1.0000
  Rh  Rh3       1.0  0.125753525  0.9967891250000002  0.5034768198971216  1.0000
  Rh  Rh4       1.0  0.126045585  0.5032108750000001  0.49017523492326726  1.0000
  V   V5        1.0  0.37604665499999995  0.24204839500000003  0.522063976405556  1.0000
  V   V6        1.0  0.376046715  0.758573135  0.511624500576869  1.0000
  Rh  Rh5       1.0  0.12395237499999999  0.017279464999999987  0.530211045464292  1.0000
  Rh  Rh6       1.0  0.125169675  0.501533705  0.5178008423755875  1.0000
  V   V7        1.0  0.876045585  0.253210875  0.4696326597575669  1.0000
  V   V8        1.0  0.876045585  0.7532108750000002  0.45593760663418864  1.0000
  Rh  Rh7       1.0  0.626045585  0.0032108749999999863  0.4764801848128004  1.0000
  Rh  Rh8       1.0  0.626045585  0.5032108750000001  0.4627851316894221  1.0000
  V   V9        1.0  0.876045585  0.253210875  0.4970227629914121  1.0000
  V   V10       1.0  0.876045585  0.7532108750000002  0.4833277098680338  1.0000
  Rh  Rh9       1.0  0.6263395850000001  0.9967882350000001  0.5034765698254765  1.0000
  Rh  Rh10      1.0  0.626045585  0.5032108750000001  0.49017523492326726  1.0000
  V   V11       1.0  0.8760474149999999  0.242562275  0.52219708080476  1.0000
  V   V12       1.0  0.876047625  0.757193505  0.5104566147751053  1.0000
  Rh  Rh11      1.0  0.628143875  0.01728428499999999  0.5302112322647979  1.0000
  Rh  Rh12      1.0  0.626924845  0.501533095  0.5178008393626763  1.0000
  C   C1        1.0  0.376047835  0.7017031450000002  0.5311209507286422  1.0000
  O   O1        1.0  0.37604822499999996  0.7576282649999999  0.5440623933658114  1.0000
