data_image0
_chemical_formula_structural       COCuAu3CuAu3CuAu3CuAu3CuAu3CuAu3CuAu3CuAu3
_chemical_formula_sum              "C1 O1 Cu8 Au24"
_cell_length_a       8.17203382
_cell_length_b       8.17203382
_cell_length_c       98.60211837
_cell_angle_alpha    90.0
_cell_angle_beta     90.0
_cell_angle_gamma    90.0

_space_group_name_H-M_alt    "P 1"
_space_group_IT_number       1

loop_
  _space_group_symop_operation_xyz
  'x, y, z'

loop_
  _atom_site_type_symbol
  _atom_site_label
  _atom_site_symmetry_multiplicity
  _atom_site_fract_x
  _atom_site_fract_y
  _atom_site_fract_z
  _atom_site_occupancy
  C   C1        1.0  0.06016638000000003  0.49950381  0.5336932851596033  1.0000
  O   O1        1.0  0.058727490000000035  0.49798837  0.545605933358205  1.0000
  Cu  Cu1       1.0  0.18269730000000006  0.12899991  0.49602880591878085  1.0000
  Au  Au1       1.0  0.19458716000000004  0.36775253999999996  0.5183180739240623  1.0000
  Au  Au2       1.0  0.43813763  0.12242219999999998  0.5163576061763661  1.0000
  Au  Au3       1.0  0.42462478  0.37428798999999996  0.49608289640994496  1.0000
  Cu  Cu2       1.0  0.18477986000000005  0.12407323999999999  0.45439406664179505  1.0000
  Au  Au4       1.0  0.18477986000000005  0.37407324  0.475113787961306  1.0000
  Au  Au5       1.0  0.43477986  0.12407323999999999  0.475113787961306  1.0000
  Au  Au6       1.0  0.43477986  0.37407324  0.45439406664179505  1.0000
  Cu  Cu3       1.0  0.18637277000000002  0.6254732599999999  0.49552551517558113  1.0000
  Au  Au7       1.0  0.18706477000000002  0.8775778  0.5161248839194286  1.0000
  Au  Au8       1.0  0.43812789  0.62645904  0.5161219831583859  1.0000
  Au  Au9       1.0  0.4342107  0.87361283  0.4957195963946682  1.0000
  Cu  Cu4       1.0  0.18477986000000005  0.62407324  0.45439406664179505  1.0000
  Au  Au10      1.0  0.18477986000000005  0.87407324  0.475113787961306  1.0000
  Au  Au11      1.0  0.43477986  0.62407324  0.475113787961306  1.0000
  Au  Au12      1.0  0.43477986  0.87407324  0.45439406664179505  1.0000
  Cu  Cu5       1.0  0.68635046  0.12537704  0.4956852629869663  1.0000
  Au  Au13      1.0  0.6833017499999999  0.37397209  0.5157346619409141  1.0000
  Au  Au14      1.0  0.9346846900000001  0.12262963999999998  0.51574252300334  1.0000
  Au  Au15      1.0  0.9412725099999999  0.3805993199999999  0.4961030625007141  1.0000
  Cu  Cu6       1.0  0.68477986  0.12407323999999999  0.45439406664179505  1.0000
  Au  Au16      1.0  0.68477986  0.37407324  0.475113787961306  1.0000
  Au  Au17      1.0  0.93477986  0.12407323999999999  0.475113787961306  1.0000
  Au  Au18      1.0  0.93477986  0.37407324  0.45439406664179505  1.0000
  Cu  Cu7       1.0  0.68936281  0.6219535399999999  0.4960225170688402  1.0000
  Au  Au19      1.0  0.6829836699999999  0.87752094  0.5163530026685912  1.0000
  Au  Au20      1.0  0.92843432  0.63400485  0.518323483843407  1.0000
  Au  Au21      1.0  0.93501601  0.86383111  0.49608392037859306  1.0000
  Cu  Cu8       1.0  0.68477986  0.62407324  0.45439406664179505  1.0000
  Au  Au22      1.0  0.68477986  0.87407324  0.475113787961306  1.0000
  Au  Au23      1.0  0.93477986  0.62407324  0.475113787961306  1.0000
  Au  Au24      1.0  0.93477986  0.87407324  0.45439406664179505  1.0000
