data_image0
_chemical_formula_structural       COSi3Os3Si3Os3Si3Os3Si3Os3
_chemical_formula_sum              "C1 O1 Si12 Os12"
_cell_length_a       6.643197273474533
_cell_length_b       5.94185628
_cell_length_c       103.61221495000001
_cell_angle_alpha    90.0
_cell_angle_beta     108.43494879564822
_cell_angle_gamma    90.0

_space_group_name_H-M_alt    "P 1"
_space_group_IT_number       1

loop_
  _space_group_symop_operation_xyz
  'x, y, z'

loop_
  _atom_site_type_symbol
  _atom_site_label
  _atom_site_symmetry_multiplicity
  _atom_site_fract_x
  _atom_site_fract_y
  _atom_site_fract_z
  _atom_site_occupancy
  C   C1        1.0  0.839870695  0.12333770999999999  0.5378524880401617  1.0000
  O   O1        1.0  0.8542368749999999  0.12333768999999999  0.5494147260202517  1.0000
  Si  Si1       1.0  0.14576312500000002  0.37001317  0.5247519847776326  1.0000
  Si  Si2       1.0  0.831636935  0.37435558999999996  0.4979129924085197  1.0000
  Si  Si3       1.0  0.499610935  0.38316427999999997  0.5117174912370397  1.0000
  Os  Os1       1.0  0.16143695500000002  0.12333770999999999  0.5049366208160939  1.0000
  Os  Os2       1.0  0.8003639650000001  0.12333772  0.5188067271056142  1.0000
  Os  Os3       1.0  0.499650845  0.12333774  0.49113577153235377  1.0000
  Si  Si4       1.0  0.166317515  0.37333774  0.484377353110893  1.0000
  Si  Si5       1.0  0.8329841849999999  0.37333774  0.4573436891571694  1.0000
  Si  Si6       1.0  0.499650845  0.37333774  0.4708605227560511  1.0000
  Os  Os4       1.0  0.166317515  0.12333774  0.4641021043345903  1.0000
  Os  Os5       1.0  0.8329841849999999  0.12333774  0.4776189379334721  1.0000
  Os  Os6       1.0  0.499650845  0.12333774  0.45058527397974835  1.0000
  Si  Si7       1.0  0.14576318500000002  0.87666231  0.5247520009978317  1.0000
  Si  Si8       1.0  0.8316369549999998  0.8723198700000001  0.4979129924085198  1.0000
  Si  Si9       1.0  0.49961092500000004  0.86351118  0.5117174912370397  1.0000
  Os  Os7       1.0  0.181548545  0.62333774  0.5049018641736316  1.0000
  Os  Os8       1.0  0.833956915  0.62333774  0.5167801170472086  1.0000
  Os  Os9       1.0  0.499650845  0.62333774  0.49113577153235377  1.0000
  Si  Si10      1.0  0.166317515  0.87333774  0.484377353110893  1.0000
  Si  Si11      1.0  0.8329841849999999  0.87333774  0.4573436891571694  1.0000
  Si  Si12      1.0  0.499650845  0.87333774  0.4708605227560511  1.0000
  Os  Os10      1.0  0.166317515  0.62333774  0.4641021043345903  1.0000
  Os  Os11      1.0  0.8329841849999999  0.62333774  0.4776189379334721  1.0000
  Os  Os12      1.0  0.499650845  0.62333774  0.45058527397974835  1.0000
