data_image0
_chemical_formula_structural       COCu4Sn4Cu4Sn4Cu4Sn4Cu4Sn4Cu4Sn4Cu4Sn4
_chemical_formula_sum              "C1 O1 Cu24 Sn24"
_cell_length_a       11.155448194986278
_cell_length_b       8.456920073890426
_cell_length_c       108.05614030000001
_cell_angle_alpha    59.99999997610206
_cell_angle_beta     67.72522009740526
_cell_angle_gamma    79.07496792164083

_space_group_name_H-M_alt    "P 1"
_space_group_IT_number       1

loop_
  _space_group_symop_operation_xyz
  'x, y, z'

loop_
  _atom_site_type_symbol
  _atom_site_label
  _atom_site_symmetry_multiplicity
  _atom_site_fract_x
  _atom_site_fract_y
  _atom_site_fract_z
  _atom_site_occupancy
  C   C1        1.0  0.50403809  0.95242456  0.5538673548780134  1.0000
  O   O1        1.0  0.4787804500000001  0.89899928  0.56681759368028  1.0000
  Cu  Cu1       1.0  0.06006396000000002  0.04757543999999999  0.5130770407842324  1.0000
  Cu  Cu2       1.0  0.55370719  0.04922685999999999  0.5330070060027168  1.0000
  Cu  Cu3       1.0  0.30001875  0.06168584999999999  0.5404321277263812  1.0000
  Cu  Cu4       1.0  0.8099155800000002  0.04844804999999999  0.5228010700438976  1.0000
  Sn  Sn1       1.0  0.17707933000000003  0.38034310000000005  0.534441871647662  1.0000
  Sn  Sn2       1.0  0.6836045500000002  0.37394076  0.5153814283747812  1.0000
  Sn  Sn3       1.0  0.4350639600000001  0.21424210999999999  0.5114465378963083  1.0000
  Sn  Sn4       1.0  0.9389935900000002  0.21907076000000003  0.5302959955472131  1.0000
  Cu  Cu5       1.0  0.06006396000000002  0.04757543999999999  0.4739449749959384  1.0000
  Cu  Cu6       1.0  0.56006396  0.04757543999999999  0.49351100612914256  1.0000
  Cu  Cu7       1.0  0.31006396  0.04757543999999999  0.5032940234566875  1.0000
  Cu  Cu8       1.0  0.81006396  0.04757543999999999  0.4837279888015975  1.0000
  Sn  Sn5       1.0  0.18506396  0.38090876999999995  0.49514150901706666  1.0000
  Sn  Sn6       1.0  0.68506396  0.38090876999999995  0.47557547788386256  1.0000
  Sn  Sn7       1.0  0.4350639600000001  0.21424210999999999  0.47231447210801425  1.0000
  Sn  Sn8       1.0  0.93506396  0.21424210999999999  0.49188050324121824  1.0000
  Cu  Cu9       1.0  0.06006396000000002  0.04757543999999999  0.4348129056857584  1.0000
  Cu  Cu10      1.0  0.56006396  0.04757543999999999  0.4543789403408484  1.0000
  Cu  Cu11      1.0  0.31006396  0.04757543999999999  0.4641619576683934  1.0000
  Cu  Cu12      1.0  0.81006396  0.04757543999999999  0.4445959230133034  1.0000
  Sn  Sn9       1.0  0.18506396  0.38090876999999995  0.45600944322877257  1.0000
  Sn  Sn10      1.0  0.68506396  0.38090876999999995  0.4364434085736826  1.0000
  Sn  Sn11      1.0  0.4350639600000001  0.21424210999999999  0.43318240631972016  1.0000
  Sn  Sn12      1.0  0.93506396  0.21424210999999999  0.45274843745292426  1.0000
  Cu  Cu13      1.0  0.06006396000000002  0.5475754399999999  0.5130770407842324  1.0000
  Cu  Cu14      1.0  0.5607029800000001  0.55929273  0.5309092122423568  1.0000
  Cu  Cu15      1.0  0.30354590000000004  0.56123406  0.5402541809165599  1.0000
  Cu  Cu16      1.0  0.8084561100000001  0.5505390099999999  0.5226628677170918  1.0000
  Sn  Sn13      1.0  0.17790260000000005  0.8803401699999999  0.534451194079788  1.0000
  Sn  Sn14      1.0  0.6826735400000001  0.88132482  0.5155636507541531  1.0000
  Sn  Sn15      1.0  0.4350639600000001  0.7142421099999999  0.5114465378963083  1.0000
  Sn  Sn16      1.0  0.9399360400000001  0.7169664299999999  0.5304058361264139  1.0000
  Cu  Cu17      1.0  0.06006396000000002  0.5475754399999999  0.47394497499593846  1.0000
  Cu  Cu18      1.0  0.56006396  0.5475754399999999  0.49351100612914245  1.0000
  Cu  Cu19      1.0  0.31006396  0.5475754399999999  0.5032940234566875  1.0000
  Cu  Cu20      1.0  0.81006396  0.5475754399999999  0.48372798880159745  1.0000
  Sn  Sn17      1.0  0.18506396  0.8809087699999999  0.4951415090170666  1.0000
  Sn  Sn18      1.0  0.68506396  0.8809087699999999  0.47557547788386256  1.0000
  Sn  Sn19      1.0  0.4350639600000001  0.7142421099999999  0.47231447210801425  1.0000
  Sn  Sn20      1.0  0.93506396  0.7142421099999999  0.49188050324121835  1.0000
  Cu  Cu21      1.0  0.06006396000000002  0.5475754399999999  0.4348129056857584  1.0000
  Cu  Cu22      1.0  0.56006396  0.5475754399999999  0.4543789403408484  1.0000
  Cu  Cu23      1.0  0.31006396  0.5475754399999999  0.4641619576683934  1.0000
  Cu  Cu24      1.0  0.81006396  0.5475754399999999  0.44459592301330336  1.0000
  Sn  Sn21      1.0  0.18506396  0.8809087699999999  0.45600944322877257  1.0000
  Sn  Sn22      1.0  0.68506396  0.8809087699999999  0.4364434085736825  1.0000
  Sn  Sn23      1.0  0.4350639600000001  0.7142421099999999  0.4331824063197202  1.0000
  Sn  Sn24      1.0  0.93506396  0.7142421099999999  0.45274843745292426  1.0000
