data_image0
_chemical_formula_structural       COAl8Ni16Al8Ni16
_chemical_formula_sum              "C1 O1 Al16 Ni32"
_cell_length_a       10.803671476248645
_cell_length_b       7.03427562
_cell_length_c       102.48992736
_cell_angle_alpha    90.0
_cell_angle_beta     79.16644718174028
_cell_angle_gamma    71.00108574176528

_space_group_name_H-M_alt    "P 1"
_space_group_IT_number       1

loop_
  _space_group_symop_operation_xyz
  'x, y, z'

loop_
  _atom_site_type_symbol
  _atom_site_label
  _atom_site_symmetry_multiplicity
  _atom_site_fract_x
  _atom_site_fract_y
  _atom_site_fract_z
  _atom_site_occupancy
  C   C1        1.0  0.7426875900000001  0.24938165000000007  0.5377242275345074  1.0000
  O   O1        1.0  0.72755795  0.25025134  0.5496531558043517  1.0000
  Al  Al1       1.0  0.023536550000000014  0.8148957700000001  0.4997488773148764  1.0000
  Al  Al2       1.0  0.5164744499999999  0.05642107000000006  0.511030105157046  1.0000
  Al  Al3       1.0  0.5276819100000001  0.56288218  0.48997260083936944  1.0000
  Al  Al4       1.0  0.022376560000000014  0.30779625000000005  0.5199677104183399  1.0000
  Al  Al5       1.0  0.7172024699999999  0.3112667000000001  0.5054713691443989  1.0000
  Al  Al6       1.0  0.22312570999999998  0.55897626  0.5165012428870263  1.0000
  Al  Al7       1.0  0.21825707  0.050927940000000047  0.49610319675153547  1.0000
  Al  Al8       1.0  0.7327337300000001  0.80223712  0.5247018280951101  1.0000
  Ni  Ni1       1.0  0.7735545500000001  0.9490720600000001  0.5042733303581538  1.0000
  Ni  Ni2       1.0  0.27011525  0.19192779000000004  0.514584196331511  1.0000
  Ni  Ni3       1.0  0.27964001  0.68690313  0.49488702521905015  1.0000
  Ni  Ni4       1.0  0.7752182700000001  0.43675416  0.5245444377597818  1.0000
  Ni  Ni5       1.0  0.96284143  0.17925923000000005  0.500789053426774  1.0000
  Ni  Ni6       1.0  0.46733819  0.42523368000000006  0.511387735535907  1.0000
  Ni  Ni7       1.0  0.46629898  0.9269069800000002  0.4911887723718548  1.0000
  Ni  Ni8       1.0  0.97762344  0.6749212200000001  0.5205065382871208  1.0000
  Ni  Ni9       1.0  0.8738852900000001  0.05909509  0.5232516585444922  1.0000
  Ni  Ni10      1.0  0.37296949  0.30690506000000006  0.4930378972104222  1.0000
  Ni  Ni11      1.0  0.37039521999999997  0.80686652  0.5124145244821801  1.0000
  Ni  Ni12      1.0  0.8722096100000001  0.5600513100000001  0.503325976788679  1.0000
  Ni  Ni13      1.0  0.63400888  0.19051140000000003  0.525618983667962  1.0000
  Ni  Ni14      1.0  0.12296949000000003  0.4319050600000001  0.49799111679088726  1.0000
  Ni  Ni15      1.0  0.12113217000000001  0.93229821  0.5165653954020021  1.0000
  Ni  Ni16      1.0  0.62110564  0.68232852  0.5080796442287469  1.0000
  Al  Al9       1.0  0.02768191000000001  0.81288218  0.4602532833565787  1.0000
  Al  Al10      1.0  0.5276819100000001  0.06288218000000005  0.4701597225175089  1.0000
  Al  Al11      1.0  0.5276819100000001  0.56288218  0.4503468441956484  1.0000
  Al  Al12      1.0  0.02768191000000001  0.31288218000000007  0.48006616167843924  1.0000
  Al  Al13      1.0  0.71825707  0.30092794  0.4663838792687447  1.0000
  Al  Al14      1.0  0.21825707  0.55092794  0.476290318429675  1.0000
  Al  Al15      1.0  0.21825707  0.050927940000000047  0.4564774401078145  1.0000
  Al  Al16      1.0  0.71825707  0.8009279399999999  0.4861967575906052  1.0000
  Ni  Ni17      1.0  0.77964001  0.93690313  0.4651677077362594  1.0000
  Ni  Ni18      1.0  0.27964001  0.18690313000000008  0.4750741468971896  1.0000
  Ni  Ni19      1.0  0.27964001  0.68690313  0.45526126857532917  1.0000
  Ni  Ni20      1.0  0.77964001  0.43690313  0.48498058605811994  1.0000
  Ni  Ni21      1.0  0.96629898  0.17690698000000007  0.4614694548890641  1.0000
  Ni  Ni22      1.0  0.46629898  0.42690697999999994  0.47137589404999436  1.0000
  Ni  Ni23      1.0  0.46629898  0.9269069800000002  0.45156301572813384  1.0000
  Ni  Ni24      1.0  0.96629898  0.6769069800000002  0.4812823332109246  1.0000
  Ni  Ni25      1.0  0.8729694900000001  0.056905059999999896  0.4831314580494919  1.0000
  Ni  Ni26      1.0  0.37296949  0.30690506000000006  0.4534121405667012  1.0000
  Ni  Ni27      1.0  0.37296949  0.8069050600000003  0.4732250188885617  1.0000
  Ni  Ni28      1.0  0.8729694900000001  0.5569050599999998  0.4633185797276315  1.0000
  Ni  Ni29      1.0  0.62296949  0.18190506  0.48808467762995705  1.0000
  Ni  Ni30      1.0  0.12296949000000003  0.4319050600000001  0.45836536014716633  1.0000
  Ni  Ni31      1.0  0.12296949000000003  0.9319050600000001  0.47817823846902685  1.0000
  Ni  Ni32      1.0  0.62296949  0.6819050600000001  0.4682717993080966  1.0000
