data_image0
_chemical_formula_structural       COAl4Ru2Al4Ru2Al4Ru2Al4Ru2
_chemical_formula_sum              "C1 O1 Al16 Ru8"
_cell_length_a       6.33967364
_cell_length_b       6.33967364
_cell_length_c       103.98994791999999
_cell_angle_alpha    90.0
_cell_angle_beta     90.0
_cell_angle_gamma    90.0

_space_group_name_H-M_alt    "P 1"
_space_group_IT_number       1

loop_
  _space_group_symop_operation_xyz
  'x, y, z'

loop_
  _atom_site_type_symbol
  _atom_site_label
  _atom_site_symmetry_multiplicity
  _atom_site_fract_x
  _atom_site_fract_y
  _atom_site_fract_z
  _atom_site_occupancy
  C   C1        1.0  0.38602140500000004  0.3777380250000001  0.5359614041552168  1.0000
  O   O1        1.0  0.38602506500000006  0.377731505  0.5474685124695003  1.0000
  Al  Al1       1.0  0.11397420500000001  0.377745135  0.5227045431740436  1.0000
  Al  Al2       1.0  0.38602300500000003  0.12398372500000004  0.5064145313372238  1.0000
  Al  Al3       1.0  0.386025795  0.12774487500000004  0.48032323086726203  1.0000
  Al  Al4       1.0  0.136025795  0.37774487500000004  0.4655969960241602  1.0000
  Ru  Ru1       1.0  0.386025795  0.12774487500000004  0.4525314875304997  1.0000
  Ru  Ru2       1.0  0.136025895  0.37774495500000005  0.4926716684426575  1.0000
  Al  Al5       1.0  0.13064677500000002  0.877746395  0.5225521096703344  1.0000
  Al  Al6       1.0  0.38602331500000003  0.6315111250000001  0.5064148287780171  1.0000
  Al  Al7       1.0  0.386025795  0.6277448750000001  0.48032323086726203  1.0000
  Al  Al8       1.0  0.136025795  0.877744875  0.4655969960241602  1.0000
  Ru  Ru3       1.0  0.386025795  0.6277448750000001  0.4525314875304997  1.0000
  Ru  Ru4       1.0  0.136025895  0.877744955  0.4926716684426575  1.0000
  Al  Al9       1.0  0.658067215  0.37774683500000006  0.522704330716334  1.0000
  Al  Al10      1.0  0.8860234150000001  0.12225360500000004  0.50605083315575  1.0000
  Al  Al11      1.0  0.886025795  0.12774487500000004  0.48032323086726203  1.0000
  Al  Al12      1.0  0.636025795  0.37774487500000004  0.4655969960241602  1.0000
  Ru  Ru5       1.0  0.886025795  0.12774487500000004  0.4525314875304997  1.0000
  Ru  Ru6       1.0  0.636025895  0.37774495500000005  0.4926716684426575  1.0000
  Al  Al13      1.0  0.641402375  0.877744685  0.5225520933274337  1.0000
  Al  Al14      1.0  0.886025125  0.633238585  0.5060505520578573  1.0000
  Al  Al15      1.0  0.886025795  0.6277448750000001  0.48032323086726203  1.0000
  Al  Al16      1.0  0.636025795  0.877744875  0.4655969960241602  1.0000
  Ru  Ru7       1.0  0.886025795  0.6277448750000001  0.4525314875304997  1.0000
  Ru  Ru8       1.0  0.636025895  0.877744955  0.4926716684426575  1.0000
