data_image0
_chemical_formula_structural       COCo8Sb24Sn2
_chemical_formula_sum              "C1 O1 Co8 Sb24 Sn2"
_cell_length_a       8.02035867
_cell_length_b       8.020358669239066
_cell_length_c       109.29157259
_cell_angle_alpha    90.0
_cell_angle_beta     90.0
_cell_angle_gamma    109.4712206364126

_space_group_name_H-M_alt    "P 1"
_space_group_IT_number       1

loop_
  _space_group_symop_operation_xyz
  'x, y, z'

loop_
  _atom_site_type_symbol
  _atom_site_label
  _atom_site_symmetry_multiplicity
  _atom_site_fract_x
  _atom_site_fract_y
  _atom_site_fract_z
  _atom_site_occupancy
  C   C1        1.0  0.7507873350000001  0.7445182450000001  0.5573992632133927  1.0000
  O   O1        1.0  0.749118685  0.743036125  0.5681423715421273  1.0000
  Co  Co1       1.0  0.503032945  0.0030329450000000256  0.45172226508970004  1.0000
  Co  Co2       1.0  0.0030329450000000225  0.5030329450000001  0.5116408425925162  1.0000
  Co  Co3       1.0  0.7585055150000001  0.7448864450000001  0.541258863295025  1.0000
  Co  Co4       1.0  0.253032945  0.25303294500000006  0.4816815556386654  1.0000
  Co  Co5       1.0  0.0030329450000000225  0.5030329450000001  0.45172226508970004  1.0000
  Co  Co6       1.0  0.503032945  0.0030329450000000256  0.5116408425925162  1.0000
  Co  Co7       1.0  0.266244755  0.24972210500000006  0.5391284523226629  1.0000
  Co  Co8       1.0  0.753032945  0.7530329450000001  0.4816815556386654  1.0000
  Sb  Sb1       1.0  0.816270505  0.4970630750000001  0.5303212664578354  1.0000
  Sb  Sb2       1.0  0.328494275  0.996967055  0.47158690531664194  1.0000
  Sb  Sb3       1.0  0.24864542500000006  0.7574204650000002  0.4414264860825955  1.0000
  Sb  Sb4       1.0  0.748645425  0.25742046500000004  0.5013450635854116  1.0000
  Sb  Sb5       1.0  0.4144090350000001  0.25471131500000005  0.4421534074649772  1.0000
  Sb  Sb6       1.0  0.914409035  0.7547113150000002  0.5020719813726788  1.0000
  Sb  Sb7       1.0  0.08148573499999999  0.9342380950000001  0.5408364193565058  1.0000
  Sb  Sb8       1.0  0.588947695  0.4171181950000001  0.4822073447408515  1.0000
  Sb  Sb9       1.0  0.08383865500000001  0.24853021500000003  0.5210971947016267  1.0000
  Sb  Sb10      1.0  0.591656855  0.7513545750000001  0.46129112630953745  1.0000
  Sb  Sb11      1.0  0.757420465  0.24864542500000006  0.4620180476919192  1.0000
  Sb  Sb12      1.0  0.255453835  0.7496229950000001  0.52242031550521  1.0000
  Sb  Sb13      1.0  0.7513545749999999  0.5916568550000001  0.4421534074649772  1.0000
  Sb  Sb14      1.0  0.25135457499999997  0.09165685500000004  0.5020719813726788  1.0000
  Sb  Sb15      1.0  0.755011535  0.9180314350000001  0.5217498805630819  1.0000
  Sb  Sb16      1.0  0.25471131499999994  0.4144090350000001  0.46129112630953745  1.0000
  Sb  Sb17      1.0  0.426280875  0.5734519750000002  0.5406938335172172  1.0000
  Sb  Sb18      1.0  0.917118195  0.08894769500000003  0.48115576653647935  1.0000
  Sb  Sb19      1.0  0.996967055  0.32849427500000006  0.43185762845787273  1.0000
  Sb  Sb20      1.0  0.49696705499999994  0.8284942750000001  0.4917762023655743  1.0000
  Sb  Sb21      1.0  0.009098835000000013  0.6775716150000001  0.47158690531664194  1.0000
  Sb  Sb22      1.0  0.515742665  0.17913266500000002  0.5310871732627039  1.0000
  Sb  Sb23      1.0  0.677571615  0.009098835000000026  0.43185762845787273  1.0000
  Sb  Sb24      1.0  0.17757161500000002  0.5090988350000001  0.4917762023655743  1.0000
  Sn  Sn1       1.0  0.503032945  0.5030329450000001  0.5116408425925162  1.0000
  Sn  Sn2       1.0  0.003032945000000002  0.0030329450000000256  0.45172226508970004  1.0000
