data_image0
_chemical_formula_structural       COPt6W2Pt6W2Pt6W2Pt6W2
_chemical_formula_sum              "C1 O1 Pt24 W8"
_cell_length_a       7.86914284
_cell_length_b       8.08376362
_cell_length_c       101.47657136000001
_cell_angle_alpha    90.0
_cell_angle_beta     90.0
_cell_angle_gamma    90.0

_space_group_name_H-M_alt    "P 1"
_space_group_IT_number       1

loop_
  _space_group_symop_operation_xyz
  'x, y, z'

loop_
  _atom_site_type_symbol
  _atom_site_label
  _atom_site_symmetry_multiplicity
  _atom_site_fract_x
  _atom_site_fract_y
  _atom_site_fract_z
  _atom_site_occupancy
  C   C1        1.0  0.623655225  0.999995845  0.5329753536458242  1.0000
  O   O1        1.0  0.623655075  0.9999903649999998  0.5445175180849616  1.0000
  Pt  Pt1       1.0  0.12365591499999998  0.25000477499999996  0.4554824819150384  1.0000
  Pt  Pt2       1.0  0.373655915  0.25000477499999996  0.4748690820300622  1.0000
  Pt  Pt3       1.0  0.373655915  4.7749999999564126e-06  0.4554824819150384  1.0000
  Pt  Pt4       1.0  0.373655915  0.750004775  0.4748690820300622  1.0000
  Pt  Pt5       1.0  0.12365591499999998  0.750004775  0.4554824819150384  1.0000
  Pt  Pt6       1.0  0.12365591499999998  0.500004775  0.4748690820300622  1.0000
  W   W1        1.0  0.12365591499999998  4.7749999999564126e-06  0.4748690820300622  1.0000
  W   W2        1.0  0.373655915  0.500004775  0.4554824819150384  1.0000
  Pt  Pt7       1.0  0.12365594499999998  0.250995655  0.49436298465033074  1.0000
  Pt  Pt8       1.0  0.37096898500000003  0.22958486499999994  0.5137438959614168  1.0000
  Pt  Pt9       1.0  0.373827975  4.4049999999564136e-06  0.4935794123940976  1.0000
  Pt  Pt10      1.0  0.37096920499999997  0.770422615  0.5137438432298644  1.0000
  Pt  Pt11      1.0  0.12365588499999997  0.7490129949999998  0.4943629908540428  1.0000
  Pt  Pt12      1.0  0.12365682499999998  0.5000042049999999  0.5140274862497554  1.0000
  W   W3        1.0  0.12365657499999998  4.2549999999564125e-06  0.5121085230239699  1.0000
  W   W4        1.0  0.373006155  0.5000041649999999  0.49708197547852684  1.0000
  Pt  Pt13      1.0  0.623655915  0.25000477499999996  0.4554824819150384  1.0000
  Pt  Pt14      1.0  0.873655915  0.25000477499999996  0.4748690820300622  1.0000
  Pt  Pt15      1.0  0.873655915  4.7749999999564126e-06  0.4554824819150384  1.0000
  Pt  Pt16      1.0  0.873655915  0.750004775  0.4748690820300622  1.0000
  Pt  Pt17      1.0  0.623655915  0.750004775  0.4554824819150384  1.0000
  Pt  Pt18      1.0  0.623655915  0.500004775  0.4748690820300622  1.0000
  W   W5        1.0  0.623655915  4.7749999999564126e-06  0.4748690820300622  1.0000
  W   W6        1.0  0.873655915  0.500004775  0.4554824819150384  1.0000
  Pt  Pt19      1.0  0.6236559749999999  0.2523271049999999  0.49448401907216877  1.0000
  Pt  Pt20      1.0  0.876344115  0.22958489499999996  0.513743930081833  1.0000
  Pt  Pt21      1.0  0.8734808249999999  4.614999999956412e-06  0.4935793410514092  1.0000
  Pt  Pt22      1.0  0.8763436349999999  0.7704239949999998  0.5137438835539926  1.0000
  Pt  Pt23      1.0  0.6236559850000001  0.7476818049999999  0.4944839973591767  1.0000
  Pt  Pt24      1.0  0.6236554849999999  0.500004155  0.5138089201691306  1.0000
  W   W7        1.0  0.623655585  4.1549999999564126e-06  0.5130932847634125  1.0000
  W   W8        1.0  0.874306165  0.5000042849999999  0.4970820747379195  1.0000
