data_image0
_chemical_formula_structural       COAl12Cu8Al12Cu8
_chemical_formula_sum              "C1 O1 Al24 Cu16"
_cell_length_a       7.24043919
_cell_length_b       6.580564342623791
_cell_length_c       109.48338607
_cell_angle_alpha    78.87629159472374
_cell_angle_beta     90.0
_cell_angle_gamma    90.0

_space_group_name_H-M_alt    "P 1"
_space_group_IT_number       1

loop_
  _space_group_symop_operation_xyz
  'x, y, z'

loop_
  _atom_site_type_symbol
  _atom_site_label
  _atom_site_symmetry_multiplicity
  _atom_site_fract_x
  _atom_site_fract_y
  _atom_site_fract_z
  _atom_site_occupancy
  C   C1        1.0  0.43973379  0.9685872249999999  0.561067902624277  1.0000
  O   O1        1.0  0.44668149000000007  0.874176485  0.5711958929631454  1.0000
  Al  Al1       1.0  0.042717410000000004  0.531412775  0.44861285879255347  1.0000
  Al  Al2       1.0  0.042717410000000004  0.03141277500000002  0.4786656599876031  1.0000
  Al  Al3       1.0  0.5427174100000001  0.281412775  0.46363925939007833  1.0000
  Al  Al4       1.0  0.5427174100000001  0.781412775  0.4335864618013645  1.0000
  Al  Al5       1.0  0.37605074  0.355396475  0.43803329389694223  1.0000
  Al  Al6       1.0  0.37605074  0.855396475  0.46808609509199184  1.0000
  Al  Al7       1.0  0.87605074  0.10539647500000002  0.45305969449446704  1.0000
  Al  Al8       1.0  0.87605074  0.6053964749999999  0.48311249208318086  1.0000
  Al  Al9       1.0  0.20938408  0.457429075  0.47421882428568957  1.0000
  Al  Al10      1.0  0.20938408  0.9574290749999999  0.44416602669697575  1.0000
  Al  Al11      1.0  0.7093840800000001  0.207429075  0.42913962609945094  1.0000
  Al  Al12      1.0  0.7093840800000001  0.707429075  0.4591924236881647  1.0000
  Cu  Cu1       1.0  0.37605074  0.11097861500000002  0.48344801114577723  1.0000
  Cu  Cu2       1.0  0.37605074  0.610978615  0.4533952135570634  1.0000
  Cu  Cu3       1.0  0.87605074  0.860978615  0.43836881295953867  1.0000
  Cu  Cu4       1.0  0.87605074  0.360978615  0.4684216105482524  1.0000
  Cu  Cu5       1.0  0.20938408  0.7018469350000001  0.42880410703685456  1.0000
  Cu  Cu6       1.0  0.20938408  0.201846935  0.4588569082319042  1.0000
  Cu  Cu7       1.0  0.7093840800000001  0.45184693499999995  0.44383050763437937  1.0000
  Cu  Cu8       1.0  0.7093840800000001  0.951846935  0.4738833052230932  1.0000
  Al  Al13      1.0  0.042717410000000004  0.531412775  0.5087184575763168  1.0000
  Al  Al14      1.0  0.05422980000000001  0.048646505000000013  0.5400177454835821  1.0000
  Al  Al15      1.0  0.5449030300000001  0.280929765  0.5248487864297131  1.0000
  Al  Al16      1.0  0.5427174100000001  0.781412775  0.4936920569787921  1.0000
  Al  Al17      1.0  0.37605074  0.355396475  0.49813889268070566  1.0000
  Al  Al18      1.0  0.35650849  0.8442231349999999  0.5295236832047546  1.0000
  Al  Al19      1.0  0.87605074  0.10539647500000002  0.5131652932782305  1.0000
  Al  Al20      1.0  0.95728259  0.673243045  0.5374293592314378  1.0000
  Al  Al21      1.0  0.23639586  0.42675728499999993  0.5359791614257865  1.0000
  Al  Al22      1.0  0.20938408  0.9574290749999999  0.5042716218744033  1.0000
  Al  Al23      1.0  0.7093840800000001  0.207429075  0.4892452248832143  1.0000
  Al  Al24      1.0  0.69719878  0.710224435  0.5194171866275815  1.0000
  Cu  Cu9       1.0  0.3951616500000001  0.087123755  0.5443636759082756  1.0000
  Cu  Cu10      1.0  0.37605074  0.610978615  0.513500808734491  1.0000
  Cu  Cu11      1.0  0.87605074  0.860978615  0.49847441174330204  1.0000
  Cu  Cu12      1.0  0.88218286  0.358367755  0.5283118714117839  1.0000
  Cu  Cu13      1.0  0.20938408  0.7018469350000001  0.4889097058206179  1.0000
  Cu  Cu14      1.0  0.20789726  0.20773444500000002  0.5181515971543426  1.0000
  Cu  Cu15      1.0  0.7093840800000001  0.45184693499999995  0.5039361064181427  1.0000
  Cu  Cu16      1.0  0.71857391  0.9620413849999999  0.5340653979966747  1.0000
