data_image0
_chemical_formula_structural       COAg24Sn8
_chemical_formula_sum              "C1 O1 Ag24 Sn8"
_cell_length_a       8.13156272322876
_cell_length_b       9.521921656797659
_cell_length_c       103.88359073000001
_cell_angle_alpha    92.66891939222856
_cell_angle_beta     94.28591083441944
_cell_angle_gamma    97.64119040580488

_space_group_name_H-M_alt    "P 1"
_space_group_IT_number       1

loop_
  _space_group_symop_operation_xyz
  'x, y, z'

loop_
  _atom_site_type_symbol
  _atom_site_label
  _atom_site_symmetry_multiplicity
  _atom_site_fract_x
  _atom_site_fract_y
  _atom_site_fract_z
  _atom_site_occupancy
  C   C1        1.0  0.81158938  0.70442024  0.5443776588227741  1.0000
  O   O1        1.0  0.8810063100000001  0.64892203  0.5523831208437331  1.0000
  Ag  Ag1       1.0  0.33336480000000007  0.89739191  0.48000085619948535  1.0000
  Ag  Ag2       1.0  0.82730643  0.26329663  0.5008061132519304  1.0000
  Ag  Ag3       1.0  0.3342465700000001  0.6275464700000001  0.5186500801052993  1.0000
  Ag  Ag4       1.0  0.8333648  0.5223919100000001  0.4596153034308186  1.0000
  Ag  Ag5       1.0  0.9089431800000001  0.07907568999999999  0.4626967183535614  1.0000
  Ag  Ag6       1.0  0.40894318000000013  0.4540756899999999  0.4830822711222283  1.0000
  Ag  Ag7       1.0  0.9152580300000001  0.8249290100000001  0.5040605509615084  1.0000
  Ag  Ag8       1.0  0.4036945200000001  0.18641598999999998  0.5213469582690563  1.0000
  Ag  Ag9       1.0  0.28858197  0.17667630999999998  0.46800243192493374  1.0000
  Ag  Ag10      1.0  0.7885819700000001  0.5516763100000001  0.48838798469360045  1.0000
  Ag  Ag11      1.0  0.28934321  0.91302178  0.5090647344830802  1.0000
  Ag  Ag12      1.0  0.7885819700000001  0.8016763100000001  0.44761687915626686  1.0000
  Ag  Ag13      1.0  0.9537260099999999  0.7997912899999999  0.4746951426281131  1.0000
  Ag  Ag14      1.0  0.4596266500000001  0.16908228999999997  0.49429185278515514  1.0000
  Ag  Ag15      1.0  0.96148478  0.5385196800000001  0.5142464582299807  1.0000
  Ag  Ag16      1.0  0.4537260100000001  0.42479129  0.4543095898594464  1.0000
  Ag  Ag17      1.0  0.03907733000000006  0.36380478  0.47817501193442813  1.0000
  Ag  Ag18      1.0  0.5480612100000001  0.74059477  0.4985273835465644  1.0000
  Ag  Ag19      1.0  0.03851522000000006  0.10007241999999997  0.5179823896492008  1.0000
  Ag  Ag20      1.0  0.53907733  0.9888047799999999  0.4577894591657613  1.0000
  Ag  Ag21      1.0  0.7032306500000002  0.9876628199999999  0.4849081153872855  1.0000
  Ag  Ag22      1.0  0.19978682000000006  0.3540593  0.5059386311669801  1.0000
  Ag  Ag23      1.0  0.7055097800000001  0.7131915200000001  0.5245799895173829  1.0000
  Ag  Ag24      1.0  0.20323065000000004  0.6126628199999999  0.46452256261861874  1.0000
  Sn  Sn1       1.0  0.16146401000000005  0.8934663199999999  0.4526067177720665  1.0000
  Sn  Sn2       1.0  0.66146401  0.26846632  0.4729922705407333  1.0000
  Sn  Sn3       1.0  0.16146401000000007  0.64346632  0.4933778233094001  1.0000
  Sn  Sn4       1.0  0.6672489300000001  0.011195219999999978  0.5146338326579121  1.0000
  Sn  Sn5       1.0  0.08084397000000007  0.08300127999999997  0.4900908567809803  1.0000
  Sn  Sn6       1.0  0.5858958400000001  0.44724531  0.5109955007419716  1.0000
  Sn  Sn7       1.0  0.08084397000000007  0.33300128  0.44931975124364676  1.0000
  Sn  Sn8       1.0  0.5808439700000001  0.70800128  0.4697053040123135  1.0000
