data_image0
_chemical_formula_structural       COFe9Pt3Fe9Pt3Fe9Pt3Fe9Pt3
_chemical_formula_sum              "C1 O1 Fe36 Pt12"
_cell_length_a       7.23843178
_cell_length_b       8.092812760356198
_cell_length_c       105.82840938
_cell_angle_alpha    71.56505117707799
_cell_angle_beta     90.0
_cell_angle_gamma    90.0

_space_group_name_H-M_alt    "P 1"
_space_group_IT_number       1

loop_
  _space_group_symop_operation_xyz
  'x, y, z'

loop_
  _atom_site_type_symbol
  _atom_site_label
  _atom_site_symmetry_multiplicity
  _atom_site_fract_x
  _atom_site_fract_y
  _atom_site_fract_z
  _atom_site_occupancy
  C   C1        1.0  0.378608135  0.38010336499999997  0.546708548581761  1.0000
  O   O1        1.0  0.378607895  0.34808007500000004  0.5583301247048412  1.0000
  Fe  Fe1       1.0  0.378607305  0.501338755  0.4577913952885333  1.0000
  Fe  Fe2       1.0  0.378607305  0.16800542499999999  0.44166987529515883  1.0000
  Fe  Fe3       1.0  0.378607305  0.8346720849999999  0.47391291189638873  1.0000
  Fe  Fe4       1.0  0.128607305  0.6680054249999999  0.44166987529515883  1.0000
  Fe  Fe5       1.0  0.128607305  0.334672085  0.4739129118963888  1.0000
  Fe  Fe6       1.0  0.128607305  0.0013387550000000116  0.4577913952885333  1.0000
  Fe  Fe7       1.0  0.378607305  0.8346720849999999  0.4497306335990865  1.0000
  Fe  Fe8       1.0  0.378607305  0.501338755  0.4819736735858354  1.0000
  Fe  Fe9       1.0  0.378607305  0.16800542499999999  0.46585215359246096  1.0000
  Pt  Pt1       1.0  0.128607305  0.6680054249999999  0.465852153592461  1.0000
  Pt  Pt2       1.0  0.128607305  0.334672085  0.44973063359908655  1.0000
  Pt  Pt3       1.0  0.128607305  0.0013387550000000116  0.48197367358583554  1.0000
  Fe  Fe10      1.0  0.378604895  0.516464115  0.5046416600041026  1.0000
  Fe  Fe11      1.0  0.378607305  0.16800542499999999  0.4900344318897632  1.0000
  Fe  Fe12      1.0  0.37860396500000004  0.8556037550000001  0.5207486730484364  1.0000
  Fe  Fe13      1.0  0.128607305  0.6680054249999999  0.4900344318897632  1.0000
  Fe  Fe14      1.0  0.121388005  0.339158605  0.5219476072154082  1.0000
  Fe  Fe15      1.0  0.129453805  0.998661245  0.5064741737442998  1.0000
  Fe  Fe16      1.0  0.378607305  0.8346720849999999  0.49809519357921  1.0000
  Fe  Fe17      1.0  0.378606465  0.429350525  0.5290179894811281  1.0000
  Fe  Fe18      1.0  0.378602145  0.164553645  0.5141514170670657  1.0000
  Pt  Pt4       1.0  0.130807985  0.6667216749999999  0.5151034317891521  1.0000
  Pt  Pt5       1.0  0.128607305  0.334672085  0.49809519357921  1.0000
  Pt  Pt6       1.0  0.126567335  0.006706645000000012  0.5301547045793787  1.0000
  Fe  Fe19      1.0  0.8786073050000001  0.501338755  0.4577913952885333  1.0000
  Fe  Fe20      1.0  0.8786073050000001  0.16800542499999999  0.44166987529515883  1.0000
  Fe  Fe21      1.0  0.8786073050000001  0.8346720849999999  0.47391291189638873  1.0000
  Fe  Fe22      1.0  0.6286073050000001  0.6680054249999999  0.44166987529515883  1.0000
  Fe  Fe23      1.0  0.6286073050000001  0.334672085  0.4739129118963888  1.0000
  Fe  Fe24      1.0  0.6286073050000001  0.0013387550000000116  0.4577913952885333  1.0000
  Fe  Fe25      1.0  0.8786073050000001  0.8346720849999999  0.4497306335990865  1.0000
  Fe  Fe26      1.0  0.8786073050000001  0.501338755  0.4819736735858354  1.0000
  Fe  Fe27      1.0  0.8786073050000001  0.16800542499999999  0.46585215359246096  1.0000
  Pt  Pt7       1.0  0.6286073050000001  0.6680054249999999  0.465852153592461  1.0000
  Pt  Pt8       1.0  0.6286073050000001  0.334672085  0.44973063359908655  1.0000
  Pt  Pt9       1.0  0.6286073050000001  0.0013387550000000116  0.48197367358583554  1.0000
  Fe  Fe28      1.0  0.878608315  0.5108202150000001  0.5055729858194008  1.0000
  Fe  Fe29      1.0  0.8786073050000001  0.16800542499999999  0.4900344318897632  1.0000
  Fe  Fe30      1.0  0.8786109049999999  0.8545140949999999  0.520585308213195  1.0000
  Fe  Fe31      1.0  0.6286073050000001  0.6680054249999999  0.4900344318897632  1.0000
  Fe  Fe32      1.0  0.635827035  0.339155695  0.5219478035755118  1.0000
  Fe  Fe33      1.0  0.6277604050000001  0.998654975  0.5064749828833478  1.0000
  Fe  Fe34      1.0  0.8786073050000001  0.8346720849999999  0.49809519357921  1.0000
  Fe  Fe35      1.0  0.878608295  0.444193205  0.5286472954605304  1.0000
  Fe  Fe36      1.0  0.878611995  0.163957785  0.5138428371640991  1.0000
  Pt  Pt10      1.0  0.626406075  0.666720575  0.5151037872686501  1.0000
  Pt  Pt11      1.0  0.6286073050000001  0.334672085  0.49809519357921  1.0000
  Pt  Pt12      1.0  0.630646515  0.006704805000000012  0.5301545894717319  1.0000
