data_image0
_chemical_formula_structural       Sb16V8CO
_chemical_formula_sum              "Sb16 V8 C1 O1"
_cell_length_a       5.474670365891994
_cell_length_b       9.38833917
_cell_length_c       31.32880841
_cell_angle_alpha    90.0
_cell_angle_beta     88.07801566502775
_cell_angle_gamma    90.0

_space_group_name_H-M_alt    "P 1"
_space_group_IT_number       1

loop_
  _space_group_symop_operation_xyz
  'x, y, z'

loop_
  _atom_site_type_symbol
  _atom_site_label
  _atom_site_symmetry_multiplicity
  _atom_site_fract_x
  _atom_site_fract_y
  _atom_site_fract_z
  _atom_site_occupancy
  Sb  Sb1       1.0  0.14033884499999993  0.45403871999999995  0.49156449618751813  1.0000
  Sb  Sb2       1.0  0.8903388449999999  0.9540387199999999  0.41441666972873964  1.0000
  Sb  Sb3       1.0  0.37914690500000003  0.9551454  0.5681225923171935  1.0000
  Sb  Sb4       1.0  0.640338845  0.45403871999999995  0.3372688432699611  1.0000
  Sb  Sb5       1.0  0.904976065  0.7971301999999999  0.5157748049010719  1.0000
  Sb  Sb6       1.0  0.654976065  0.2971301999999999  0.4386269784422932  1.0000
  Sb  Sb7       1.0  0.09502393499999996  0.3044723399999999  0.5931706400205238  1.0000
  Sb  Sb8       1.0  0.404976065  0.7971301999999999  0.3614791519835148  1.0000
  Sb  Sb9       1.0  0.8903388449999999  0.6402216799999999  0.41441666972873964  1.0000
  Sb  Sb10      1.0  0.640338845  0.14022167999999993  0.3372688432699611  1.0000
  Sb  Sb11      1.0  0.14033884499999993  0.14022167999999993  0.49156449618751813  1.0000
  Sb  Sb12      1.0  0.38865537499999997  0.6364393399999999  0.5701894875090682  1.0000
  Sb  Sb13      1.0  0.37570162500000004  0.7971301999999999  0.4673541998176167  1.0000
  Sb  Sb14      1.0  0.12570162499999996  0.2971301999999999  0.3902063733588382  1.0000
  Sb  Sb15      1.0  0.6000140449999999  0.2975225899999999  0.5488967738120109  1.0000
  Sb  Sb16      1.0  0.820345595  0.7779247999999999  0.6167363508707968  1.0000
  V   V1        1.0  0.640338845  0.5471301999999999  0.4915644961875181  1.0000
  V   V2        1.0  0.39033884499999993  0.04713019999999994  0.4144166697287397  1.0000
  V   V3        1.0  0.8690523949999999  0.04485459999999994  0.5687926304477271  1.0000
  V   V4        1.0  0.14033884499999993  0.5471301999999999  0.33726884326996115  1.0000
  V   V5        1.0  0.8745353349999999  0.5486428499999999  0.561990253543986  1.0000
  V   V6        1.0  0.640338845  0.04713019999999994  0.4915644961875181  1.0000
  V   V7        1.0  0.14033884499999993  0.04713019999999994  0.33726884326996115  1.0000
  V   V8        1.0  0.39033884499999993  0.5471301999999999  0.4144166697287397  1.0000
  C   C1        1.0  0.7571394450000001  0.08840272999999994  0.6275645852631586  1.0000
  O   O1        1.0  0.688294875  0.11550380999999993  0.662731156730039  1.0000
