data_image0
_chemical_formula_structural       COSn10Au10Sn10Au10
_chemical_formula_sum              "C1 O1 Sn20 Au20"
_cell_length_a       11.780027553100247
_cell_length_b       7.238734384705252
_cell_length_c       113.43240628000001
_cell_angle_alpha    64.37323717108329
_cell_angle_beta     83.32484806188072
_cell_angle_gamma    62.292364703727735

_space_group_name_H-M_alt    "P 1"
_space_group_IT_number       1

loop_
  _space_group_symop_operation_xyz
  'x, y, z'

loop_
  _atom_site_type_symbol
  _atom_site_label
  _atom_site_symmetry_multiplicity
  _atom_site_fract_x
  _atom_site_fract_y
  _atom_site_fract_z
  _atom_site_occupancy
  C   C1        1.0  0.54121746  0.394506515  0.5639252799108024  1.0000
  O   O1        1.0  0.52823571  0.394536415  0.5742254415611318  1.0000
  Sn  Sn1       1.0  0.27499999999999997  0.9583333350000001  0.46831816184399766  1.0000
  Sn  Sn2       1.0  0.6750000000000002  0.7583333349999999  0.48108124056818213  1.0000
  Sn  Sn3       1.0  0.875  0.15833333499999996  0.4555550792908892  1.0000
  Sn  Sn4       1.0  0.07500000000000004  0.5583333349999999  0.4300289218425204  1.0000
  Sn  Sn5       1.0  0.47500000000000003  0.3583333349999999  0.4427920005667048  1.0000
  Sn  Sn6       1.0  0.5750000000000001  0.7249999949999999  0.45130071971616115  1.0000
  Sn  Sn7       1.0  0.975  0.5249999949999999  0.46406379844034557  1.0000
  Sn  Sn8       1.0  0.175  0.9249999950000001  0.4385376409919767  1.0000
  Sn  Sn9       1.0  0.375  0.324999995  0.47682688099345394  1.0000
  Sn  Sn10      1.0  0.775  0.12499999499999997  0.4257745584388683  1.0000
  Au  Au1       1.0  0.32500000000000007  0.14166666499999997  0.4406648188648788  1.0000
  Au  Au2       1.0  0.725  0.9416666650000001  0.4534279014179872  1.0000
  Au  Au3       1.0  0.925  0.341666665  0.4279017401406943  1.0000
  Au  Au4       1.0  0.12500000000000003  0.741666665  0.46619098014217164  1.0000
  Au  Au5       1.0  0.525  0.5416666649999999  0.47895405886635606  1.0000
  Au  Au6       1.0  0.42500000000000016  0.841666665  0.4279017401406943  1.0000
  Au  Au7       1.0  0.8250000000000002  0.641666665  0.4406648188648788  1.0000
  Au  Au8       1.0  0.025000000000000046  0.041666664999999964  0.4789540588663561  1.0000
  Au  Au9       1.0  0.2250000000000001  0.44166666499999996  0.45342790141798717  1.0000
  Au  Au10      1.0  0.6250000000000001  0.24166666499999995  0.4661909801421717  1.0000
  Sn  Sn11      1.0  0.29411445  0.952519485  0.5316871871628306  1.0000
  Sn  Sn12      1.0  0.66192023  0.7998927450000001  0.542606742361892  1.0000
  Sn  Sn13      1.0  0.8626588700000001  0.17112162499999997  0.5196382870010018  1.0000
  Sn  Sn14      1.0  0.07500000000000004  0.5583333349999999  0.4938443192923666  1.0000
  Sn  Sn15      1.0  0.47500000000000003  0.3583333349999999  0.5066074018454749  1.0000
  Sn  Sn16      1.0  0.5750000000000001  0.7249999949999999  0.5151161209949313  1.0000
  Sn  Sn17      1.0  0.9609455500000001  0.5717644649999999  0.5296142000513027  1.0000
  Sn  Sn18      1.0  0.175  0.9249999950000001  0.5023530384418228  1.0000
  Sn  Sn19      1.0  0.36997784  0.31757384499999997  0.5400898948934948  1.0000
  Sn  Sn20      1.0  0.775  0.12499999499999997  0.4895899597176384  1.0000
  Au  Au11      1.0  0.32500000000000007  0.14166666499999997  0.504480220143649  1.0000
  Au  Au12      1.0  0.7198143500000002  0.9551954450000001  0.516095621016953  1.0000
  Au  Au13      1.0  0.925  0.341666665  0.49171714141946443  1.0000
  Au  Au14      1.0  0.12796853000000002  0.7566322950000001  0.5297396777197114  1.0000
  Au  Au15      1.0  0.52662648  0.560305105  0.5435591565755367  1.0000
  Au  Au16      1.0  0.42500000000000016  0.841666665  0.49171714141946443  1.0000
  Au  Au17      1.0  0.8250000000000002  0.641666665  0.5044802201436489  1.0000
  Au  Au18      1.0  0.03687912000000004  0.12465698499999997  0.5365712018026111  1.0000
  Au  Au19      1.0  0.22041951000000004  0.455138795  0.5167634964013748  1.0000
  Au  Au20      1.0  0.60688518  0.26833995499999996  0.5296812942865572  1.0000
