data_image0
_chemical_formula_structural       COCo12Sb24
_chemical_formula_sum              "C1 O1 Co12 Sb24"
_cell_length_a       6.880349442364592
_cell_length_b       14.660672343919474
_cell_length_c       106.87821260999999
_cell_angle_alpha    109.41729608260698
_cell_angle_beta     111.63408777665924
_cell_angle_gamma    62.3741763861242

_space_group_name_H-M_alt    "P 1"
_space_group_IT_number       1

loop_
  _space_group_symop_operation_xyz
  'x, y, z'

loop_
  _atom_site_type_symbol
  _atom_site_label
  _atom_site_symmetry_multiplicity
  _atom_site_fract_x
  _atom_site_fract_y
  _atom_site_fract_z
  _atom_site_occupancy
  C   C1        1.0  0.8340971  0.880422045  0.5396206381552126  1.0000
  O   O1        1.0  0.87301925  0.8997009949999998  0.5516314600666362  1.0000
  Co  Co1       1.0  0.7050102400000001  0.859674395  0.47712261950648965  1.0000
  Co  Co2       1.0  0.69991662  0.525651095  0.5058191621709928  1.0000
  Co  Co3       1.0  0.7050102400000001  0.19300772499999994  0.44836853993336356  1.0000
  Co  Co4       1.0  0.77644958  0.8496894549999999  0.5215374243903146  1.0000
  Co  Co5       1.0  0.770327  0.518267835  0.4634419954203322  1.0000
  Co  Co6       1.0  0.770327  0.18493450500000005  0.4921960715429689  1.0000
  Co  Co7       1.0  0.27032699999999993  0.184438175  0.44897932484148767  1.0000
  Co  Co8       1.0  0.27032699999999993  0.851104835  0.47773340441461365  1.0000
  Co  Co9       1.0  0.27686272999999995  0.5145566650000001  0.5059103378995355  1.0000
  Co  Co10      1.0  0.20501023999999998  0.192511395  0.4914140285007711  1.0000
  Co  Co11      1.0  0.18684947999999998  0.8529949349999999  0.5189046700208135  1.0000
  Co  Co12      1.0  0.20501023999999998  0.525844725  0.46265994892764517  1.0000
  Sb  Sb1       1.0  0.8238653799999999  0.011810745000000003  0.5200458192835821  1.0000
  Sb  Sb2       1.0  0.8212868999999999  0.6761185249999999  0.4622158468048191  1.0000
  Sb  Sb3       1.0  0.8212868999999999  0.34278519500000004  0.4909699229274558  1.0000
  Sb  Sb4       1.0  0.6540503399999998  0.7975813749999999  0.49486930705261767  1.0000
  Sb  Sb5       1.0  0.6496268599999999  0.46963897500000007  0.5244992967781169  1.0000
  Sb  Sb6       1.0  0.6540503399999998  0.13091471500000001  0.4661152274794917  1.0000
  Sb  Sb7       1.0  0.15405033999999998  0.034660704999999986  0.49264017366579493  1.0000
  Sb  Sb8       1.0  0.16188115999999994  0.6959140549999999  0.5210679335674198  1.0000
  Sb  Sb9       1.0  0.15405033999999998  0.36799403499999994  0.4638860975431582  1.0000
  Sb  Sb10      1.0  0.29960899999999996  0.245868025  0.5177610088018545  1.0000
  Sb  Sb11      1.0  0.32128689999999993  0.913197855  0.45998671341799646  1.0000
  Sb  Sb12      1.0  0.32128689999999993  0.5798645149999998  0.48874079299112244  1.0000
  Sb  Sb13      1.0  0.6174751099999999  0.04968508500000003  0.4916962198649632  1.0000
  Sb  Sb14      1.0  0.5933685399999998  0.7202130049999999  0.5189453719922748  1.0000
  Sb  Sb15      1.0  0.6174751099999999  0.38301842500000005  0.4629421402918373  1.0000
  Sb  Sb16      1.0  0.85786213  0.9008944849999999  0.46140011318536234  1.0000
  Sb  Sb17      1.0  0.85786213  0.5675611449999999  0.4901541893079991  1.0000
  Sb  Sb18      1.0  0.88508946  0.233964505  0.5185131257505899  1.0000
  Sb  Sb19      1.0  0.34470293999999996  0.9881892550000001  0.5211855710981951  1.0000
  Sb  Sb20      1.0  0.3578621299999999  0.6610941450000001  0.46315980405614005  1.0000
  Sb  Sb21      1.0  0.3578621299999999  0.327760805  0.4919138801787767  1.0000
  Sb  Sb22      1.0  0.11747510999999997  0.14321808499999997  0.464701831162615  1.0000
  Sb  Sb23      1.0  0.11747510999999997  0.8098847450000001  0.493455910735741  1.0000
  Sb  Sb24      1.0  0.11491053999999999  0.481152105  0.5223381725348598  1.0000
