data_image0
_chemical_formula_structural       COAg18Pd6
_chemical_formula_sum              "C1 O1 Ag18 Pd6"
_cell_length_a       5.065949589599236
_cell_length_b       7.756501370022218
_cell_length_c       37.30993285
_cell_angle_alpha    93.80538428465549
_cell_angle_beta     90.14583316550261
_cell_angle_gamma    89.69268929803556

_space_group_name_H-M_alt    "P 1"
_space_group_IT_number       1

loop_
  _space_group_symop_operation_xyz
  'x, y, z'

loop_
  _atom_site_type_symbol
  _atom_site_label
  _atom_site_symmetry_multiplicity
  _atom_site_fract_x
  _atom_site_fract_y
  _atom_site_fract_z
  _atom_site_occupancy
  C   C1        1.0  0.9592495200000002  0.35710372000000007  0.648883858092691  1.0000
  O   O1        1.0  0.89329723  0.3656243800000001  0.6788057060545822  1.0000
  Ag  Ag1       1.0  0.20741715000000002  0.45833333  0.3698707326663518  1.0000
  Ag  Ag2       1.0  0.54075048  0.9027777799999999  0.41854718014904546  1.0000
  Ag  Ag3       1.0  0.8740838100000001  0.013888890000000029  0.3211942939454178  1.0000
  Ag  Ag4       1.0  0.54075048  0.7361111099999998  0.34553251768676463  1.0000
  Ag  Ag5       1.0  0.8740838100000001  0.18055556000000003  0.39420895640769854  1.0000
  Ag  Ag6       1.0  0.20741715000000002  0.6249999999999999  0.44288540389039227  1.0000
  Ag  Ag7       1.0  0.04075048000000002  0.8194444399999999  0.38203984453702516  1.0000
  Ag  Ag8       1.0  0.37408381  0.26388889000000004  0.4307162920197189  1.0000
  Ag  Ag9       1.0  0.70741715  0.375  0.33336340581609125  1.0000
  Ag  Ag10      1.0  0.20380274000000004  0.7922649699999998  0.5163979270706393  1.0000
  Ag  Ag11      1.0  0.54835381  0.23101892  0.5659909072037778  1.0000
  Ag  Ag12      1.0  0.8740838100000001  0.3472222200000001  0.4672236188699794  1.0000
  Ag  Ag13      1.0  0.54075048  0.06944444000000001  0.4915618426113261  1.0000
  Ag  Ag14      1.0  0.870029  0.5190602799999999  0.5412147882288503  1.0000
  Ag  Ag15      1.0  0.20013919000000002  0.95403424  0.5883962867231094  1.0000
  Ag  Ag16      1.0  0.04651077000000003  0.15442038000000002  0.5285183673653684  1.0000
  Ag  Ag17      1.0  0.37389115000000006  0.5957964999999998  0.5762749614906358  1.0000
  Ag  Ag18      1.0  0.70741715  0.7083333299999999  0.4793927307406528  1.0000
  Pd  Pd1       1.0  0.04075048000000002  0.9861111099999998  0.4550545157610656  1.0000
  Pd  Pd2       1.0  0.37408381  0.09722222000000001  0.3577016207956784  1.0000
  Pd  Pd3       1.0  0.70741715  0.54166667  0.406378068278372  1.0000
  Pd  Pd4       1.0  0.043751940000000024  0.31261407  0.599231806174671  1.0000
  Pd  Pd5       1.0  0.37408381  0.43055556  0.5037309544819997  1.0000
  Pd  Pd6       1.0  0.69984529  0.87665237  0.5516921444614294  1.0000
