data_image0
_chemical_formula_structural       COCu6Rh12Sb6
_chemical_formula_sum              "C1 O1 Cu6 Rh12 Sb6"
_cell_length_a       7.671861124111287
_cell_length_b       6.26404838
_cell_length_c       103.73293287
_cell_angle_alpha    90.0
_cell_angle_beta     85.65224685525405
_cell_angle_gamma    114.09484256360841

_space_group_name_H-M_alt    "P 1"
_space_group_IT_number       1

loop_
  _space_group_symop_operation_xyz
  'x, y, z'

loop_
  _atom_site_type_symbol
  _atom_site_label
  _atom_site_symmetry_multiplicity
  _atom_site_fract_x
  _atom_site_fract_y
  _atom_site_fract_z
  _atom_site_occupancy
  C   C1        1.0  0.37457141000000005  0.21798759000000004  0.5382395835330115  1.0000
  O   O1        1.0  0.36697821  0.21401709000000008  0.5497243192148238  1.0000
  Cu  Cu1       1.0  0.35416666  0.20846010000000006  0.4773748660321198  1.0000
  Cu  Cu2       1.0  0.53022293  0.7963588200000001  0.5061567512050732  1.0000
  Cu  Cu3       1.0  0.1875  0.6251267700000002  0.4502756807851762  1.0000
  Cu  Cu4       1.0  0.9375  0.5001267700000002  0.49092445540368956  1.0000
  Cu  Cu5       1.0  0.09073567  0.07643775000000005  0.5187920228112958  1.0000
  Cu  Cu6       1.0  0.77083333  0.9167934300000002  0.463825273408648  1.0000
  Rh  Rh1       1.0  0.38479993999999995  0.4477880600000001  0.5240156049753047  1.0000
  Rh  Rh2       1.0  0.06249999999999999  0.31262677000000005  0.47060006809443294  1.0000
  Rh  Rh3       1.0  0.23519575  0.8953698300000003  0.4974784589533545  1.0000
  Rh  Rh4       1.0  0.3858105  0.9998732300000001  0.5239967536995876  1.0000
  Rh  Rh5       1.0  0.06249999999999999  0.8126267700000002  0.47060006809443294  1.0000
  Rh  Rh6       1.0  0.23525656000000003  0.40313297000000003  0.497483213234034  1.0000
  Rh  Rh7       1.0  0.47916665999999997  0.02096010000000007  0.45705047872286314  1.0000
  Rh  Rh8       1.0  0.6458333300000001  0.6042934300000001  0.4841496607179046  1.0000
  Rh  Rh9       1.0  0.8267449800000001  0.19774796000000008  0.5101968914486428  1.0000
  Rh  Rh10      1.0  0.47916665999999997  0.5209601000000001  0.45705047872286314  1.0000
  Rh  Rh11      1.0  0.6458333300000001  0.1042934300000001  0.4841496607179046  1.0000
  Rh  Rh12      1.0  0.82671849  0.6919609500000002  0.5101918770158057  1.0000
  Sb  Sb1       1.0  0.35416666  0.7084601000000001  0.4773748660321198  1.0000
  Sb  Sb2       1.0  0.52900593  0.2959533600000001  0.5044954325345127  1.0000
  Sb  Sb3       1.0  0.1875  0.12512677000000008  0.4502756807851762  1.0000
  Sb  Sb4       1.0  0.9375  0.00012677000000005378  0.49092445540368956  1.0000
  Sb  Sb5       1.0  0.10566207000000001  0.58506223  0.5188996705221917  1.0000
  Sb  Sb6       1.0  0.77083333  0.41679343000000013  0.463825273408648  1.0000
