data_image0
_chemical_formula_structural       COSi12Rh24
_chemical_formula_sum              "C1 O1 Si12 Rh24"
_cell_length_a       8.451613705710518
_cell_length_b       6.798401968619033
_cell_length_c       110.36309589
_cell_angle_alpha    102.26195802554454
_cell_angle_beta     117.80465057053493
_cell_angle_gamma    74.01358929802885

_space_group_name_H-M_alt    "P 1"
_space_group_IT_number       1

loop_
  _space_group_symop_operation_xyz
  'x, y, z'

loop_
  _atom_site_type_symbol
  _atom_site_label
  _atom_site_symmetry_multiplicity
  _atom_site_fract_x
  _atom_site_fract_y
  _atom_site_fract_z
  _atom_site_occupancy
  C   C1        1.0  0.68822014  0.08394371500000002  0.5456336745905007  1.0000
  O   O1        1.0  0.77058672  0.06517326499999998  0.5573986822812723  1.0000
  Si  Si1       1.0  0.72788766  0.118349005  0.4586975415403799  1.0000
  Si  Si2       1.0  0.06122099000000001  0.451682335  0.4891750409481124  1.0000
  Si  Si3       1.0  0.37610056  0.8214560750000001  0.5186129016072628  1.0000
  Si  Si4       1.0  0.60544567  0.6517814750000002  0.46683590464516206  1.0000
  Si  Si5       1.0  0.93877901  0.9851148150000001  0.49731340405289465  1.0000
  Si  Si6       1.0  0.25822549  0.30639538499999996  0.5264352264406449  1.0000
  Si  Si7       1.0  0.08691999000000003  0.6888328349999999  0.46514205537372455  1.0000
  Si  Si8       1.0  0.42025333  0.022166174999999982  0.4956195547814572  1.0000
  Si  Si9       1.0  0.72558183  0.357202245  0.5237989019117235  1.0000
  Si  Si10      1.0  0.24641334  0.08129764499999999  0.4603913908118173  1.0000
  Si  Si11      1.0  0.57974667  0.41463097499999996  0.49086889021954994  1.0000
  Si  Si12      1.0  0.91164188  0.7609535950000001  0.518491892519674  1.0000
  Rh  Rh1       1.0  0.8722088499999999  0.42018499500000006  0.46362052345263116  1.0000
  Rh  Rh2       1.0  0.20554217999999996  0.753518325  0.4940980265176638  1.0000
  Rh  Rh3       1.0  0.54134183  0.12629599500000002  0.526949545235623  1.0000
  Rh  Rh4       1.0  0.46112448  0.349945485  0.4619129190756106  1.0000
  Rh  Rh5       1.0  0.79445782  0.683278825  0.49239041848334336  1.0000
  Rh  Rh6       1.0  0.1188414  0.014885184999999993  0.5223871913972888  1.0000
  Rh  Rh7       1.0  0.77727002  0.7176544050000001  0.4451026476445728  1.0000
  Rh  Rh8       1.0  0.11060336000000001  0.050987744999999994  0.4755801470523054  1.0000
  Rh  Rh9       1.0  0.4332492  0.389233005  0.5057922837384803  1.0000
  Rh  Rh10      1.0  0.55606331  0.05247607500000003  0.4804307985409691  1.0000
  Rh  Rh11      1.0  0.9078695199999999  0.393939205  0.513460160789686  1.0000
  Rh  Rh12      1.0  0.22272998  0.7191427450000001  0.4499532954759363  1.0000
  Rh  Rh13      1.0  0.84977249  0.8391757150000001  0.4730788171264604  1.0000
  Rh  Rh14      1.0  0.18349935  0.171987155  0.5032082110557335  1.0000
  Rh  Rh15      1.0  0.51643915  0.5058423750000001  0.44260131771872774  1.0000
  Rh  Rh16      1.0  0.48356084999999993  0.9309547750000001  0.4524546254017814  1.0000
  Rh  Rh17      1.0  0.81689418  0.264288105  0.482932124809514  1.0000
  Rh  Rh18      1.0  0.16707000999999996  0.5921561250000003  0.5143739737864805  1.0000
  Rh  Rh19      1.0  0.92267634  0.05272378499999998  0.4468878014123881  1.0000
  Rh  Rh20      1.0  0.25600967  0.386057115  0.47736530447742076  1.0000
  Rh  Rh21      1.0  0.59371534  0.7163711150000003  0.5089706018520489  1.0000
  Rh  Rh22      1.0  0.41065699  0.7174066949999999  0.4786456411158536  1.0000
  Rh  Rh23      1.0  0.7341046899999999  0.06289458500000003  0.50848346776853  1.0000
  Rh  Rh24      1.0  0.07732366000000002  0.38407336499999994  0.44816814170812097  1.0000
