data_image0
_chemical_formula_structural       COCu4Ni4Sb8Cu4Ni4Sb8
_chemical_formula_sum              "C1 O1 Cu8 Ni8 Sb16"
_cell_length_a       11.185008340645481
_cell_length_b       7.17596005
_cell_length_c       99.00129726
_cell_angle_alpha    90.0
_cell_angle_beta     79.32690624869502
_cell_angle_gamma    71.28961058597086

_space_group_name_H-M_alt    "P 1"
_space_group_IT_number       1

loop_
  _space_group_symop_operation_xyz
  'x, y, z'

loop_
  _atom_site_type_symbol
  _atom_site_label
  _atom_site_symmetry_multiplicity
  _atom_site_fract_x
  _atom_site_fract_y
  _atom_site_fract_z
  _atom_site_occupancy
  C   C1        1.0  0.34899975  0.2810946099999999  0.5396371032403325  1.0000
  O   O1        1.0  0.36871987000000006  0.25293341999999996  0.5507785965331555  1.0000
  Cu  Cu1       1.0  0.57048374  0.19897584999999998  0.5155891589133187  1.0000
  Cu  Cu2       1.0  0.07159518000000002  0.44587031  0.5241664291855701  1.0000
  Cu  Cu3       1.0  0.06841496000000001  0.9562274600000001  0.5064114085379401  1.0000
  Cu  Cu4       1.0  0.56617019  0.70448791  0.4963008158302927  1.0000
  Ni  Ni1       1.0  0.8192909300000001  0.07214889999999996  0.5111795753053637  1.0000
  Ni  Ni2       1.0  0.32329741000000006  0.32188578999999995  0.5225134208435299  1.0000
  Ni  Ni3       1.0  0.31837171000000003  0.8349479599999999  0.5006536718864898  1.0000
  Ni  Ni4       1.0  0.81617019  0.57948791  0.49106976805920804  1.0000
  Sb  Sb1       1.0  0.7032717700000001  0.3026037899999999  0.4934320773199033  1.0000
  Sb  Sb2       1.0  0.21435851000000003  0.55403308  0.5039817849260008  1.0000
  Sb  Sb3       1.0  0.20175477000000006  0.04377253999999993  0.524509735599239  1.0000
  Sb  Sb4       1.0  0.7049796300000001  0.8005017199999999  0.5151183187690368  1.0000
  Sb  Sb5       1.0  0.93382981  0.8335503800000001  0.5280401725126074  1.0000
  Sb  Sb6       1.0  0.42906861  0.10637202999999994  0.49916955434068194  1.0000
  Sb  Sb7       1.0  0.42495955  0.61860648  0.5199163916338472  1.0000
  Sb  Sb8       1.0  0.9129127100000001  0.36256782999999987  0.5106921021097582  1.0000
  Cu  Cu5       1.0  0.56617019  0.20448790999999994  0.47537663353411086  1.0000
  Cu  Cu6       1.0  0.06617019000000002  0.45448791  0.48583872321750887  1.0000
  Cu  Cu7       1.0  0.06617019000000002  0.95448791  0.4649145409213272  1.0000
  Cu  Cu8       1.0  0.56617019  0.70448791  0.45445244830854353  1.0000
  Ni  Ni5       1.0  0.81617019  0.07948790999999991  0.47014558576302623  1.0000
  Ni  Ni6       1.0  0.31617019  0.32948790999999994  0.48060767837581  1.0000
  Ni  Ni7       1.0  0.31617019  0.82948791  0.4596834960796282  1.0000
  Ni  Ni8       1.0  0.81617019  0.57948791  0.4492214034668445  1.0000
  Sb  Sb9       1.0  0.7032717700000001  0.3026037899999999  0.4515837097981542  1.0000
  Sb  Sb10      1.0  0.20327177000000005  0.55260379  0.4620458024109379  1.0000
  Sb  Sb11      1.0  0.20327177000000005  0.05260378999999993  0.4829699847071196  1.0000
  Sb  Sb12      1.0  0.7032717700000001  0.8026037899999998  0.47250789502372154  1.0000
  Sb  Sb13      1.0  0.92906861  0.85637203  0.48870746172789825  1.0000
  Sb  Sb14      1.0  0.42906861  0.10637202999999994  0.45732118681893286  1.0000
  Sb  Sb15      1.0  0.42906861  0.6063720299999998  0.4782453720445002  1.0000
  Sb  Sb16      1.0  0.92906861  0.35637203  0.46778327943171655  1.0000
