data_image0
_chemical_formula_structural       COCu18Si6Cu18Si6
_chemical_formula_sum              "C1 O1 Cu36 Si12"
_cell_length_a       7.30327684
_cell_length_b       10.438132450652173
_cell_length_c       103.21474845
_cell_angle_alpha    70.48939272238734
_cell_angle_beta     90.0
_cell_angle_gamma    90.0

_space_group_name_H-M_alt    "P 1"
_space_group_IT_number       1

loop_
  _space_group_symop_operation_xyz
  'x, y, z'

loop_
  _atom_site_type_symbol
  _atom_site_label
  _atom_site_symmetry_multiplicity
  _atom_site_fract_x
  _atom_site_fract_y
  _atom_site_fract_z
  _atom_site_occupancy
  C   C1        1.0  0.14688207500000003  0.42915243000000003  0.537694665636896  1.0000
  O   O1        1.0  0.17347585500000004  0.40038356  0.5494244191637742  1.0000
  Cu  Cu1       1.0  0.12385359500000001  0.58471762  0.49119497607958346  1.0000
  Cu  Cu2       1.0  0.12404408500000001  0.9234537300000001  0.4639840130959779  1.0000
  Cu  Cu3       1.0  0.124261695  0.23628816000000005  0.516903830060908  1.0000
  Cu  Cu4       1.0  0.37404408499999997  0.7567870600000001  0.47739244535572994  1.0000
  Cu  Cu5       1.0  0.37404408499999997  0.09012039000000005  0.45057558083622606  1.0000
  Cu  Cu6       1.0  0.372252205  0.41225  0.5045899473470981  1.0000
  Cu  Cu7       1.0  0.37404408499999997  0.5067870600000001  0.47739244535572994  1.0000
  Cu  Cu8       1.0  0.37404408499999997  0.84012039  0.450575580836226  1.0000
  Cu  Cu9       1.0  0.374656095  0.15914788000000007  0.5048251912998911  1.0000
  Cu  Cu10      1.0  0.374894005  0.91406445  0.5047189418184902  1.0000
  Cu  Cu11      1.0  0.37404408499999997  0.25678706000000007  0.47739244535572994  1.0000
  Cu  Cu12      1.0  0.37404408499999997  0.59012039  0.45057558083622606  1.0000
  Cu  Cu13      1.0  0.12392754500000001  0.7541989400000001  0.516942906520085  1.0000
  Cu  Cu14      1.0  0.12399607500000001  0.08417346000000005  0.49054674708285595  1.0000
  Cu  Cu15      1.0  0.12404408500000001  0.4234537300000001  0.463984013095978  1.0000
  Cu  Cu16      1.0  0.12396991500000003  0.8373122000000001  0.49060467150558407  1.0000
  Cu  Cu17      1.0  0.12404408500000001  0.17345373000000006  0.463984013095978  1.0000
  Cu  Cu18      1.0  0.12289312500000002  0.4979472300000001  0.5184909270634251  1.0000
  Si  Si1       1.0  0.12404408500000001  0.6734537300000001  0.463984013095978  1.0000
  Si  Si2       1.0  0.12414414500000001  0.9932129399999999  0.5166471283275176  1.0000
  Si  Si3       1.0  0.12398257500000001  0.33223050000000004  0.4911520444282714  1.0000
  Si  Si4       1.0  0.370596365  0.6591241600000001  0.5057504277581987  1.0000
  Si  Si5       1.0  0.37404408499999997  0.00678706000000005  0.47739244535572994  1.0000
  Si  Si6       1.0  0.37404408499999997  0.34012039000000005  0.45057558083622606  1.0000
  Cu  Cu19      1.0  0.6238103349999999  0.58789179  0.4897564616574111  1.0000
  Cu  Cu20      1.0  0.624044085  0.9234537300000001  0.4639840130959779  1.0000
  Cu  Cu21      1.0  0.6236957249999999  0.23877313000000006  0.5166777800012112  1.0000
  Cu  Cu22      1.0  0.874044085  0.7567870600000001  0.47739244535572994  1.0000
  Cu  Cu23      1.0  0.874044085  0.09012039000000005  0.45057558083622606  1.0000
  Cu  Cu24      1.0  0.875579755  0.4123945500000001  0.504608846799025  1.0000
  Cu  Cu25      1.0  0.874044085  0.5067870600000001  0.47739244535572994  1.0000
  Cu  Cu26      1.0  0.874044085  0.84012039  0.450575580836226  1.0000
  Cu  Cu27      1.0  0.873153455  0.15890093000000005  0.504847582307299  1.0000
  Cu  Cu28      1.0  0.873015495  0.91445489  0.5047243223537569  1.0000
  Cu  Cu29      1.0  0.874044085  0.25678706000000007  0.47739244535572994  1.0000
  Cu  Cu30      1.0  0.874044085  0.59012039  0.45057558083622606  1.0000
  Cu  Cu31      1.0  0.6241364349999999  0.7521404100000001  0.5168487439348934  1.0000
  Cu  Cu32      1.0  0.624264295  0.08257260000000005  0.49070045597461215  1.0000
  Cu  Cu33      1.0  0.624044085  0.4234537300000001  0.463984013095978  1.0000
  Cu  Cu34      1.0  0.624324625  0.8344559400000002  0.4907908663444203  1.0000
  Cu  Cu35      1.0  0.624044085  0.17345373000000006  0.463984013095978  1.0000
  Cu  Cu36      1.0  0.6236415449999999  0.5074811600000001  0.5157711405006229  1.0000
  Si  Si7       1.0  0.624044085  0.6734537300000001  0.463984013095978  1.0000
  Si  Si8       1.0  0.623989425  0.9922192900000001  0.5167136094746921  1.0000
  Si  Si9       1.0  0.624010135  0.33265170000000005  0.4912666028463103  1.0000
  Si  Si10      1.0  0.877106875  0.6584964200000001  0.5058215653853558  1.0000
  Si  Si11      1.0  0.874044085  0.00678706000000005  0.47739244535572994  1.0000
  Si  Si12      1.0  0.874044085  0.34012039000000005  0.45057558083622606  1.0000
