data_image0
_chemical_formula_structural       COV3Si6V3Si6
_chemical_formula_sum              "C1 O1 V6 Si12"
_cell_length_a       4.58276419
_cell_length_b       4.582764194150977
_cell_length_c       108.38181915999999
_cell_angle_alpha    90.0
_cell_angle_beta     90.0
_cell_angle_gamma    120.00000004221997

_space_group_name_H-M_alt    "P 1"
_space_group_IT_number       1

loop_
  _space_group_symop_operation_xyz
  'x, y, z'

loop_
  _atom_site_type_symbol
  _atom_site_label
  _atom_site_symmetry_multiplicity
  _atom_site_fract_x
  _atom_site_fract_y
  _atom_site_fract_z
  _atom_site_occupancy
  C   C1        1.0  4.5999999993851466e-07  0.580938305  0.5527812513552866  1.0000
  O   O1        1.0  7.400000000085261e-07  0.5809385850000001  0.5635743366361137  1.0000
  V   V1        1.0  5.0000000003849875e-08  0.5809379450000001  0.47577402053060935  1.0000
  V   V2        1.0  0.5000000499999999  0.5809379450000001  0.4560998437179239  1.0000
  V   V3        1.0  0.5000000499999999  0.08093794500000003  0.4364256633638862  1.0000
  Si  Si1       1.0  0.8371523399999999  0.7552425150000001  0.4364256633638862  1.0000
  Si  Si2       1.0  0.16284775999999995  0.9180902350000001  0.4560998437179239  1.0000
  Si  Si3       1.0  0.67430462  0.9180902350000001  0.47577402053060935  1.0000
  Si  Si4       1.0  0.16284775999999992  0.406633375  0.4364256633638862  1.0000
  Si  Si5       1.0  0.8371523399999999  0.24378565500000002  0.4560998437179239  1.0000
  Si  Si6       1.0  0.3256954799999999  0.24378565500000002  0.47577402053060935  1.0000
  V   V4        1.0  0.9999999500000001  0.5809378650000001  0.5344659267877495  1.0000
  V   V5        1.0  0.5000000099999999  0.580937875  0.5148845688157128  1.0000
  V   V6        1.0  0.5000000499999999  0.08093794500000003  0.4954482008846469  1.0000
  Si  Si7       1.0  0.8371523399999999  0.7552425150000001  0.4954482008846469  1.0000
  Si  Si8       1.0  0.16255475999999996  0.919062055  0.5152737103000582  1.0000
  Si  Si9       1.0  0.66229661  0.912877665  0.5352876444409329  1.0000
  Si  Si10      1.0  0.16284775999999992  0.406633375  0.4954482008846469  1.0000
  Si  Si11      1.0  0.8374452199999999  0.24281364500000002  0.5152737103000582  1.0000
  Si  Si12      1.0  0.33770328  0.24899806500000005  0.5352876444409329  1.0000
