data_image0
_chemical_formula_structural       CONi4Sb4Ni4Sb4Ni4Sb4Ni4Sb4
_chemical_formula_sum              "C1 O1 Ni16 Sb16"
_cell_length_a       6.563430046376214
_cell_length_b       8.011988261801832
_cell_length_c       109.38058027
_cell_angle_alpha    72.23128632477865
_cell_angle_beta     104.77026953474699
_cell_angle_gamma    72.23128628507692

_space_group_name_H-M_alt    "P 1"
_space_group_IT_number       1

loop_
  _space_group_symop_operation_xyz
  'x, y, z'

loop_
  _atom_site_type_symbol
  _atom_site_label
  _atom_site_symmetry_multiplicity
  _atom_site_fract_x
  _atom_site_fract_y
  _atom_site_fract_z
  _atom_site_occupancy
  C   C1        1.0  0.47847741  0.15407608999999994  0.5558933678956951  1.0000
  O   O1        1.0  0.5286253299999999  0.09098082999999994  0.5679093208065906  1.0000
  Ni  Ni1       1.0  0.14854103  0.25424139  0.49209611860743807  1.0000
  Ni  Ni2       1.0  0.6457747899999999  0.25135641  0.522459897058393  1.0000
  Ni  Ni3       1.0  0.38558826  0.2556578199999999  0.5374341338521458  1.0000
  Ni  Ni4       1.0  0.8985410300000001  0.25424138999999996  0.5070974802611086  1.0000
  Sb  Sb1       1.0  0.10145896999999998  0.07909193999999997  0.5342375371570144  1.0000
  Sb  Sb2       1.0  0.6068743600000001  0.0875747199999999  0.5045972515186669  1.0000
  Sb  Sb3       1.0  0.19020769999999998  0.4209080599999999  0.5095977054032236  1.0000
  Sb  Sb4       1.0  0.6770301499999999  0.4323009399999999  0.5393674839851152  1.0000
  Ni  Ni5       1.0  0.14854103  0.25424139  0.43209067919340927  1.0000
  Ni  Ni6       1.0  0.64854103  0.25424138999999996  0.4620933989004237  1.0000
  Ni  Ni7       1.0  0.39854102999999996  0.25424139  0.4770947605540941  1.0000
  Ni  Ni8       1.0  0.8985410300000001  0.25424138999999996  0.4470920372467532  1.0000
  Sb  Sb5       1.0  0.10687435999999997  0.08757471999999994  0.47459453181165245  1.0000
  Sb  Sb6       1.0  0.6068743600000001  0.0875747199999999  0.44459181210463805  1.0000
  Sb  Sb7       1.0  0.19020769999999998  0.4209080599999999  0.4495922659891949  1.0000
  Sb  Sb8       1.0  0.6902077  0.4209080599999999  0.4795949856962093  1.0000
  Ni  Ni9       1.0  0.14854103  0.75424139  0.492096118607438  1.0000
  Ni  Ni10      1.0  0.6441977600000001  0.7580676199999999  0.5212694058943221  1.0000
  Ni  Ni11      1.0  0.38009382999999997  0.76394667  0.5353780485884894  1.0000
  Ni  Ni12      1.0  0.8985410300000001  0.7542413899999998  0.5070974802611085  1.0000
  Sb  Sb9       1.0  0.10186865999999999  0.59902679  0.5343505766084129  1.0000
  Sb  Sb10      1.0  0.6068743600000001  0.58757472  0.5045972515186669  1.0000
  Sb  Sb11      1.0  0.19020769999999998  0.9209080599999999  0.5095977054032237  1.0000
  Sb  Sb12      1.0  0.68008686  0.9127386699999998  0.5396382537408666  1.0000
  Ni  Ni13      1.0  0.14854103  0.75424139  0.43209067919340927  1.0000
  Ni  Ni14      1.0  0.64854103  0.75424139  0.46209339890042367  1.0000
  Ni  Ni15      1.0  0.39854102999999996  0.75424139  0.4770947605540941  1.0000
  Ni  Ni16      1.0  0.8985410300000001  0.7542413899999998  0.44709203724675317  1.0000
  Sb  Sb13      1.0  0.10687435999999997  0.58757472  0.47459453181165245  1.0000
  Sb  Sb14      1.0  0.6068743600000001  0.58757472  0.44459181210463805  1.0000
  Sb  Sb15      1.0  0.19020769999999998  0.9209080599999999  0.4495922659891949  1.0000
  Sb  Sb16      1.0  0.6902077  0.92090806  0.4795949856962093  1.0000
