data_image0
_chemical_formula_structural       COAg12In4
_chemical_formula_sum              "C1 O1 Ag12 In4"
_cell_length_a       7.445410314403715
_cell_length_b       6.07915207
_cell_length_c       98.18786852
_cell_angle_alpha    90.0
_cell_angle_beta     84.94884744052628
_cell_angle_gamma    90.0

_space_group_name_H-M_alt    "P 1"
_space_group_IT_number       1

loop_
  _space_group_symop_operation_xyz
  'x, y, z'

loop_
  _atom_site_type_symbol
  _atom_site_label
  _atom_site_symmetry_multiplicity
  _atom_site_fract_x
  _atom_site_fract_y
  _atom_site_fract_z
  _atom_site_occupancy
  C   C1        1.0  0.17681215500000005  0.275729905  0.537210460669126  1.0000
  O   O1        1.0  0.25659480500000004  0.238998945  0.546549652463922  1.0000
  Ag  Ag1       1.0  0.5063337250000001  0.123536865  0.5063143272710892  1.0000
  Ag  Ag2       1.0  0.158732005  0.614043705  0.48904467009610775  1.0000
  Ag  Ag3       1.0  0.8412679949999999  0.126463135  0.47139290815028617  1.0000
  Ag  Ag4       1.0  0.528767995  0.6264631350000001  0.453450347536078  1.0000
  Ag  Ag5       1.0  0.8333776850000001  0.871270645  0.4995579943494005  1.0000
  Ag  Ag6       1.0  0.497517995  0.37646313499999995  0.4803641884573902  1.0000
  Ag  Ag7       1.0  0.18501799500000007  0.8764631350000001  0.462421627843182  1.0000
  Ag  Ag8       1.0  0.17540060500000004  0.379491095  0.5155175632601943  1.0000
  Ag  Ag9       1.0  0.833686585  0.37389861500000005  0.499759766338234  1.0000
  Ag  Ag10      1.0  0.497517995  0.8764631350000001  0.4803641884573902  1.0000
  Ag  Ag11      1.0  0.18501799500000007  0.37646313499999995  0.462421627843182  1.0000
  Ag  Ag12      1.0  0.17369916500000007  0.860325505  0.5134939696952172  1.0000
  In  In1       1.0  0.528767995  0.126463135  0.453450347536078  1.0000
  In  In2       1.0  0.5140869650000001  0.623456075  0.5094621327847197  1.0000
  In  In3       1.0  0.15928417500000003  0.12449458499999999  0.48894850371283494  1.0000
  In  In4       1.0  0.8412679949999999  0.6264631350000001  0.47139290815028617  1.0000
