data_image0
_chemical_formula_structural       COGa12Pt8Ga12Pt8
_chemical_formula_sum              "C1 O1 Ga24 Pt16"
_cell_length_a       6.880069360095591
_cell_length_b       7.47149323
_cell_length_c       104.40034681
_cell_angle_alpha    90.0
_cell_angle_beta     102.34461699137142
_cell_angle_gamma    90.0

_space_group_name_H-M_alt    "P 1"
_space_group_IT_number       1

loop_
  _space_group_symop_operation_xyz
  'x, y, z'

loop_
  _atom_site_type_symbol
  _atom_site_label
  _atom_site_symmetry_multiplicity
  _atom_site_fract_x
  _atom_site_fract_y
  _atom_site_fract_z
  _atom_site_occupancy
  C   C1        1.0  0.7042289500000001  0.852452745  0.5640157667109664  1.0000
  O   O1        1.0  0.6940155100000001  0.824759105  0.5748700648335391  1.0000
  Ga  Ga1       1.0  0.5322102  0.077790735  0.5243033408729193  1.0000
  Ga  Ga2       1.0  0.029968320000000055  0.083415365  0.4910307637769364  1.0000
  Ga  Ga3       1.0  0.27996832000000005  0.583415365  0.5075059709295553  1.0000
  Ga  Ga4       1.0  0.78854998  0.562653305  0.5397964609271706  1.0000
  Ga  Ga5       1.0  0.20641035000000002  0.397423405  0.5454171755497723  1.0000
  Ga  Ga6       1.0  0.70818462  0.416748695  0.5122365762402811  1.0000
  Ga  Ga7       1.0  0.97003168  0.922209265  0.5294274598015268  1.0000
  Ga  Ga8       1.0  0.45818462  0.916748695  0.4957613690876622  1.0000
  Ga  Ga9       1.0  0.58574825  0.22580211500000003  0.5519561226628595  1.0000
  Ga  Ga10      1.0  0.10175202000000005  0.250082035  0.5192505727714484  1.0000
  Ga  Ga11      1.0  0.36900271  0.739705805  0.5361991159206033  1.0000
  Ga  Ga12      1.0  0.85175202  0.7500820350000001  0.5027753656188296  1.0000
  Pt  Pt1       1.0  0.44656777000000003  0.411218915  0.5287899747260462  1.0000
  Pt  Pt2       1.0  0.94714283  0.416748695  0.496489029561972  1.0000
  Pt  Pt3       1.0  0.19714283000000007  0.916748695  0.5129642367145908  1.0000
  Pt  Pt4       1.0  0.71154751  0.8915377450000002  0.5463293781144399  1.0000
  Pt  Pt5       1.0  0.3627938  0.250082035  0.5020477018494783  1.0000
  Pt  Pt6       1.0  0.86569488  0.23822708500000003  0.5357116705566618  1.0000
  Pt  Pt7       1.0  0.10367475000000005  0.718645045  0.548685329442223  1.0000
  Pt  Pt8       1.0  0.6127938  0.7500820350000001  0.5185229090020972  1.0000
  Ga  Ga13      1.0  0.52996832  0.083415365  0.4580803494716988  1.0000
  Ga  Ga14      1.0  0.029968320000000055  0.083415365  0.4251299351664611  1.0000
  Ga  Ga15      1.0  0.27996832000000005  0.583415365  0.44160514231907994  1.0000
  Ga  Ga16      1.0  0.7799683200000002  0.583415365  0.47455555662431764  1.0000
  Ga  Ga17      1.0  0.20818462000000007  0.416748695  0.4792861619350434  1.0000
  Ga  Ga18      1.0  0.70818462  0.416748695  0.4463357476298057  1.0000
  Ga  Ga19      1.0  0.95818462  0.916748695  0.4628109547824245  1.0000
  Ga  Ga20      1.0  0.45818462  0.916748695  0.4298605404771868  1.0000
  Ga  Ga21      1.0  0.60175202  0.250082035  0.48630015846621066  1.0000
  Ga  Ga22      1.0  0.10175202000000005  0.250082035  0.45334974416097296  1.0000
  Ga  Ga23      1.0  0.35175202000000005  0.7500820350000001  0.46982495131359175  1.0000
  Ga  Ga24      1.0  0.85175202  0.7500820350000001  0.4368745370083542  1.0000
  Pt  Pt9       1.0  0.44714283000000005  0.416748695  0.4635386152567343  1.0000
  Pt  Pt10      1.0  0.94714283  0.416748695  0.4305882009514966  1.0000
  Pt  Pt11      1.0  0.19714283000000007  0.916748695  0.44706340810411543  1.0000
  Pt  Pt12      1.0  0.69714283  0.916748695  0.48001382240935303  1.0000
  Pt  Pt13      1.0  0.3627938  0.250082035  0.4361468732390029  1.0000
  Pt  Pt14      1.0  0.8627938  0.250082035  0.4690972875442406  1.0000
  Pt  Pt15      1.0  0.11279380000000003  0.7500820350000001  0.48557249469685954  1.0000
  Pt  Pt16      1.0  0.6127938  0.7500820350000001  0.45262208039162183  1.0000
