data_image0
_chemical_formula_structural       COGa3As3Pd15Ga3As3Pd15
_chemical_formula_sum              "C1 O1 Ga6 As6 Pd30"
_cell_length_a       7.02665741
_cell_length_b       8.984463821082429
_cell_length_c       104.09364307999999
_cell_angle_alpha    71.56505119724449
_cell_angle_beta     90.0
_cell_angle_gamma    90.0

_space_group_name_H-M_alt    "P 1"
_space_group_IT_number       1

loop_
  _space_group_symop_operation_xyz
  'x, y, z'

loop_
  _atom_site_type_symbol
  _atom_site_label
  _atom_site_symmetry_multiplicity
  _atom_site_fract_x
  _atom_site_fract_y
  _atom_site_fract_z
  _atom_site_occupancy
  C   C1        1.0  5.310000000029348e-06  0.9522317999999997  0.5537285480900775  1.0000
  O   O1        1.0  3.910000000029348e-06  0.92828011  0.5653974415540324  1.0000
  Ga  Ga1       1.0  3.620000000029348e-06  0.66898369  0.43460255844596757  1.0000
  Ga  Ga2       1.0  3.620000000029348e-06  0.33565035  0.4709946224997854  1.0000
  Ga  Ga3       1.0  3.620000000029348e-06  0.00231702000000003  0.4527985888352336  1.0000
  As  As1       1.0  0.50000362  0.66898369  0.46189660566750956  1.0000
  As  As2       1.0  0.50000362  0.33565035  0.44370057200295765  1.0000
  As  As3       1.0  0.50000362  0.00231702000000003  0.48009263605677555  1.0000
  Pd  Pd1       1.0  0.72030013  0.50231702  0.4527985888352336  1.0000
  Pd  Pd2       1.0  0.72030013  0.16898369000000002  0.43460255844596757  1.0000
  Pd  Pd3       1.0  0.72030013  0.83565035  0.4709946224997854  1.0000
  Pd  Pd4       1.0  0.27970711000000004  0.50231702  0.4527985888352336  1.0000
  Pd  Pd5       1.0  0.27970711000000004  0.16898369000000002  0.43460255844596757  1.0000
  Pd  Pd6       1.0  0.27970711000000004  0.83565035  0.4709946224997854  1.0000
  Pd  Pd7       1.0  0.72030013  0.83565035  0.44370057200295765  1.0000
  Pd  Pd8       1.0  0.72030013  0.50231702  0.48009263605677555  1.0000
  Pd  Pd9       1.0  0.72030013  0.16898369000000002  0.4618966056675095  1.0000
  Pd  Pd10      1.0  0.27970711000000004  0.83565035  0.44370057200295765  1.0000
  Pd  Pd11      1.0  0.27970711000000004  0.50231702  0.48009263605677555  1.0000
  Pd  Pd12      1.0  0.27970711000000004  0.16898369000000002  0.4618966056675095  1.0000
  Pd  Pd13      1.0  3.620000000029348e-06  0.66898369  0.46189660566750956  1.0000
  Pd  Pd14      1.0  3.620000000029348e-06  0.33565035  0.44370057200295765  1.0000
  Pd  Pd15      1.0  3.620000000029348e-06  0.00231702000000003  0.48009263605677555  1.0000
  Ga  Ga4       1.0  3.620000000029348e-06  0.66898369  0.4891906528890515  1.0000
  Ga  Ga5       1.0  3.000000002934837e-08  0.33439206  0.5240167995277527  1.0000
  Ga  Ga6       1.0  3.399999999320613e-07  0.9976829799999999  0.5078233116279951  1.0000
  As  As4       1.0  0.50000079  0.6492061100000002  0.5185726718795607  1.0000
  As  As5       1.0  0.50000362  0.33565035  0.49828866972132746  1.0000
  As  As6       1.0  0.49999758  0.9973283999999999  0.5340925481257556  1.0000
  Pd  Pd16      1.0  0.7180012100000001  0.5030923000000002  0.5070680733017848  1.0000
  Pd  Pd17      1.0  0.72030013  0.16898369000000002  0.4891906528890515  1.0000
  Pd  Pd18      1.0  0.71208157  0.83203271  0.5257013641708874  1.0000
  Pd  Pd19      1.0  0.28200619000000005  0.50309411  0.5070679946949256  1.0000
  Pd  Pd20      1.0  0.27970711000000004  0.16898369000000002  0.4891906528890515  1.0000
  Pd  Pd21      1.0  0.28792415  0.8320339900000001  0.5257014296766034  1.0000
  Pd  Pd22      1.0  0.72030013  0.83565035  0.49828866972132746  1.0000
  Pd  Pd23      1.0  0.75948495  0.49033868  0.5337261812070081  1.0000
  Pd  Pd24      1.0  0.71452197  0.1683813  0.5167778742176221  1.0000
  Pd  Pd25      1.0  0.27970711000000004  0.83565035  0.49828866972132746  1.0000
  Pd  Pd26      1.0  0.24055232000000004  0.49034587  0.5337283625473492  1.0000
  Pd  Pd27      1.0  0.28548351  0.16837647000000003  0.5167783360329196  1.0000
  Pd  Pd28      1.0  6.1400000000293485e-06  0.67952125  0.5151325376724853  1.0000
  Pd  Pd29      1.0  3.620000000029348e-06  0.33565035  0.49828866972132746  1.0000
  Pd  Pd30      1.0  0.9999996600000001  0.01004781000000003  0.5341774992134879  1.0000
