data_image0
_chemical_formula_structural       COSn16Pt4
_chemical_formula_sum              "C1 O1 Sn16 Pt4"
_cell_length_a       6.58558482
_cell_length_b       6.57030638
_cell_length_c       105.00935679
_cell_angle_alpha    90.0
_cell_angle_beta     90.0
_cell_angle_gamma    90.0

_space_group_name_H-M_alt    "P 1"
_space_group_IT_number       1

loop_
  _space_group_symop_operation_xyz
  'x, y, z'

loop_
  _atom_site_type_symbol
  _atom_site_label
  _atom_site_symmetry_multiplicity
  _atom_site_fract_x
  _atom_site_fract_y
  _atom_site_fract_z
  _atom_site_occupancy
  C   C1        1.0  0.54137763  0.67012881  0.5513926269809197  1.0000
  O   O1        1.0  0.51579047  0.71595684  0.5620182135487339  1.0000
  Sn  Sn1       1.0  0.42731885000000003  0.92442161  0.5208038567675009  1.0000
  Sn  Sn2       1.0  0.7494289700000002  0.90895259  0.43798178645126606  1.0000
  Sn  Sn3       1.0  0.91685701  0.40895259000000006  0.43798178645126606  1.0000
  Sn  Sn4       1.0  0.2628163500000001  0.43401508  0.5210419791954259  1.0000
  Sn  Sn5       1.0  0.9101560800000001  0.75178981  0.5210640497945644  1.0000
  Sn  Sn6       1.0  0.24942897000000006  0.7422041900000002  0.43798178645126606  1.0000
  Sn  Sn7       1.0  0.74418278  0.27721898000000006  0.5209677593044864  1.0000
  Sn  Sn8       1.0  0.4168570100000001  0.24220419  0.43798178645126606  1.0000
  Sn  Sn9       1.0  0.91685701  0.90895259  0.46567503408267025  1.0000
  Sn  Sn10      1.0  0.24942897000000006  0.90895259  0.49354724026702806  1.0000
  Sn  Sn11      1.0  0.4168570100000001  0.40895259000000006  0.49354724026702806  1.0000
  Sn  Sn12      1.0  0.7494289700000002  0.40895259000000006  0.46567503408267025  1.0000
  Sn  Sn13      1.0  0.4168570100000001  0.7422041900000002  0.46567503408267025  1.0000
  Sn  Sn14      1.0  0.7494289700000002  0.7422041900000002  0.49354724026702806  1.0000
  Sn  Sn15      1.0  0.24942897000000006  0.24220419  0.46567503408267025  1.0000
  Sn  Sn16      1.0  0.91685701  0.24220419  0.49354724026702806  1.0000
  Pt  Pt1       1.0  0.08357883000000005  0.09484711000000001  0.5281961772418622  1.0000
  Pt  Pt2       1.0  0.58400306  0.59869824  0.5339871557273445  1.0000
  Pt  Pt3       1.0  0.58314299  0.07557839000000002  0.4796111371748491  1.0000
  Pt  Pt4       1.0  0.08314299000000006  0.57557839  0.4796111371748491  1.0000
