data_image0
_chemical_formula_structural       COSi2Pt4Si2Pt4Si2Pt4Si2Pt4Si2Pt4Si2Pt4Si2Pt4Si2Pt4
_chemical_formula_sum              "C1 O1 Si16 Pt32"
_cell_length_a       7.99567274
_cell_length_b       7.99567274
_cell_length_c       106.06701561
_cell_angle_alpha    90.0
_cell_angle_beta     90.0
_cell_angle_gamma    90.0

_space_group_name_H-M_alt    "P 1"
_space_group_IT_number       1

loop_
  _space_group_symop_operation_xyz
  'x, y, z'

loop_
  _atom_site_type_symbol
  _atom_site_label
  _atom_site_symmetry_multiplicity
  _atom_site_fract_x
  _atom_site_fract_y
  _atom_site_fract_z
  _atom_site_occupancy
  C   C1        1.0  0.2733526549999999  0.5222635149999999  0.5511980013168949  1.0000
  O   O1        1.0  0.29204154499999996  0.540952405  0.562191079295724  1.0000
  Si  Si1       1.0  0.3747258049999999  0.12363666499999995  0.49448223572106986  1.0000
  Si  Si2       1.0  0.12244471499999995  0.371355585  0.5232863375560421  1.0000
  Pt  Pt1       1.0  0.37178911499999995  0.373912845  0.5373812865535242  1.0000
  Pt  Pt2       1.0  0.12282937499999995  0.12321109499999995  0.5364306030477942  1.0000
  Pt  Pt3       1.0  0.12472580499999995  0.12363666499999995  0.5086505619249693  1.0000
  Pt  Pt4       1.0  0.3747258049999999  0.373636665  0.5086505619249693  1.0000
  Si  Si3       1.0  0.3747258049999999  0.12363666499999995  0.43780892070427607  1.0000
  Si  Si4       1.0  0.12472580499999995  0.373636665  0.46614557651247357  1.0000
  Pt  Pt5       1.0  0.3747258049999999  0.373636665  0.4803139061167717  1.0000
  Pt  Pt6       1.0  0.12472580499999995  0.12363666499999995  0.4803139061167717  1.0000
  Pt  Pt7       1.0  0.12472580499999995  0.12363666499999995  0.4519772503085742  1.0000
  Pt  Pt8       1.0  0.3747258049999999  0.373636665  0.4519772503085742  1.0000
  Si  Si5       1.0  0.3747258049999999  0.6236366649999999  0.49448223572106986  1.0000
  Si  Si6       1.0  0.12639437499999995  0.8761304749999999  0.5234000332914224  1.0000
  Pt  Pt9       1.0  0.374935655  0.876788905  0.5362647451943158  1.0000
  Pt  Pt10      1.0  0.12500194499999995  0.6206999849999999  0.5373812865535242  1.0000
  Pt  Pt11      1.0  0.12472580499999995  0.6236366649999999  0.5086505619249693  1.0000
  Pt  Pt12      1.0  0.3747258049999999  0.8736366649999999  0.5086505619249693  1.0000
  Si  Si7       1.0  0.3747258049999999  0.6236366649999999  0.43780892070427607  1.0000
  Si  Si8       1.0  0.12472580499999995  0.8736366649999999  0.46614557651247357  1.0000
  Pt  Pt13      1.0  0.3747258049999999  0.8736366649999999  0.4803139061167717  1.0000
  Pt  Pt14      1.0  0.12472580499999995  0.6236366649999999  0.4803139061167717  1.0000
  Pt  Pt15      1.0  0.12472580499999995  0.6236366649999999  0.4519772503085742  1.0000
  Pt  Pt16      1.0  0.3747258049999999  0.8736366649999999  0.4519772503085742  1.0000
  Si  Si9       1.0  0.8747258049999999  0.12363666499999995  0.49448223572106986  1.0000
  Si  Si10      1.0  0.627219625  0.3753052249999999  0.5234000332914224  1.0000
  Pt  Pt17      1.0  0.8743002349999999  0.371740205  0.5364306030477942  1.0000
  Pt  Pt18      1.0  0.621686785  0.12646613499999998  0.5362067479918202  1.0000
  Pt  Pt19      1.0  0.6247258049999999  0.12363666499999995  0.5086505619249693  1.0000
  Pt  Pt20      1.0  0.8747258049999999  0.373636665  0.5086505619249693  1.0000
  Si  Si11      1.0  0.8747258049999999  0.12363666499999995  0.43780892070427607  1.0000
  Si  Si12      1.0  0.6247258049999999  0.373636665  0.46614557651247357  1.0000
  Pt  Pt21      1.0  0.8747258049999999  0.373636665  0.4803139061167717  1.0000
  Pt  Pt22      1.0  0.6247258049999999  0.12363666499999995  0.4803139061167717  1.0000
  Pt  Pt23      1.0  0.6247258049999999  0.12363666499999995  0.4519772503085742  1.0000
  Pt  Pt24      1.0  0.8747258049999999  0.373636665  0.4519772503085742  1.0000
  Si  Si13      1.0  0.8747258049999999  0.6236366649999999  0.49448223572106986  1.0000
  Si  Si14      1.0  0.6256251849999999  0.8745360349999999  0.5235420985542663  1.0000
  Pt  Pt25      1.0  0.877555285  0.8705976649999998  0.5362067479918202  1.0000
  Pt  Pt26      1.0  0.6278780749999999  0.6238465149999999  0.5362647451943158  1.0000
  Pt  Pt27      1.0  0.6247258049999999  0.6236366649999999  0.5086505619249693  1.0000
  Pt  Pt28      1.0  0.8747258049999999  0.8736366649999999  0.5086505619249693  1.0000
  Si  Si15      1.0  0.8747258049999999  0.6236366649999999  0.43780892070427607  1.0000
  Si  Si16      1.0  0.6247258049999999  0.8736366649999999  0.46614557651247357  1.0000
  Pt  Pt29      1.0  0.8747258049999999  0.8736366649999999  0.4803139061167717  1.0000
  Pt  Pt30      1.0  0.6247258049999999  0.6236366649999999  0.4803139061167717  1.0000
  Pt  Pt31      1.0  0.6247258049999999  0.6236366649999999  0.4519772503085742  1.0000
  Pt  Pt32      1.0  0.8747258049999999  0.8736366649999999  0.4519772503085742  1.0000
