data_image0
_chemical_formula_structural       COSi16Ni32
_chemical_formula_sum              "C1 O1 Si16 Ni32"
_cell_length_a       6.286497998500117
_cell_length_b       10.380986805286076
_cell_length_c       108.03994363000001
_cell_angle_alpha    76.8275825568959
_cell_angle_beta     79.30242481434675
_cell_angle_gamma    64.18112745995892

_space_group_name_H-M_alt    "P 1"
_space_group_IT_number       1

loop_
  _space_group_symop_operation_xyz
  'x, y, z'

loop_
  _atom_site_type_symbol
  _atom_site_label
  _atom_site_symmetry_multiplicity
  _atom_site_fract_x
  _atom_site_fract_y
  _atom_site_fract_z
  _atom_site_occupancy
  C   C1        1.0  0.03307403500000002  0.27418998999999994  0.5405328169262603  1.0000
  O   O1        1.0  0.016278164999999997  0.2483820999999999  0.5516634320633985  1.0000
  Si  Si1       1.0  0.830048885  0.9434490699999999  0.5263983544547125  1.0000
  Si  Si2       1.0  0.599935315  0.6830296399999999  0.4620041324595332  1.0000
  Si  Si3       1.0  0.10491568500000001  0.17855949999999993  0.5070056205081814  1.0000
  Si  Si4       1.0  0.349935315  0.43302963999999994  0.48400984994692026  1.0000
  Si  Si5       1.0  0.6767809549999999  0.5669703599999999  0.4923480029113755  1.0000
  Si  Si6       1.0  0.439123375  0.31813666999999995  0.5153305383539111  1.0000
  Si  Si7       1.0  0.9267809549999999  0.8169703599999999  0.4703422854239884  1.0000
  Si  Si8       1.0  0.176780955  0.06697035999999992  0.44833656793660137  1.0000
  Si  Si9       1.0  0.6054638949999999  0.92872533  0.505249599461836  1.0000
  Si  Si10      1.0  0.37978786500000006  0.6742877799999999  0.5264975773546344  1.0000
  Si  Si11      1.0  0.8606014049999999  0.17236354999999995  0.48307099097420875  1.0000
  Si  Si12      1.0  0.11060140500000004  0.4223635499999999  0.4610652734868218  1.0000
  Si  Si13      1.0  0.906445255  0.5803515799999999  0.5161660936864497  1.0000
  Si  Si14      1.0  0.666114865  0.32763644999999997  0.4492754269093128  1.0000
  Si  Si15      1.0  0.16611486500000008  0.8276364499999999  0.49328686188408694  1.0000
  Si  Si16      1.0  0.41611486500000006  0.07763644999999993  0.4712811443967  1.0000
  Ni  Ni1       1.0  0.31566404500000006  0.5509568899999999  0.5014280936048059  1.0000
  Ni  Ni2       1.0  0.060349335  0.31894317999999994  0.523655537180681  1.0000
  Ni  Ni3       1.0  0.5669507250000001  0.8005243499999999  0.47978517822003247  1.0000
  Ni  Ni4       1.0  0.8169507250000001  0.05052434999999993  0.4577794607326455  1.0000
  Ni  Ni5       1.0  0.2123990449999999  0.93961383  0.518874997509147  1.0000
  Ni  Ni6       1.0  0.959765545  0.6994756499999999  0.45256123966348927  1.0000
  Ni  Ni7       1.0  0.45976554500000005  0.19947564999999992  0.4965726746382632  1.0000
  Ni  Ni8       1.0  0.7097655449999999  0.44947564999999995  0.47456695715087616  1.0000
  Ni  Ni9       1.0  0.8971163649999999  0.7203587099999998  0.49473448600327724  1.0000
  Ni  Ni10      1.0  0.6465445949999999  0.4749503799999999  0.5159445260391275  1.0000
  Ni  Ni11      1.0  0.14711636499999997  0.97035871  0.4727287685158903  1.0000
  Ni  Ni12      1.0  0.3971163650000001  0.22035870999999996  0.45072305102850313  1.0000
  Ni  Ni13      1.0  0.6403566350000001  0.7882759599999999  0.5250043362633215  1.0000
  Ni  Ni14      1.0  0.37959990500000007  0.5296412899999999  0.45961764936763144  1.0000
  Ni  Ni15      1.0  0.886101375  0.02966035999999993  0.5032444525680444  1.0000
  Ni  Ni16      1.0  0.129599905  0.27964128999999993  0.4816233668550185  1.0000
  Ni  Ni17      1.0  0.050659255000000056  0.7607284999999999  0.5147032979453949  1.0000
  Ni  Ni18      1.0  0.792994435  0.5101191699999998  0.44855760040487436  1.0000
  Ni  Ni19      1.0  0.292994435  0.010119169999999933  0.49256903537964836  1.0000
  Ni  Ni20      1.0  0.5429944349999999  0.26011916999999996  0.4705633178922614  1.0000
  Ni  Ni21      1.0  0.483779585  0.7445770699999998  0.5050172120433395  1.0000
  Ni  Ni22      1.0  0.23323540500000012  0.5045692099999999  0.5266193904439002  1.0000
  Ni  Ni23      1.0  0.733721835  0.9898808300000002  0.48378881747864727  1.0000
  Ni  Ni24      1.0  0.983721835  0.23988082999999993  0.4617830999912603  1.0000
  Ni  Ni25      1.0  0.45761050500000006  0.08377820999999994  0.5202687093809506  1.0000
  Ni  Ni26      1.0  0.227988245  0.8251253599999999  0.45427963269338867  1.0000
  Ni  Ni27      1.0  0.7279882449999998  0.3251253599999999  0.4982910676681627  1.0000
  Ni  Ni28      1.0  0.9779882449999999  0.5751253599999999  0.4762853501807757  1.0000
  Ni  Ni29      1.0  0.04583233500000004  0.42476354999999993  0.5004396812772276  1.0000
  Ni  Ni30      1.0  0.8027287349999999  0.17870467999999992  0.5222789897685176  1.0000
  Ni  Ni31      1.0  0.298728025  0.6748746399999999  0.47806678519013296  1.0000
  Ni  Ni32      1.0  0.548728025  0.92487464  0.45606106770274596  1.0000
