data_image0
_chemical_formula_structural       COIn12Co4
_chemical_formula_sum              "C1 O1 In12 Co4"
_cell_length_a       6.95809694
_cell_length_b       6.95809694
_cell_length_c       98.8225892
_cell_angle_alpha    90.0
_cell_angle_beta     90.0
_cell_angle_gamma    90.0

_space_group_name_H-M_alt    "P 1"
_space_group_IT_number       1

loop_
  _space_group_symop_operation_xyz
  'x, y, z'

loop_
  _atom_site_type_symbol
  _atom_site_label
  _atom_site_symmetry_multiplicity
  _atom_site_fract_x
  _atom_site_fract_y
  _atom_site_fract_z
  _atom_site_occupancy
  C   C1        1.0  0.4040563999999999  0.7647333449999998  0.5348905158926781  1.0000
  O   O1        1.0  0.4368788799999999  0.7373923549999999  0.5461408163565502  1.0000
  In  In1       1.0  0.5843990199999999  0.07708447499999996  0.4538591836434498  1.0000
  In  In2       1.0  0.5858596399999999  0.09770603499999996  0.4924123094901043  1.0000
  In  In3       1.0  0.06349533  0.5757029149999999  0.492393036602096  1.0000
  In  In4       1.0  0.08439902000000002  0.5770844749999999  0.4538591836434498  1.0000
  In  In5       1.0  0.2398994  0.23301341499999995  0.5086437765243244  1.0000
  In  In6       1.0  0.73856797  0.4229155249999999  0.4716587894437883  1.0000
  In  In7       1.0  0.4302300699999999  0.731253425  0.4716587894437883  1.0000
  In  In8       1.0  0.48601765999999996  0.6752032149999998  0.504857470678502  1.0000
  In  In9       1.0  0.7819660700000001  0.379184865  0.5181394071154548  1.0000
  In  In10      1.0  0.92855908  0.921525855  0.5087111003853859  1.0000
  In  In11      1.0  0.23856797  0.23125342499999993  0.47251707169539625  1.0000
  In  In12      1.0  0.9302300699999999  0.922915525  0.47251707169539625  1.0000
  Co  Co1       1.0  0.433366  0.42605145499999997  0.4538591836434498  1.0000
  Co  Co2       1.0  0.9365046699999999  0.22538984499999995  0.48883818040832905  1.0000
  Co  Co3       1.0  0.24334705  0.918297255  0.4901737524648698  1.0000
  Co  Co4       1.0  0.7354320400000001  0.7281174949999999  0.4538591836434498  1.0000
