data_image0
_chemical_formula_structural       COPt12Sn12
_chemical_formula_sum              "C1 O1 Pt12 Sn12"
_cell_length_a       9.14922047399255
_cell_length_b       6.955391738929911
_cell_length_c       98.11269206
_cell_angle_alpha    86.0553556035402
_cell_angle_beta     89.06124460273323
_cell_angle_gamma    93.79692282500483

_space_group_name_H-M_alt    "P 1"
_space_group_IT_number       1

loop_
  _space_group_symop_operation_xyz
  'x, y, z'

loop_
  _atom_site_type_symbol
  _atom_site_label
  _atom_site_symmetry_multiplicity
  _atom_site_fract_x
  _atom_site_fract_y
  _atom_site_fract_z
  _atom_site_occupancy
  C   C1        1.0  0.39163155  0.861348115  0.5402232143528642  1.0000
  O   O1        1.0  0.38856307  0.8700313049999999  0.5521026369612494  1.0000
  Pt  Pt1       1.0  0.9053562299999999  0.872775545  0.5202907622893916  1.0000
  Pt  Pt2       1.0  0.5801949200000001  0.501376395  0.5084189041974295  1.0000
  Pt  Pt3       1.0  0.23444117  0.116179395  0.49602401423641834  1.0000
  Pt  Pt4       1.0  0.06829779000000001  0.42658730499999997  0.4888308955124412  1.0000
  Pt  Pt5       1.0  0.7358010899999999  0.186638205  0.5143266568524089  1.0000
  Pt  Pt6       1.0  0.4034934300000001  0.808070785  0.5019210877426445  1.0000
  Pt  Pt7       1.0  0.9016311199999999  0.7361111149999999  0.4820086386674859  1.0000
  Pt  Pt8       1.0  0.56829779  0.35515873499999995  0.4683641278429223  1.0000
  Pt  Pt9       1.0  0.23496445  0.9742063449999999  0.4547196198837058  1.0000
  Pt  Pt10      1.0  0.06829779000000001  0.28373015500000004  0.44789736303875044  1.0000
  Pt  Pt11      1.0  0.73496445  0.04563492500000001  0.47518638468787755  1.0000
  Pt  Pt12      1.0  0.40163112  0.664682535  0.4615418738633141  1.0000
  Sn  Sn1       1.0  0.9317022099999999  0.070016285  0.4959939452836372  1.0000
  Sn  Sn2       1.0  0.60672985  0.832802535  0.5223756748215144  1.0000
  Sn  Sn3       1.0  0.27581700000000003  0.441980455  0.5107016259686641  1.0000
  Sn  Sn4       1.0  0.8861035699999998  0.5374180749999999  0.5091595763730764  1.0000
  Sn  Sn5       1.0  0.5386395  0.17253185499999998  0.49419548150408993  1.0000
  Sn  Sn6       1.0  0.19278995  0.8743580249999999  0.5208908261506807  1.0000
  Sn  Sn7       1.0  0.9294088999999998  0.9226190449999999  0.4558566612585248  1.0000
  Sn  Sn8       1.0  0.59607557  0.6845238049999999  0.483145682907652  1.0000
  Sn  Sn9       1.0  0.26274222999999997  0.30357142499999995  0.46950117208308845  1.0000
  Sn  Sn10      1.0  0.8738533399999999  0.40674603500000006  0.46722708646810324  1.0000
  Sn  Sn11      1.0  0.54052001  0.025793654999999995  0.4535825756435397  1.0000
  Sn  Sn12      1.0  0.20718667999999998  0.7876984149999998  0.4808715972926669  1.0000
