data_image0
_chemical_formula_structural       COAl8Ti4Al8Ti4
_chemical_formula_sum              "C1 O1 Al16 Ti8"
_cell_length_a       6.4273639638129545
_cell_length_b       7.91106852
_cell_length_c       98.19765466
_cell_angle_alpha    90.0
_cell_angle_beta     90.0
_cell_angle_gamma    107.9213062991416

_space_group_name_H-M_alt    "P 1"
_space_group_IT_number       1

loop_
  _space_group_symop_operation_xyz
  'x, y, z'

loop_
  _atom_site_type_symbol
  _atom_site_label
  _atom_site_symmetry_multiplicity
  _atom_site_fract_x
  _atom_site_fract_y
  _atom_site_fract_z
  _atom_site_occupancy
  C   C1        1.0  0.7463821499999997  0.44409791  0.5345375937015149  1.0000
  O   O1        1.0  0.7352258899999997  0.44030148999999996  0.5464208113892302  1.0000
  Al  Al1       1.0  0.15759554999999997  0.04129494000000004  0.49460248967062626  1.0000
  Al  Al2       1.0  0.16300387  0.2891054900000001  0.5157048894318191  1.0000
  Al  Al3       1.0  0.8175209299999999  0.45679042  0.514580663439202  1.0000
  Al  Al4       1.0  0.48534749999999993  0.12279837000000003  0.5141652693305301  1.0000
  Al  Al5       1.0  0.15600875999999997  0.04146354000000005  0.45357918861076985  1.0000
  Al  Al6       1.0  0.15600875999999997  0.29146354000000013  0.47409004660112947  1.0000
  Al  Al7       1.0  0.8101681199999998  0.45500338  0.47409004660112947  1.0000
  Al  Al8       1.0  0.5018494  0.12792371000000005  0.47409004660112947  1.0000
  Ti  Ti1       1.0  0.47075658  0.37088477  0.49442150349696823  1.0000
  Ti  Ti2       1.0  0.8426679599999999  0.21381015  0.4948968807905983  1.0000
  Ti  Ti3       1.0  0.46802628  0.36946793000000006  0.45357918861076985  1.0000
  Ti  Ti4       1.0  0.84399124  0.21345917000000003  0.45357918861076985  1.0000
  Al  Al9       1.0  0.15870324999999996  0.5422870200000001  0.4947256376848977  1.0000
  Al  Al10      1.0  0.16156513  0.79563964  0.5157215069190781  1.0000
  Al  Al11      1.0  0.8275910399999997  0.9587050599999998  0.5143369374212167  1.0000
  Al  Al12      1.0  0.48301833999999993  0.6235937800000001  0.5147637831523507  1.0000
  Al  Al13      1.0  0.15600875999999997  0.5414635400000001  0.45357918861076985  1.0000
  Al  Al14      1.0  0.15600875999999997  0.7914635399999999  0.47409004660112947  1.0000
  Al  Al15      1.0  0.8101681199999998  0.9550033799999998  0.47409004660112947  1.0000
  Al  Al16      1.0  0.5018494  0.6279237100000001  0.47409004660112947  1.0000
  Ti  Ti5       1.0  0.4724566  0.8695694599999999  0.4945011565951326  1.0000
  Ti  Ti6       1.0  0.8413258499999999  0.71158565  0.4949602236541624  1.0000
  Ti  Ti7       1.0  0.46802628  0.86946793  0.45357918861076985  1.0000
  Ti  Ti8       1.0  0.84399124  0.71345916  0.45357918861076985  1.0000
