data_image0
_chemical_formula_structural       COVPt3VPt3VPt3VPt3VPt3VPt3VPt3VPt3
_chemical_formula_sum              "C1 O1 V8 Pt24"
_cell_length_a       7.85816092
_cell_length_b       7.85816092
_cell_length_c       101.43264368
_cell_angle_alpha    90.0
_cell_angle_beta     90.0
_cell_angle_gamma    90.0

_space_group_name_H-M_alt    "P 1"
_space_group_IT_number       1

loop_
  _space_group_symop_operation_xyz
  'x, y, z'

loop_
  _atom_site_type_symbol
  _atom_site_label
  _atom_site_symmetry_multiplicity
  _atom_site_fract_x
  _atom_site_fract_y
  _atom_site_fract_z
  _atom_site_occupancy
  C   C1        1.0  0.2613583200000001  0.4858792700000001  0.5310452126878219  1.0000
  O   O1        1.0  0.27451041  0.4724427500000001  0.5426558832049351  1.0000
  V   V1        1.0  0.12098563000000002  0.12395740000000002  0.4983571100088178  1.0000
  Pt  Pt1       1.0  0.11977763000000001  0.3800631900000001  0.515905913151003  1.0000
  Pt  Pt2       1.0  0.37292777000000005  0.12383594000000003  0.5144854661472832  1.0000
  Pt  Pt3       1.0  0.36969066  0.37702740000000007  0.49584049710838257  1.0000
  V   V2        1.0  0.12258563  0.12414408000000003  0.4573441167950647  1.0000
  Pt  Pt4       1.0  0.12258563  0.37414408000000005  0.47671204568586384  1.0000
  Pt  Pt5       1.0  0.37258563000000006  0.12414408000000003  0.47671204568586384  1.0000
  Pt  Pt6       1.0  0.37258563000000006  0.37414408000000005  0.4573441167950647  1.0000
  V   V3        1.0  0.11930544000000003  0.62751123  0.49770778857199643  1.0000
  Pt  Pt7       1.0  0.12038729000000001  0.8761640600000001  0.5147511290554239  1.0000
  Pt  Pt8       1.0  0.36687892000000005  0.6271835300000002  0.5158950764074299  1.0000
  Pt  Pt9       1.0  0.3725558300000001  0.8661400300000001  0.49599695278739675  1.0000
  V   V4        1.0  0.12258563  0.62414408  0.4573441167950647  1.0000
  Pt  Pt10      1.0  0.12258563  0.8741440800000001  0.47671204568586384  1.0000
  Pt  Pt11      1.0  0.37258563000000006  0.62414408  0.47671204568586384  1.0000
  Pt  Pt12      1.0  0.37258563000000006  0.8741440800000001  0.4573441167950647  1.0000
  V   V5        1.0  0.6217975300000002  0.12506536000000001  0.49813413091708386  1.0000
  Pt  Pt13      1.0  0.6229630300000001  0.37362332000000004  0.514482633781362  1.0000
  Pt  Pt14      1.0  0.8709852400000001  0.12553858000000004  0.5148697413508196  1.0000
  Pt  Pt15      1.0  0.8806945600000001  0.37428052000000006  0.49599828839977306  1.0000
  V   V6        1.0  0.6225856300000001  0.12414408000000003  0.4573441167950647  1.0000
  Pt  Pt16      1.0  0.6225856300000001  0.37414408000000005  0.47671204568586384  1.0000
  Pt  Pt17      1.0  0.8725856300000001  0.12414408000000003  0.47671204568586384  1.0000
  Pt  Pt18      1.0  0.8725856300000001  0.37414408000000005  0.4573441167950647  1.0000
  V   V7        1.0  0.6228734600000001  0.6258043400000001  0.49837142678185387  1.0000
  Pt  Pt19      1.0  0.6214816700000001  0.8759533300000001  0.514867054631724  1.0000
  Pt  Pt20      1.0  0.8708658900000001  0.6264825300000001  0.5147586283174903  1.0000
  Pt  Pt21      1.0  0.8709292100000001  0.8759200100000001  0.49597284049064483  1.0000
  V   V8        1.0  0.6225856300000001  0.62414408  0.4573441167950647  1.0000
  Pt  Pt22      1.0  0.6225856300000001  0.8741440800000001  0.47671204568586384  1.0000
  Pt  Pt23      1.0  0.8725856300000001  0.62414408  0.47671204568586384  1.0000
  Pt  Pt24      1.0  0.8725856300000001  0.8741440800000001  0.4573441167950647  1.0000
