data_image0
_chemical_formula_structural       COAl12Ru2
_chemical_formula_sum              "C1 O1 Al12 Ru2"
_cell_length_a       5.00906445
_cell_length_b       5.009064445778504
_cell_length_c       106.34741332
_cell_angle_alpha    90.0
_cell_angle_beta     90.0
_cell_angle_gamma    97.66529373930622

_space_group_name_H-M_alt    "P 1"
_space_group_IT_number       1

loop_
  _space_group_symop_operation_xyz
  'x, y, z'

loop_
  _atom_site_type_symbol
  _atom_site_label
  _atom_site_symmetry_multiplicity
  _atom_site_fract_x
  _atom_site_fract_y
  _atom_site_fract_z
  _atom_site_occupancy
  C   C1        1.0  0.5695393299999999  0.56953934  0.5396755371446176  1.0000
  O   O1        1.0  0.5883786000000001  0.58837861  0.5506603309796414  1.0000
  Al  Al1       1.0  0.67515894  0.31351974  0.45784686583941  1.0000
  Al  Al2       1.0  0.32688796000000003  0.68353679  0.5004283750236476  1.0000
  Al  Al3       1.0  0.31351974  0.67515894  0.45784686583941  1.0000
  Al  Al4       1.0  0.6835367899999999  0.32688797  0.5004283750236476  1.0000
  Al  Al5       1.0  0.8537939099999999  0.85379391  0.4493396690203585  1.0000
  Al  Al6       1.0  0.13488477  0.13488477000000001  0.4920621624328574  1.0000
  Al  Al7       1.0  0.8823054800000001  0.88230549  0.5118689939387865  1.0000
  Al  Al8       1.0  0.13488477  0.13488477000000001  0.4663540592406619  1.0000
  Al  Al9       1.0  0.39999979  0.027534120000000016  0.5215467187213509  1.0000
  Al  Al10      1.0  0.61248963  0.97246588  0.4792081125456594  1.0000
  Al  Al11      1.0  0.02753412  0.3999998  0.5215467187213509  1.0000
  Al  Al12      1.0  0.9724658800000002  0.61248963  0.4792081125456594  1.0000
  Ru  Ru1       1.0  0.53995185  0.5399518600000001  0.5218363908978856  1.0000
  Ru  Ru2       1.0  0.45790742  0.45790742  0.4792081125456594  1.0000
