data_image0
_chemical_formula_structural       COAl3CuAl3CuAl3CuAl3Cu
_chemical_formula_sum              "C1 O1 Al12 Cu4"
_cell_length_a       5.63409662
_cell_length_b       5.63409662
_cell_length_c       101.08828872000001
_cell_angle_alpha    90.0
_cell_angle_beta     90.0
_cell_angle_gamma    90.0

_space_group_name_H-M_alt    "P 1"
_space_group_IT_number       1

loop_
  _space_group_symop_operation_xyz
  'x, y, z'

loop_
  _atom_site_type_symbol
  _atom_site_label
  _atom_site_symmetry_multiplicity
  _atom_site_fract_x
  _atom_site_fract_y
  _atom_site_fract_z
  _atom_site_occupancy
  C   C1        1.0  0.37500319000000004  0.122236375  0.531431024154907  1.0000
  O   O1        1.0  0.3749983  0.122236485  0.5430912764829167  1.0000
  Al  Al1       1.0  0.12500000000000003  0.122236435  0.47811153522531846  1.0000
  Al  Al2       1.0  0.37500189  0.369737005  0.49825377210729926  1.0000
  Al  Al3       1.0  0.37500000000000006  0.372236435  0.4569087235170832  1.0000
  Cu  Cu1       1.0  0.13717179000000002  0.122236335  0.5160737830689743  1.0000
  Al  Al4       1.0  0.12500000000000003  0.622236435  0.47811153522531846  1.0000
  Al  Al5       1.0  0.37500188  0.874735765  0.49825376288121903  1.0000
  Al  Al6       1.0  0.37500000000000006  0.8722364349999998  0.4569087235170832  1.0000
  Cu  Cu2       1.0  0.1266661  0.6222364450000001  0.514267537986726  1.0000
  Al  Al7       1.0  0.625  0.122236435  0.47811153522531846  1.0000
  Al  Al8       1.0  0.87499548  0.366709065  0.49923427378327556  1.0000
  Al  Al9       1.0  0.875  0.372236435  0.4569087235170832  1.0000
  Cu  Cu3       1.0  0.61282834  0.122236385  0.5160742689758663  1.0000
  Al  Al10      1.0  0.625  0.622236435  0.47811153522531846  1.0000
  Al  Al11      1.0  0.8749954899999999  0.877763665  0.49923426148183525  1.0000
  Al  Al12      1.0  0.875  0.8722364349999998  0.4569087235170832  1.0000
  Cu  Cu4       1.0  0.6233327399999999  0.6222364450000001  0.5142681776616216  1.0000
