data_image0
_chemical_formula_structural       Pd12Sb4CO
_chemical_formula_sum              "Pd12 Sb4 C1 O1"
_cell_length_a       4.58967776
_cell_length_b       4.58967776
_cell_length_c       31.05529276
_cell_angle_alpha    90.0
_cell_angle_beta     90.0
_cell_angle_gamma    90.0

_space_group_name_H-M_alt    "P 1"
_space_group_IT_number       1

loop_
  _space_group_symop_operation_xyz
  'x, y, z'

loop_
  _atom_site_type_symbol
  _atom_site_label
  _atom_site_symmetry_multiplicity
  _atom_site_fract_x
  _atom_site_fract_y
  _atom_site_fract_z
  _atom_site_occupancy
  Pd  Pd1       1.0  0.78094787  0.25011424499999996  0.26602909496826216  1.0000
  Pd  Pd2       1.0  0.78094787  0.25011424499999996  0.37053276734595275  1.0000
  Pd  Pd3       1.0  0.78094787  0.7501142449999999  0.3182809248868868  1.0000
  Pd  Pd4       1.0  0.28094787  0.7501142449999999  0.37053276734595275  1.0000
  Pd  Pd5       1.0  0.28094787  0.7501142449999999  0.26602909496826216  1.0000
  Pd  Pd6       1.0  0.28094787  0.25011424499999996  0.4227846098050187  1.0000
  Pd  Pd7       1.0  0.78094787  0.25011424499999996  0.4750364397236435  1.0000
  Pd  Pd8       1.0  0.76488356  0.250296095  0.5790895215090462  1.0000
  Pd  Pd9       1.0  0.78094787  0.7501142449999999  0.5272882821827094  1.0000
  Pd  Pd10      1.0  0.29747534999999997  0.7501512949999999  0.5802829325946014  1.0000
  Pd  Pd11      1.0  0.28094787  0.7501142449999999  0.4750364397236435  1.0000
  Pd  Pd12      1.0  0.19522064999999997  0.24964241499999995  0.6412998160977498  1.0000
  Sb  Sb1       1.0  0.28094787  0.25011424499999996  0.3182809248868868  1.0000
  Sb  Sb2       1.0  0.78094787  0.7501142449999999  0.4227846098050187  1.0000
  Sb  Sb3       1.0  0.28094787  0.25011424499999996  0.5272882821827094  1.0000
  Sb  Sb4       1.0  0.8047793499999999  0.750357585  0.6275831066083567  1.0000
  C   C1        1.0  0.35702266  0.25026693499999997  0.6987439529876214  1.0000
  O   O1        1.0  0.43998388  0.249999175  0.733970905031738  1.0000
