data_image0
_chemical_formula_structural       CONi4Sb4Ni4Sb4
_chemical_formula_sum              "C1 O1 Ni8 Sb8"
_cell_length_a       5.19909848
_cell_length_b       6.93858536
_cell_length_c       98.04195889
_cell_angle_alpha    90.0
_cell_angle_beta     90.0
_cell_angle_gamma    90.0

_space_group_name_H-M_alt    "P 1"
_space_group_IT_number       1

loop_
  _space_group_symop_operation_xyz
  'x, y, z'

loop_
  _atom_site_type_symbol
  _atom_site_label
  _atom_site_symmetry_multiplicity
  _atom_site_fract_x
  _atom_site_fract_y
  _atom_site_fract_z
  _atom_site_occupancy
  C   C1        1.0  0.12016160499999998  0.083313195  0.5342723352407251  1.0000
  O   O1        1.0  0.12016162499999998  0.08331324500000001  0.5461786719029436  1.0000
  Ni  Ni1       1.0  0.12016159499999997  0.583313235  0.45382132809705633  1.0000
  Ni  Ni2       1.0  0.12016159499999997  0.083313235  0.474251326091678  1.0000
  Ni  Ni3       1.0  0.6201615949999999  0.583313235  0.45382132809705633  1.0000
  Ni  Ni4       1.0  0.6201615949999999  0.083313235  0.474251326091678  1.0000
  Sb  Sb1       1.0  0.8701615949999999  0.41664656499999997  0.474251326091678  1.0000
  Sb  Sb2       1.0  0.8701615949999999  0.916646565  0.45382132809705633  1.0000
  Sb  Sb3       1.0  0.37016159499999995  0.749979905  0.474251326091678  1.0000
  Sb  Sb4       1.0  0.37016159499999995  0.24997990499999997  0.45382132809705633  1.0000
  Ni  Ni5       1.0  0.12016229499999997  0.583312925  0.4953207989717193  1.0000
  Ni  Ni6       1.0  0.12016123499999996  0.08331314499999999  0.516090159669817  1.0000
  Ni  Ni7       1.0  0.620161135  0.583313145  0.49411005352474946  1.0000
  Ni  Ni8       1.0  0.6201623249999999  0.08331300500000001  0.5131903375458627  1.0000
  Sb  Sb5       1.0  0.8534369149999999  0.417504185  0.515115895540364  1.0000
  Sb  Sb6       1.0  0.879838765  0.916686995  0.49514701323330224  1.0000
  Sb  Sb7       1.0  0.386886535  0.749121835  0.5151158783791654  1.0000
  Sb  Sb8       1.0  0.360483705  0.249940695  0.4951469360079082  1.0000
