data_image0
_chemical_formula_structural       COAlCuAlCuAlCuAlCuAlCuAlCuAlCuAlCuAlCuAlCuAlCuAlCu
_chemical_formula_sum              "C1 O1 Al12 Cu12"
_cell_length_a       6.04030342
_cell_length_b       6.04030342
_cell_length_c       100.2015171
_cell_angle_alpha    90.0
_cell_angle_beta     90.0
_cell_angle_gamma    90.0

_space_group_name_H-M_alt    "P 1"
_space_group_IT_number       1

loop_
  _space_group_symop_operation_xyz
  'x, y, z'

loop_
  _atom_site_type_symbol
  _atom_site_label
  _atom_site_symmetry_multiplicity
  _atom_site_fract_x
  _atom_site_fract_y
  _atom_site_fract_z
  _atom_site_occupancy
  C   C1        1.0  0.37631817  0.11146568500000001  0.5400983012960822  1.0000
  O   O1        1.0  0.37484038  0.11150638500000001  0.5518355845254029  1.0000
  Al  Al1       1.0  0.12195304000000003  0.11148572500000002  0.5085011597950182  1.0000
  Cu  Cu1       1.0  0.37802017  0.334444755  0.5242807011651845  1.0000
  Al  Al2       1.0  0.12782255  0.11148944500000002  0.4783051937522944  1.0000
  Cu  Cu2       1.0  0.37782255  0.361489445  0.493375582891143  1.0000
  Al  Al3       1.0  0.12782255  0.11148944500000002  0.44816441547459707  1.0000
  Cu  Cu3       1.0  0.37782255  0.361489445  0.46323480461344574  1.0000
  Al  Al4       1.0  0.13838485000000003  0.611494635  0.510156883168147  1.0000
  Cu  Cu4       1.0  0.37802159  0.8885343149999999  0.5242822745138107  1.0000
  Al  Al5       1.0  0.12782255  0.611489445  0.4783051937522944  1.0000
  Cu  Cu5       1.0  0.37782255  0.8614894449999999  0.493375582891143  1.0000
  Al  Al6       1.0  0.12782255  0.611489445  0.44816441547459707  1.0000
  Cu  Cu6       1.0  0.37782255  0.8614894449999999  0.46323480461344574  1.0000
  Al  Al7       1.0  0.63367244  0.11148571500000001  0.5085141112874441  1.0000
  Cu  Cu7       1.0  0.87804603  0.35778417500000004  0.5223008981158583  1.0000
  Al  Al8       1.0  0.62782255  0.11148944500000002  0.4783051937522944  1.0000
  Cu  Cu8       1.0  0.8778225500000001  0.361489445  0.493375582891143  1.0000
  Al  Al9       1.0  0.62782255  0.11148944500000002  0.44816441547459707  1.0000
  Cu  Cu9       1.0  0.8778225500000001  0.361489445  0.46323480461344574  1.0000
  Al  Al10      1.0  0.6170479099999999  0.6114945849999999  0.5101712000378289  1.0000
  Cu  Cu10      1.0  0.87804696  0.8651956550000001  0.52230220019748  1.0000
  Al  Al11      1.0  0.62782255  0.611489445  0.4783051937522944  1.0000
  Cu  Cu11      1.0  0.8778225500000001  0.8614894449999999  0.493375582891143  1.0000
  Al  Al12      1.0  0.62782255  0.611489445  0.44816441547459707  1.0000
  Cu  Cu12      1.0  0.8778225500000001  0.8614894449999999  0.46323480461344574  1.0000
