data_image0
_chemical_formula_structural       Pt12Si4CO
_chemical_formula_sum              "Pt12 Si4 C1 O1"
_cell_length_a       5.62348107649735
_cell_length_b       5.623481070393856
_cell_length_c       38.82811097
_cell_angle_alpha    91.55159941220539
_cell_angle_beta     91.55159941052092
_cell_angle_gamma    89.77662799656635

_space_group_name_H-M_alt    "P 1"
_space_group_IT_number       1

loop_
  _space_group_symop_operation_xyz
  'x, y, z'

loop_
  _atom_site_type_symbol
  _atom_site_label
  _atom_site_symmetry_multiplicity
  _atom_site_fract_x
  _atom_site_fract_y
  _atom_site_fract_z
  _atom_site_occupancy
  Pt  Pt1       1.0  0.4458825850000001  0.06189110000000001  0.5454055504345605  1.0000
  Pt  Pt2       1.0  0.0006371550000001669  0.51743939  0.44200610174535804  1.0000
  Pt  Pt3       1.0  0.11005932500000007  0.44406944  0.5420369841801088  1.0000
  Pt  Pt4       1.0  0.5488700350000001  0.96920651  0.44200610174535804  1.0000
  Pt  Pt5       1.0  0.32438304500000004  0.70047086  0.49004798058669585  1.0000
  Pt  Pt6       1.0  0.840283195  0.17779335000000002  0.39183000469339785  1.0000
  Pt  Pt7       1.0  0.738279595  0.27655491  0.4931037691225644  1.0000
  Pt  Pt8       1.0  0.20922399500000008  0.80885255  0.39183000469339785  1.0000
  Pt  Pt9       1.0  0.3432640350000001  0.31183339  0.3988835356280476  1.0000
  Pt  Pt10      1.0  0.812305665  0.77616602  0.5132587606880127  1.0000
  Pt  Pt11      1.0  0.218993705  0.18057657  0.4812142498976957  1.0000
  Pt  Pt12      1.0  0.7062431550000001  0.6748125100000001  0.38477647375874807  1.0000
  Si  Si1       1.0  0.999362845  0.04990471000000002  0.5515797151627163  1.0000
  Si  Si2       1.0  0.5615485050000001  0.53011786  0.44228887014381635  1.0000
  Si  Si3       1.0  0.5277747850000001  0.49808035000000006  0.53611707979911  1.0000
  Si  Si4       1.0  0.9879586850000002  0.95652804  0.4417233333468998  1.0000
  C   C1        1.0  0.711825355  0.04742592000000002  0.5849864869175553  1.0000
  O   O1        1.0  0.6956237650000002  0.030793490000000014  0.6152235262412522  1.0000
