data_image0
_chemical_formula_structural       COSb8Rh4Sb8Rh4
_chemical_formula_sum              "C1 O1 Sb16 Rh8"
_cell_length_a       6.68566079
_cell_length_b       6.82104467434503
_cell_length_c       110.44993807
_cell_angle_alpha    116.36749060985208
_cell_angle_beta     90.0
_cell_angle_gamma    90.0

_space_group_name_H-M_alt    "P 1"
_space_group_IT_number       1

loop_
  _space_group_symop_operation_xyz
  'x, y, z'

loop_
  _atom_site_type_symbol
  _atom_site_label
  _atom_site_symmetry_multiplicity
  _atom_site_fract_x
  _atom_site_fract_y
  _atom_site_fract_z
  _atom_site_occupancy
  C   C1        1.0  0.443714965  0.307372445  0.5519060781450681  1.0000
  O   O1        1.0  0.41051889500000005  0.37615198499999997  0.5634647835251554  1.0000
  Sb  Sb1       1.0  0.639532675  0.186169345  0.4483757531568384  1.0000
  Sb  Sb2       1.0  0.139532675  0.335462805  0.46733392645892086  1.0000
  Sb  Sb3       1.0  0.36244431499999996  0.835462805  0.46733392645892086  1.0000
  Sb  Sb4       1.0  0.8624443150000002  0.686169345  0.4483757531568384  1.0000
  Sb  Sb5       1.0  0.36421744500000003  0.38393314500000003  0.4365352164748445  1.0000
  Sb  Sb6       1.0  0.8642174450000001  0.137699005  0.47917445947862763  1.0000
  Sb  Sb7       1.0  0.6377595450000001  0.637699005  0.4791744594786277  1.0000
  Sb  Sb8       1.0  0.13775954500000004  0.883933145  0.4365352164748445  1.0000
  Rh  Rh1       1.0  0.0015146450000000007  0.298111295  0.4439078141965656  1.0000
  Rh  Rh2       1.0  0.501514645  0.22352085500000002  0.47180186541919367  1.0000
  Rh  Rh3       1.0  0.00046234500000008616  0.723520855  0.47180186541919367  1.0000
  Rh  Rh4       1.0  0.500462345  0.798111295  0.4439078141965656  1.0000
  Sb  Sb9       1.0  0.639532675  0.186169345  0.509413868642798  1.0000
  Sb  Sb10      1.0  0.135374885  0.327363445  0.5286998349495865  1.0000
  Sb  Sb11      1.0  0.369084255  0.8124454950000001  0.5281685433012349  1.0000
  Sb  Sb12      1.0  0.8624443150000002  0.686169345  0.509413868642798  1.0000
  Sb  Sb13      1.0  0.36421744500000003  0.38393314500000003  0.4975733356230912  1.0000
  Sb  Sb14      1.0  0.8783347050000001  0.11606685500000001  0.5401270752105192  1.0000
  Sb  Sb15      1.0  0.6571112050000001  0.618263725  0.5392846393145077  1.0000
  Sb  Sb16      1.0  0.13775954500000004  0.883933145  0.4975733356230912  1.0000
  Rh  Rh5       1.0  0.0015146450000000007  0.298111295  0.5049459296825252  1.0000
  Rh  Rh6       1.0  0.505931705  0.20928752499999997  0.5336401466837377  1.0000
  Rh  Rh7       1.0  0.999537655  0.7069688749999999  0.5314337469007068  1.0000
  Rh  Rh8       1.0  0.500462345  0.798111295  0.5049459296825253  1.0000
