data_image0
_chemical_formula_structural       Pt12Si4CO
_chemical_formula_sum              "Pt12 Si4 C1 O1"
_cell_length_a       5.62348107649735
_cell_length_b       5.623481070393856
_cell_length_c       101.17188903
_cell_angle_alpha    88.44840058779462
_cell_angle_beta     88.44840058947908
_cell_angle_gamma    89.77662799656635

_space_group_name_H-M_alt    "P 1"
_space_group_IT_number       1

loop_
  _space_group_symop_operation_xyz
  'x, y, z'

loop_
  _atom_site_type_symbol
  _atom_site_label
  _atom_site_symmetry_multiplicity
  _atom_site_fract_x
  _atom_site_fract_y
  _atom_site_fract_z
  _atom_site_occupancy
  Pt  Pt1       1.0  0.4738613199999999  0.02050150500000003  0.4578320338954936  1.0000
  Pt  Pt2       1.0  0.9779057999999999  0.535461585  0.496549545520088  1.0000
  Pt  Pt3       1.0  0.02209419999999999  0.472268625  0.45783203389549365  1.0000
  Pt  Pt4       1.0  0.5202777199999999  0.979498495  0.49623841785563216  1.0000
  Pt  Pt5       1.0  0.31350736  0.680855465  0.47708879664900206  1.0000
  Pt  Pt6       1.0  0.8447256700000001  0.186031105  0.5146757206242227  1.0000
  Pt  Pt7       1.0  0.68244816  0.3119146650000001  0.47708879664900206  1.0000
  Pt  Pt8       1.0  0.19127183999999997  0.8012759850000001  0.516599606790908  1.0000
  Pt  Pt9       1.0  0.3412349799999999  0.325159005  0.5125499927730603  1.0000
  Pt  Pt10      1.0  0.8164881999999998  0.814895505  0.47438176721141095  1.0000
  Pt  Pt11      1.0  0.17946731999999996  0.17787462500000006  0.47979582608659316  1.0000
  Pt  Pt12      1.0  0.69171042  0.694730135  0.5179303908269492  1.0000
  Si  Si1       1.0  0.03477266999999999  0.033179975000000035  0.45772351202386097  1.0000
  Si  Si2       1.0  0.54366958  0.541796775  0.4962045629261704  1.0000
  Si  Si3       1.0  0.46118285  0.459590155  0.4579405557671262  1.0000
  Si  Si4       1.0  0.9640652000000001  0.965882575  0.49669193772659254  1.0000
  C   C1        1.0  0.4414332899999999  0.8177894650000002  0.5309120524371383  1.0000
  O   O1        1.0  0.43728339999999993  0.866121155  0.5422764879761391  1.0000
