data_image0
_chemical_formula_structural       COZn8Cu4Au4Zn8Cu4Au4
_chemical_formula_sum              "C1 O1 Zn16 Cu8 Au8"
_cell_length_a       12.207044687206253
_cell_length_b       4.55265204
_cell_length_c       103.24485122
_cell_angle_alpha    90.0
_cell_angle_beta     67.10402002852645
_cell_angle_gamma    90.0

_space_group_name_H-M_alt    "P 1"
_space_group_IT_number       1

loop_
  _space_group_symop_operation_xyz
  'x, y, z'

loop_
  _atom_site_type_symbol
  _atom_site_label
  _atom_site_symmetry_multiplicity
  _atom_site_fract_x
  _atom_site_fract_y
  _atom_site_fract_z
  _atom_site_occupancy
  C   C1        1.0  0.40708710499999995  1.9500000000714556e-07  0.5424141639845358  1.0000
  O   O1        1.0  0.3889887849999999  3.1500000000714557e-07  0.5544147015592061  1.0000
  Zn  Zn1       1.0  0.299550035  0.49999998500000004  0.5309771909645885  1.0000
  Zn  Zn2       1.0  0.8092862749999998  0.500000085  0.5098910216155162  1.0000
  Zn  Zn3       1.0  0.5662863149999999  0.500000165  0.5194762880470896  1.0000
  Zn  Zn4       1.0  0.06592328499999998  0.500000105  0.497934269612867  1.0000
  Zn  Zn5       1.0  0.566304845  1.0500000000714558e-07  0.49158531014980106  1.0000
  Zn  Zn6       1.0  0.05888593499999999  0.9999999849999999  0.5156224299890376  1.0000
  Zn  Zn7       1.0  0.31592328499999994  1.0500000000714558e-07  0.5031028669118721  1.0000
  Zn  Zn8       1.0  0.8189658449999999  0.9999999150000001  0.5257591247920019  1.0000
  Cu  Cu1       1.0  0.44196131499999997  2.500000000714558e-08  0.5227892342566376  1.0000
  Cu  Cu2       1.0  0.9411140649999999  1.0500000000714558e-07  0.49756691903201317  1.0000
  Cu  Cu3       1.0  0.6911140649999999  0.500000105  0.4919526607306548  1.0000
  Cu  Cu4       1.0  0.18029024500000002  0.49999997500000004  0.5154650782058376  1.0000
  Au  Au1       1.0  0.44055319499999995  0.5000000450000001  0.5030268233709949  1.0000
  Au  Au2       1.0  0.9359226049999999  0.499999915  0.5260335686873489  1.0000
  Au  Au3       1.0  0.6891523549999999  1.5000000007145585e-08  0.5099222685040949  1.0000
  Au  Au4       1.0  0.18916297499999998  0.999999925  0.5305941750794338  1.0000
  Zn  Zn9       1.0  0.316304845  0.500000105  0.4864167128507959  1.0000
  Zn  Zn10      1.0  0.816304845  0.500000105  0.4634167069962922  1.0000
  Zn  Zn11      1.0  0.565923285  0.500000105  0.4749342637583633  1.0000
  Zn  Zn12      1.0  0.06592328499999998  0.500000105  0.45193425468385884  1.0000
  Zn  Zn13      1.0  0.566304845  1.0500000000714558e-07  0.4455852984407938  1.0000
  Zn  Zn14      1.0  0.066304845  1.0500000000714558e-07  0.46858530429529743  1.0000
  Zn  Zn15      1.0  0.31592328499999994  1.0500000000714558e-07  0.457102851982864  1.0000
  Zn  Zn16      1.0  0.8159232849999999  1.0500000000714558e-07  0.48010286105736844  1.0000
  Cu  Cu5       1.0  0.44111406499999994  1.0500000000714558e-07  0.47456691317750954  1.0000
  Cu  Cu6       1.0  0.9411140649999999  1.0500000000714558e-07  0.451566907323006  1.0000
  Cu  Cu7       1.0  0.6911140649999999  0.500000105  0.4459526490216475  1.0000
  Cu  Cu8       1.0  0.19111406499999997  0.500000105  0.4689526548761512  1.0000
  Au  Au5       1.0  0.44111406499999994  0.500000105  0.4578252076611821  1.0000
  Au  Au6       1.0  0.9411140649999999  0.500000105  0.48082521673568657  1.0000
  Au  Au7       1.0  0.6911140649999999  1.0500000000714558e-07  0.4626943513179741  1.0000
  Au  Au8       1.0  0.19111406499999997  1.0500000000714558e-07  0.48569435717247783  1.0000
