data_image0
_chemical_formula_structural       CONi4Sb8Ni4Sb8Ni4Sb8Ni4Sb8
_chemical_formula_sum              "C1 O1 Ni16 Sb32"
_cell_length_a       13.881014659496314
_cell_length_b       7.88503674
_cell_length_c       106.67968031000001
_cell_angle_alpha    90.0
_cell_angle_beta     67.8216610650128
_cell_angle_gamma    90.0

_space_group_name_H-M_alt    "P 1"
_space_group_IT_number       1

loop_
  _space_group_symop_operation_xyz
  'x, y, z'

loop_
  _atom_site_type_symbol
  _atom_site_label
  _atom_site_symmetry_multiplicity
  _atom_site_fract_x
  _atom_site_fract_y
  _atom_site_fract_z
  _atom_site_occupancy
  C   C1        1.0  0.72460764  0.37572804  0.548680801792341  1.0000
  O   O1        1.0  0.6896575699999999  0.3757268699999999  0.5604829919074058  1.0000
  Ni  Ni1       1.0  0.53573416  0.12427117999999995  0.5171630284460413  1.0000
  Ni  Ni2       1.0  0.030900229999999973  0.12572702999999996  0.4935125096608796  1.0000
  Ni  Ni3       1.0  0.28217176  0.37572533999999996  0.5051757580508643  1.0000
  Ni  Ni4       1.0  0.7832107300000001  0.37572508999999993  0.5306210697212485  1.0000
  Sb  Sb1       1.0  0.35189869  0.12572702999999996  0.48863558634455523  1.0000
  Sb  Sb2       1.0  0.8543556  0.13503773999999996  0.513531443834422  1.0000
  Sb  Sb3       1.0  0.20326166  0.12777528999999996  0.5217217301701951  1.0000
  Sb  Sb4       1.0  0.70990177  0.12572702999999996  0.49838943641550465  1.0000
  Sb  Sb5       1.0  0.45241495000000004  0.3757276299999999  0.5093256939762584  1.0000
  Sb  Sb6       1.0  0.9690997700000001  0.3757258699999999  0.5318093154453806  1.0000
  Sb  Sb7       1.0  0.10189869  0.3757270299999999  0.5036943937668508  1.0000
  Sb  Sb8       1.0  0.60121293  0.3757262899999999  0.5272002976310308  1.0000
  Ni  Ni5       1.0  0.53090023  0.12572702999999996  0.46895322053489913  1.0000
  Ni  Ni6       1.0  0.030900229999999973  0.12572702999999996  0.4443939314089187  1.0000
  Ni  Ni7       1.0  0.28090023  0.3757270299999999  0.45667357769105915  1.0000
  Ni  Ni8       1.0  0.78090023  0.3757270299999999  0.48123286681703975  1.0000
  Sb  Sb9       1.0  0.35189869  0.12572702999999996  0.43951700809259425  1.0000
  Sb  Sb10      1.0  0.8518986900000001  0.12572702999999996  0.46407629721857474  1.0000
  Sb  Sb11      1.0  0.20990177  0.12572702999999996  0.4738301438512236  1.0000
  Sb  Sb12      1.0  0.70990177  0.12572702999999996  0.44927085472524314  1.0000
  Sb  Sb13      1.0  0.45990177000000004  0.3757270299999999  0.45877133986722857  1.0000
  Sb  Sb14      1.0  0.95990177  0.3757270299999999  0.48333062899320905  1.0000
  Sb  Sb15      1.0  0.10189869  0.3757270299999999  0.45457581207658926  1.0000
  Sb  Sb16      1.0  0.6018986900000001  0.3757270299999999  0.47913510464087034  1.0000
  Ni  Ni9       1.0  0.53574084  0.6271840799999999  0.5171622823348228  1.0000
  Ni  Ni10      1.0  0.030900229999999973  0.6257270299999999  0.4935125096608796  1.0000
  Ni  Ni11      1.0  0.2811979  0.8757286699999999  0.5053760012363862  1.0000
  Ni  Ni12      1.0  0.7909642000000001  0.8757282399999998  0.5272882252909039  1.0000
  Sb  Sb17      1.0  0.35189869  0.6257270299999999  0.48863558634455523  1.0000
  Sb  Sb18      1.0  0.8543558  0.6164157299999999  0.513531512600433  1.0000
  Sb  Sb19      1.0  0.20326365999999998  0.6236794099999999  0.5217215273104628  1.0000
  Sb  Sb20      1.0  0.70990177  0.6257270299999999  0.49838943641550465  1.0000
  Sb  Sb21      1.0  0.45196532  0.87572608  0.509328939731974  1.0000
  Sb  Sb22      1.0  0.9590462800000001  0.8757281499999998  0.5315741460029082  1.0000
  Sb  Sb23      1.0  0.10189869  0.8757270299999999  0.5036943937668508  1.0000
  Sb  Sb24      1.0  0.60865329  0.87572882  0.5267771700508888  1.0000
  Ni  Ni13      1.0  0.53090023  0.6257270299999999  0.46895322053489913  1.0000
  Ni  Ni14      1.0  0.030900229999999973  0.6257270299999999  0.4443939314089187  1.0000
  Ni  Ni15      1.0  0.28090023  0.8757270299999999  0.45667357769105915  1.0000
  Ni  Ni16      1.0  0.78090023  0.8757270299999999  0.48123286681703975  1.0000
  Sb  Sb25      1.0  0.35189869  0.6257270299999999  0.43951700809259425  1.0000
  Sb  Sb26      1.0  0.8518986900000001  0.6257270299999999  0.46407629721857474  1.0000
  Sb  Sb27      1.0  0.20990177  0.6257270299999999  0.4738301438512236  1.0000
  Sb  Sb28      1.0  0.70990177  0.6257270299999999  0.44927085472524314  1.0000
  Sb  Sb29      1.0  0.45990177000000004  0.8757270299999999  0.45877133986722857  1.0000
  Sb  Sb30      1.0  0.95990177  0.8757270299999999  0.48333062899320905  1.0000
  Sb  Sb31      1.0  0.10189869  0.8757270299999999  0.45457581207658926  1.0000
  Sb  Sb32      1.0  0.6018986900000001  0.8757270299999999  0.47913510464087034  1.0000
