data_image0
_chemical_formula_structural       COPt8Sn16
_chemical_formula_sum              "C1 O1 Pt8 Sn16"
_cell_length_a       4.65759902
_cell_length_b       11.40874102
_cell_length_c       102.26879256000001
_cell_angle_alpha    90.0
_cell_angle_beta     90.0
_cell_angle_gamma    90.0

_space_group_name_H-M_alt    "P 1"
_space_group_IT_number       1

loop_
  _space_group_symop_operation_xyz
  'x, y, z'

loop_
  _atom_site_type_symbol
  _atom_site_label
  _atom_site_symmetry_multiplicity
  _atom_site_fract_x
  _atom_site_fract_y
  _atom_site_fract_z
  _atom_site_occupancy
  C   C1        1.0  0.34945794999999996  0.36749392000000003  0.5491933343286662  1.0000
  O   O1        1.0  0.42154341  0.36311694000000005  0.5601349506287745  1.0000
  Pt  Pt1       1.0  0.27035651  0.3698900500000001  0.5308352509928399  1.0000
  Pt  Pt2       1.0  0.23670903999999998  0.38045161000000005  0.4530120981878938  1.0000
  Pt  Pt3       1.0  0.23670903999999998  0.047118270000000025  0.4793062021318149  1.0000
  Pt  Pt4       1.0  0.23697594  0.70780431  0.5048467623428455  1.0000
  Pt  Pt5       1.0  0.73670904  0.71378494  0.4661591501598543  1.0000
  Pt  Pt6       1.0  0.73670904  0.38045161000000005  0.4924532509484833  1.0000
  Pt  Pt7       1.0  0.7437591  0.03621506000000002  0.5171195932756372  1.0000
  Pt  Pt8       1.0  0.73670904  0.047118270000000025  0.4398650493712254  1.0000
  Sn  Sn1       1.0  0.23670903999999998  0.63045161  0.4530120981878938  1.0000
  Sn  Sn2       1.0  0.23670903999999998  0.29711827  0.4793062021318149  1.0000
  Sn  Sn3       1.0  0.24086423999999998  0.9521714600000001  0.5053559444696926  1.0000
  Sn  Sn4       1.0  0.24440147999999998  0.6242826800000001  0.5317554541055434  1.0000
  Sn  Sn5       1.0  0.73670904  0.46378494  0.4661591501598543  1.0000
  Sn  Sn6       1.0  0.73670904  0.13045161000000005  0.4924532509484833  1.0000
  Sn  Sn7       1.0  0.7397004899999999  0.7870143500000001  0.5204279739644553  1.0000
  Sn  Sn8       1.0  0.73670904  0.79711827  0.4398650493712254  1.0000
  Sn  Sn9       1.0  0.73670904  0.63045161  0.4924532509484833  1.0000
  Sn  Sn10      1.0  0.7632909600000001  0.28683960000000003  0.519116445199938  1.0000
  Sn  Sn11      1.0  0.73670904  0.29711827  0.4398650493712254  1.0000
  Sn  Sn12      1.0  0.73670904  0.96378494  0.4661591501598543  1.0000
  Sn  Sn13      1.0  0.23670903999999998  0.79711827  0.4793062021318149  1.0000
  Sn  Sn14      1.0  0.24269809  0.45921662999999996  0.506125103743784  1.0000
  Sn  Sn15      1.0  0.24833383  0.10955729000000002  0.531211305030305  1.0000
  Sn  Sn16      1.0  0.23670903999999998  0.13045161000000005  0.4530120981878938  1.0000
