data_image0
_chemical_formula_structural       COSi16Rh32
_chemical_formula_sum              "C1 O1 Si16 Rh32"
_cell_length_a       6.798401968619033
_cell_length_b       10.90425360559182
_cell_length_c       110.36309589
_cell_angle_alpha    77.42455018578063
_cell_angle_beta     77.73804197445547
_cell_angle_gamma    64.72737976661513

_space_group_name_H-M_alt    "P 1"
_space_group_IT_number       1

loop_
  _space_group_symop_operation_xyz
  'x, y, z'

loop_
  _atom_site_type_symbol
  _atom_site_label
  _atom_site_symmetry_multiplicity
  _atom_site_fract_x
  _atom_site_fract_y
  _atom_site_fract_z
  _atom_site_occupancy
  C   C1        1.0  0.6433210350000002  0.86963253  0.5393815804573634  1.0000
  O   O1        1.0  0.6014062350000001  0.86980819  0.5504326648869518  1.0000
  Si  Si1       1.0  0.9863328949999999  0.7944060900000001  0.5080269398006906  1.0000
  Si  Si2       1.0  0.751766055  0.54017782  0.5293133807937902  1.0000
  Si  Si3       1.0  0.236030015  0.045915750000000026  0.4851249084431631  1.0000
  Si  Si4       1.0  0.48603001500000004  0.29591575000000003  0.4622667829730386  1.0000
  Si  Si5       1.0  0.5500729950000002  0.70408425  0.49704587803834244  1.0000
  Si  Si6       1.0  0.32092349500000017  0.43879868  0.5209488575669565  1.0000
  Si  Si7       1.0  0.8000729949999998  0.95408425  0.47418775256821794  1.0000
  Si  Si8       1.0  0.05007299500000003  0.20408425000000002  0.45132962709809343  1.0000
  Si  Si9       1.0  0.46836427500000005  0.05853255000000003  0.5101939888423604  1.0000
  Si  Si10      1.0  0.20352232499999998  0.8182817600000001  0.5297528273416283  1.0000
  Si  Si11      1.0  0.7167557750000001  0.31518999000000003  0.4868872004282083  1.0000
  Si  Si12      1.0  0.966755775  0.56518999  0.4640290749580838  1.0000
  Si  Si13      1.0  0.06934724500000007  0.4348100100000001  0.4952835860532973  1.0000
  Si  Si14      1.0  0.8273333650000002  0.17714885000000005  0.5186207666310745  1.0000
  Si  Si15      1.0  0.3193472450000001  0.68481001  0.4724254605831728  1.0000
  Si  Si16      1.0  0.5693472350000001  0.9348100100000001  0.44956733511304825  1.0000
  Rh  Rh1       1.0  0.2484666950000001  0.90275039  0.5067536251784023  1.0000
  Rh  Rh2       1.0  0.013667105000000065  0.64280611  0.5281367505562903  1.0000
  Rh  Rh3       1.0  0.5017857150000001  0.15415664000000004  0.4835008367998607  1.0000
  Rh  Rh4       1.0  0.7517857150000001  0.40415664000000007  0.4606427113297362  1.0000
  Rh  Rh5       1.0  0.2843172950000001  0.5958433600000002  0.49866994968164474  1.0000
  Rh  Rh6       1.0  0.04880203500000005  0.35129860000000007  0.5207918679612277  1.0000
  Rh  Rh7       1.0  0.5343172950000001  0.84584336  0.4758118242115203  1.0000
  Rh  Rh8       1.0  0.784317295  0.09584336000000004  0.45295369874139585  1.0000
  Rh  Rh9       1.0  0.5722833150000001  0.8120625  0.5254978110578151  1.0000
  Rh  Rh10      1.0  0.32298983500000006  0.58295252  0.454132340493937  1.0000
  Rh  Rh11      1.0  0.8229898350000002  0.08295252000000003  0.49984859143418603  1.0000
  Rh  Rh12      1.0  0.07298983500000004  0.33295252000000003  0.4769904659640616  1.0000
  Rh  Rh13      1.0  0.9631131749999999  0.66704748  0.4823221950473196  1.0000
  Rh  Rh14      1.0  0.7114967550000002  0.41497601  0.5052926032870534  1.0000
  Rh  Rh15      1.0  0.21311317500000007  0.9170474800000001  0.45946406957719504  1.0000
  Rh  Rh16      1.0  0.4621602450000001  0.17493833000000003  0.5267910725947137  1.0000
  Rh  Rh17      1.0  0.6763855249999998  0.88732936  0.496387816378508  1.0000
  Rh  Rh18      1.0  0.4334956450000001  0.63078552  0.5193431784857324  1.0000
  Rh  Rh19      1.0  0.9263855250000002  0.13732936000000004  0.4735296909083835  1.0000
  Rh  Rh20      1.0  0.17638552500000007  0.38732936000000007  0.45067156543825904  1.0000
  Rh  Rh21      1.0  0.8588742349999998  0.61542587  0.5077609955684209  1.0000
  Rh  Rh22      1.0  0.6319019450000002  0.3544005800000001  0.5313368990940079  1.0000
  Rh  Rh23      1.0  0.10971748500000002  0.8626706400000002  0.4857829701029974  1.0000
  Rh  Rh24      1.0  0.35971748500000006  0.11267064000000003  0.462924844632873  1.0000
  Rh  Rh25      1.0  0.846642165  0.93533033  0.5250837498297991  1.0000
  Rh  Rh26      1.0  0.6217076350000003  0.69200726  0.4556709008041807  1.0000
  Rh  Rh27      1.0  0.12170763500000002  0.19200726000000004  0.5013871517444297  1.0000
  Rh  Rh28      1.0  0.3717076350000001  0.44200726  0.47852902627430516  1.0000
  Rh  Rh29      1.0  0.6643953750000001  0.55799274  0.4807836347370758  1.0000
  Rh  Rh30      1.0  0.414395375  0.30799274000000004  0.5036417602072004  1.0000
  Rh  Rh31      1.0  0.914395375  0.8079927400000001  0.4579255092669514  1.0000
  Rh  Rh32      1.0  0.17040688500000004  0.055966580000000044  0.5263407565510521  1.0000
