data_image0
_chemical_formula_structural       COSn24Rh12
_chemical_formula_sum              "C1 O1 Sn24 Rh12"
_cell_length_a       8.737700899340801
_cell_length_b       9.22522004
_cell_length_c       102.71234988
_cell_angle_alpha    90.0
_cell_angle_beta     84.72628079813528
_cell_angle_gamma    58.13649626448439

_space_group_name_H-M_alt    "P 1"
_space_group_IT_number       1

loop_
  _space_group_symop_operation_xyz
  'x, y, z'

loop_
  _atom_site_type_symbol
  _atom_site_label
  _atom_site_symmetry_multiplicity
  _atom_site_fract_x
  _atom_site_fract_y
  _atom_site_fract_z
  _atom_site_occupancy
  C   C1        1.0  0.41466216999999994  0.739157965  0.5448419079288648  1.0000
  O   O1        1.0  0.45500475999999995  0.6819131450000001  0.5553317328202909  1.0000
  Sn  Sn1       1.0  0.3799068999999999  0.05615319499999996  0.4862825932727896  1.0000
  Sn  Sn2       1.0  0.7072399699999999  0.3900321449999999  0.5235585507838303  1.0000
  Sn  Sn3       1.0  0.04657356999999996  0.7228198649999998  0.4508953636930786  1.0000
  Sn  Sn4       1.0  0.48791685999999995  0.34013327499999996  0.49774911314170106  1.0000
  Sn  Sn5       1.0  0.8329653899999999  0.6639748750000001  0.5333276662571541  1.0000
  Sn  Sn6       1.0  0.15458352999999994  0.006799944999999929  0.46236188356199  1.0000
  Sn  Sn7       1.0  0.8212501899999999  0.9974964850000001  0.48005549675942016  1.0000
  Sn  Sn8       1.0  0.15523820999999996  0.3234592949999999  0.514557503458429  1.0000
  Sn  Sn9       1.0  0.48791685999999995  0.6641631550000001  0.44466826717970903  1.0000
  Sn  Sn10      1.0  0.5959268199999999  0.948143235  0.4561347870486204  1.0000
  Sn  Sn11      1.0  0.92926015  0.2814765649999999  0.49152201662833156  1.0000
  Sn  Sn12      1.0  0.25518367  0.6021909749999999  0.5279041330526921  1.0000
  Sn  Sn13      1.0  0.7132402399999999  0.3894865249999999  0.46858897689050877  1.0000
  Sn  Sn14      1.0  0.04657356999999996  0.7228198649999998  0.5039762064702198  1.0000
  Sn  Sn15      1.0  0.3994436999999999  0.06786200499999996  0.5395442400238304  1.0000
  Sn  Sn16      1.0  0.48791685999999995  0.34013327499999996  0.44466826717970903  1.0000
  Sn  Sn17      1.0  0.8212501899999999  0.6734666149999999  0.48005549675942016  1.0000
  Sn  Sn18      1.0  0.15979748  0.002503514999999939  0.5147041435389339  1.0000
  Sn  Sn19      1.0  0.15458352999999994  0.33082981499999997  0.46236188356199  1.0000
  Sn  Sn20      1.0  0.48791685999999995  0.6641631550000001  0.49774911314170106  1.0000
  Sn  Sn21      1.0  0.82077448  0.007893524999999978  0.5333028881187546  1.0000
  Sn  Sn22      1.0  0.26259348  0.614809905  0.4738284034309014  1.0000
  Sn  Sn23      1.0  0.5959268199999999  0.948143235  0.5092156330106125  1.0000
  Sn  Sn24      1.0  0.95342643  0.2558175349999998  0.5452257493193591  1.0000
  Rh  Rh1       1.0  0.8212501899999999  0.08548154499999991  0.45351507537084956  1.0000
  Rh  Rh2       1.0  0.15458352999999994  0.4188148849999999  0.4889023049505606  1.0000
  Rh  Rh3       1.0  0.5098486799999999  0.7439041750000002  0.526423839928916  1.0000
  Rh  Rh4       1.0  0.48791685999999995  0.2521482149999999  0.4712086885682797  1.0000
  Rh  Rh5       1.0  0.8212501899999999  0.585481545  0.5065959213328415  1.0000
  Rh  Rh6       1.0  0.16619112999999996  0.9130995550000001  0.5390221984071705  1.0000
  Rh  Rh7       1.0  0.8212501899999999  0.08548154499999991  0.5065959213328415  1.0000
  Rh  Rh8       1.0  0.14620455  0.4009726149999999  0.539145308810748  1.0000
  Rh  Rh9       1.0  0.48791685999999995  0.7521482150000001  0.4712086885682797  1.0000
  Rh  Rh10      1.0  0.15458352999999994  0.9188148850000001  0.4889023049505606  1.0000
  Rh  Rh11      1.0  0.4914224299999999  0.2548244549999999  0.5232781883772354  1.0000
  Rh  Rh12      1.0  0.8212501899999999  0.585481545  0.45351507537084956  1.0000
