data_image0
_chemical_formula_structural       COSn32V16
_chemical_formula_sum              "C1 O1 Sn32 V16"
_cell_length_a       11.959394423006977
_cell_length_b       9.53851279
_cell_length_c       103.62585318000001
_cell_angle_alpha    90.0
_cell_angle_beta     86.57308013351675
_cell_angle_gamma    113.50239795335243

_space_group_name_H-M_alt    "P 1"
_space_group_IT_number       1

loop_
  _space_group_symop_operation_xyz
  'x, y, z'

loop_
  _atom_site_type_symbol
  _atom_site_label
  _atom_site_symmetry_multiplicity
  _atom_site_fract_x
  _atom_site_fract_y
  _atom_site_fract_z
  _atom_site_occupancy
  C   C1        1.0  0.56494785  0.13483630000000008  0.5384058807405787  1.0000
  O   O1        1.0  0.56816841  0.22536868000000004  0.5472436816379987  1.0000
  Sn  Sn1       1.0  0.20384096000000004  0.19078083  0.5365120363628576  1.0000
  Sn  Sn2       1.0  0.21557549000000004  0.5263654  0.5339188221815665  1.0000
  Sn  Sn3       1.0  0.9268165100000001  0.6412733000000003  0.49935201526894746  1.0000
  Sn  Sn4       1.0  0.9268165100000001  0.30837958000000015  0.49935201526894746  1.0000
  Sn  Sn5       1.0  0.31558285  0.9239589300000001  0.5405183067778517  1.0000
  Sn  Sn6       1.0  0.07855890000000001  0.79885873  0.52639923473426  1.0000
  Sn  Sn7       1.0  0.50805468  0.76907537  0.5386754726833534  1.0000
  Sn  Sn8       1.0  0.046744549999999996  0.034790470000000025  0.5071351720708822  1.0000
  Sn  Sn9       1.0  0.35538794  0.7726653  0.5109410454082061  1.0000
  Sn  Sn10      1.0  0.35538794  0.10555902000000005  0.5109410454082061  1.0000
  Sn  Sn11      1.0  0.7787899800000001  0.07588695000000006  0.5243017353701945  1.0000
  Sn  Sn12      1.0  0.7896660900000001  0.75504022  0.5218601534741903  1.0000
  Sn  Sn13      1.0  0.48915953999999995  0.50565889  0.5199705729331202  1.0000
  Sn  Sn14      1.0  0.23545990000000003  0.3791481400000001  0.5031578853613424  1.0000
  Sn  Sn15      1.0  0.66866579  0.34805023000000007  0.5148209485547819  1.0000
  Sn  Sn16      1.0  0.90598068  0.4500514300000001  0.5297650178265596  1.0000
  Sn  Sn17      1.0  0.49824507999999995  0.34409387  0.4877629818847599  1.0000
  Sn  Sn18      1.0  0.49824507999999995  0.6769875899999999  0.4877629818847599  1.0000
  Sn  Sn19      1.0  0.2125308  0.78413045  0.4529958849771261  1.0000
  Sn  Sn20      1.0  0.2125308  0.4512367300000001  0.4529958849771261  1.0000
  Sn  Sn21      1.0  0.61817312  0.07050475000000005  0.49554614193162355  1.0000
  Sn  Sn22      1.0  0.37831704  0.9505767100000001  0.47997982183789617  1.0000
  Sn  Sn23      1.0  0.80688847  0.9148624200000001  0.4915688552220838  1.0000
  Sn  Sn24      1.0  0.33245884000000003  0.17764761000000007  0.4607790450239897  1.0000
  Sn  Sn25      1.0  0.6411022200000001  0.91552244  0.46458491836131366  1.0000
  Sn  Sn26      1.0  0.6411022200000001  0.24841616000000008  0.46458491836131366  1.0000
  Sn  Sn27      1.0  0.06967365000000002  0.21270188  0.4761739485005723  1.0000
  Sn  Sn28      1.0  0.06967365000000002  0.8798081599999998  0.4761739485005723  1.0000
  Sn  Sn29      1.0  0.76103027  0.64193332  0.47236807840817735  1.0000
  Sn  Sn30      1.0  0.52117418  0.5220052799999999  0.4568017583144499  1.0000
  Sn  Sn31      1.0  0.9497456100000002  0.4862909900000001  0.46839079169863757  1.0000
  Sn  Sn32      1.0  0.1896017  0.6062190400000002  0.48395710854743595  1.0000
  V   V1        1.0  0.030630280000000006  0.26552204000000007  0.5221077999624207  1.0000
  V   V2        1.0  0.5374873  0.03099063000000004  0.5225889158442634  1.0000
  V   V3        1.0  0.10907935  0.56595787  0.5111806120233308  1.0000
  V   V4        1.0  0.60169652  0.8122664500000001  0.5107014787930816  1.0000
  V   V5        1.0  0.1731251  0.8479807400000001  0.49911244540889393  1.0000
  V   V6        1.0  0.68050792  0.60167215  0.49959158188407204  1.0000
  V   V7        1.0  0.9693697200000001  0.009162120000000105  0.5322812817625363  1.0000
  V   V8        1.0  0.44769166  0.2393716  0.5334418338493587  1.0000
  V   V9        1.0  0.31598224  0.41940931  0.47593438188544773  1.0000
  V   V10       1.0  0.8233650700000001  0.17310072000000004  0.47641351836062584  1.0000
  V   V11       1.0  0.39479364  0.7088150100000001  0.46482448497643825  1.0000
  V   V12       1.0  0.8874108100000001  0.9551235900000004  0.4643453517461891  1.0000
  V   V13       1.0  0.45883937999999996  0.9908378800000001  0.4527563183620014  1.0000
  V   V14       1.0  0.9662222100000001  0.7445292900000001  0.45323545483717964  1.0000
  V   V15       1.0  0.2519365  0.13738644000000005  0.48800254849988445  1.0000
  V   V16       1.0  0.7445536700000002  0.38369502000000005  0.4875234152696353  1.0000
