data_image0
_chemical_formula_structural       COGa6Ni6Rh12
_chemical_formula_sum              "C1 O1 Ga6 Ni6 Rh12"
_cell_length_a       7.3529666717182876
_cell_length_b       6.00367215
_cell_length_c       102.33076396
_cell_angle_alpha    90.0
_cell_angle_beta     85.65224688643339
_cell_angle_gamma    114.09484252166517

_space_group_name_H-M_alt    "P 1"
_space_group_IT_number       1

loop_
  _space_group_symop_operation_xyz
  'x, y, z'

loop_
  _atom_site_type_symbol
  _atom_site_label
  _atom_site_symmetry_multiplicity
  _atom_site_fract_x
  _atom_site_fract_y
  _atom_site_fract_z
  _atom_site_occupancy
  C   C1        1.0  0.38635632000000003  0.713320455  0.537201788938182  1.0000
  O   O1        1.0  0.37763937000000003  0.709036145  0.5488707727695427  1.0000
  Ga  Ga1       1.0  0.35416666999999996  0.19791666499999996  0.4774578740740554  1.0000
  Ga  Ga2       1.0  0.5339410400000001  0.7879340650000002  0.5034723812195431  1.0000
  Ga  Ga3       1.0  0.18750000000000003  0.6145833350000001  0.45112922723045734  1.0000
  Ga  Ga4       1.0  0.9375  0.489583335  0.490622194336417  1.0000
  Ga  Ga5       1.0  0.11300052000000003  0.07757793500000001  0.5176253241883122  1.0000
  Ga  Ga6       1.0  0.7708333400000001  0.9062499950000003  0.46429355065225636  1.0000
  Ni  Ni1       1.0  0.35416666999999996  0.6979166649999999  0.4774578740740554  1.0000
  Ni  Ni2       1.0  0.5248879  0.283002845  0.5043374699248431  1.0000
  Ni  Ni3       1.0  0.18750000000000003  0.114583335  0.45112922723045734  1.0000
  Ni  Ni4       1.0  0.9375  0.989583335  0.490622194336417  1.0000
  Ni  Ni5       1.0  0.10806190000000004  0.5745227050000001  0.5172486434274929  1.0000
  Ni  Ni6       1.0  0.7708333400000001  0.40624999500000003  0.46429355065225636  1.0000
  Rh  Rh1       1.0  0.47916666999999996  0.010416664999999967  0.4577113905210755  1.0000
  Rh  Rh2       1.0  0.6458333400000001  0.5937499950000001  0.4840400342052362  1.0000
  Rh  Rh3       1.0  0.8268756  0.18999709499999995  0.5100347569539225  1.0000
  Rh  Rh4       1.0  0.40512887  0.954221825  0.5227219611009584  1.0000
  Rh  Rh5       1.0  0.06250000000000003  0.802083335  0.4708757107834371  1.0000
  Rh  Rh6       1.0  0.23244431000000002  0.38667351499999997  0.4970613930861116  1.0000
  Rh  Rh7       1.0  0.4056051  0.492091855  0.5226954439431247  1.0000
  Rh  Rh8       1.0  0.06250000000000003  0.302083335  0.4708757107834371  1.0000
  Rh  Rh9       1.0  0.23247131  0.8875922950000003  0.49707336103486344  1.0000
  Rh  Rh10      1.0  0.47916666999999996  0.5104166649999999  0.4577113905210755  1.0000
  Rh  Rh11      1.0  0.6458333400000001  0.09374999500000004  0.4840400342052362  1.0000
  Rh  Rh12      1.0  0.8266263000000001  0.6780859950000001  0.5100411674523432  1.0000
