data_image0
_chemical_formula_structural       CONi8Sb8Ni8Sb8
_chemical_formula_sum              "C1 O1 Ni16 Sb16"
_cell_length_a       6.93858536
_cell_length_b       6.563430043771701
_cell_length_c       109.38058027
_cell_angle_alpha    75.22973045925848
_cell_angle_beta     90.0
_cell_angle_gamma    90.0

_space_group_name_H-M_alt    "P 1"
_space_group_IT_number       1

loop_
  _space_group_symop_operation_xyz
  'x, y, z'

loop_
  _atom_site_type_symbol
  _atom_site_label
  _atom_site_symmetry_multiplicity
  _atom_site_fract_x
  _atom_site_fract_y
  _atom_site_fract_z
  _atom_site_occupancy
  C   C1        1.0  0.7039549350000001  0.5591122799999999  0.5582883968977113  1.0000
  O   O1        1.0  0.7916362050000001  0.5568471899999999  0.5674443152358497  1.0000
  Ni  Ni1       1.0  0.08333333499999998  0.5539501099999999  0.45505772544449263  1.0000
  Ni  Ni2       1.0  0.08333333499999998  0.05395010999999999  0.48506044515150704  1.0000
  Ni  Ni3       1.0  0.583333335  0.30395011  0.470059087098163  1.0000
  Ni  Ni4       1.0  0.583333335  0.8039501099999999  0.44005636379082214  1.0000
  Ni  Ni5       1.0  0.08333333499999998  0.30395011  0.44005636379082214  1.0000
  Ni  Ni6       1.0  0.08333333499999998  0.8039501099999999  0.470059087098163  1.0000
  Ni  Ni7       1.0  0.583333335  0.05395010999999999  0.45505772544449263  1.0000
  Ni  Ni8       1.0  0.583333335  0.5539501099999999  0.48506044515150704  1.0000
  Sb  Sb1       1.0  0.41666666499999994  0.42895011  0.4475570464178207  1.0000
  Sb  Sb2       1.0  0.41666666499999994  0.9289501099999999  0.47755976612483503  1.0000
  Sb  Sb3       1.0  0.9166666649999999  0.17895010999999997  0.46255840447116453  1.0000
  Sb  Sb4       1.0  0.9166666649999999  0.6789501099999998  0.4325556847641502  1.0000
  Sb  Sb5       1.0  0.25000000499999997  0.42895011  0.47755976612483503  1.0000
  Sb  Sb6       1.0  0.25000000499999997  0.9289501099999999  0.4475570464178207  1.0000
  Sb  Sb7       1.0  0.7500000050000001  0.17895010999999997  0.4325556847641502  1.0000
  Sb  Sb8       1.0  0.7500000050000001  0.6789501099999998  0.46255840447116453  1.0000
  Ni  Ni9       1.0  0.08333333499999998  0.5539501099999999  0.5150631684588479  1.0000
  Ni  Ni10      1.0  0.11104746499999997  0.09280733  0.5422859932608659  1.0000
  Ni  Ni11      1.0  0.5710002049999999  0.32023219999999997  0.5293775842143024  1.0000
  Ni  Ni12      1.0  0.583333335  0.8039501099999999  0.5000618068051774  1.0000
  Ni  Ni13      1.0  0.08333333499999998  0.30395011  0.5000618068051774  1.0000
  Ni  Ni14      1.0  0.09157580499999998  0.81866474  0.5291476457614879  1.0000
  Ni  Ni15      1.0  0.583333335  0.05395010999999999  0.5150631684588479  1.0000
  Ni  Ni16      1.0  0.577139665  0.5786522799999999  0.5438943275185749  1.0000
  Sb  Sb9       1.0  0.41666666499999994  0.42895011  0.5075624858318494  1.0000
  Sb  Sb10      1.0  0.42087337499999994  0.94604989  0.5375859506202079  1.0000
  Sb  Sb11      1.0  0.9084685849999998  0.18523607  0.523108940519287  1.0000
  Sb  Sb12      1.0  0.9166666649999999  0.6789501099999998  0.4925611277785055  1.0000
  Sb  Sb13      1.0  0.248814345  0.4510690399999999  0.5384081967886267  1.0000
  Sb  Sb14      1.0  0.25000000499999997  0.9289501099999999  0.5075624858318494  1.0000
  Sb  Sb15      1.0  0.7500000050000001  0.17895010999999997  0.4925611277785055  1.0000
  Sb  Sb16      1.0  0.7573113949999999  0.68233757  0.5229624792369069  1.0000
