data_image0
_chemical_formula_structural       In16Ir8CO
_chemical_formula_sum              "In16 Ir8 C1 O1"
_cell_length_a       5.49745703
_cell_length_b       5.744550325000776
_cell_length_c       125.58131114
_cell_angle_alpha    90.0
_cell_angle_beta     90.0
_cell_angle_gamma    118.5870394503012

_space_group_name_H-M_alt    "P 1"
_space_group_IT_number       1

loop_
  _space_group_symop_operation_xyz
  'x, y, z'

loop_
  _atom_site_type_symbol
  _atom_site_label
  _atom_site_symmetry_multiplicity
  _atom_site_fract_x
  _atom_site_fract_y
  _atom_site_fract_z
  _atom_site_occupancy
  In  In1       1.0  0.7091787249999999  0.905851695  0.508369894644555  1.0000
  In  In2       1.0  0.397475325  0.28244491499999996  0.508369894644555  1.0000
  In  In3       1.0  0.8974753249999998  0.7824449149999999  0.4714872067921258  1.0000
  In  In4       1.0  0.20917872499999995  0.40585169499999996  0.4714872067921258  1.0000
  In  In5       1.0  0.553327025  0.09414830499999995  0.4588499906680068  1.0000
  In  In6       1.0  0.553327025  0.09414830499999995  0.484124427342167  1.0000
  In  In7       1.0  0.05332702499999993  0.5941483049999999  0.5210071107686739  1.0000
  In  In8       1.0  0.05332702499999993  0.5941483049999999  0.49573267409451377  1.0000
  In  In9       1.0  0.20917872499999995  0.905851695  0.4346045233656188  1.0000
  In  In10      1.0  0.8974753249999998  0.28244491499999996  0.4346045233656188  1.0000
  In  In11      1.0  0.4120599449999999  0.8062379749999999  0.5456027260531384  1.0000
  In  In12      1.0  0.7407857949999999  0.43880941499999987  0.5454517666991426  1.0000
  In  In13      1.0  0.05332702499999994  0.09414830499999995  0.5326153575210208  1.0000
  In  In14      1.0  0.14043358499999992  0.23845826499999992  0.5582632667871893  1.0000
  In  In15      1.0  0.553327025  0.5941483049999999  0.44724174391565996  1.0000
  In  In16      1.0  0.553327025  0.5941483049999999  0.4219673028155776  1.0000
  Ir  Ir1       1.0  0.05332702499999993  0.5941483049999999  0.4539195531836319  1.0000
  Ir  Ir2       1.0  0.553327025  0.5941483049999999  0.4890548648265418  1.0000
  Ir  Ir3       1.0  0.553327025  0.09414830499999995  0.5259375482530487  1.0000
  Ir  Ir4       1.0  0.05332702499999994  0.09414830499999995  0.4908022366101389  1.0000
  Ir  Ir5       1.0  0.553327025  0.5941483049999999  0.5276849244625681  1.0000
  Ir  Ir6       1.0  0.05332702499999993  0.5941483049999999  0.41528949354760564  1.0000
  Ir  Ir7       1.0  0.05332702499999994  0.09414830499999995  0.4521721769741126  1.0000
  Ir  Ir8       1.0  0.553327025  0.09414830499999995  0.41703686975712495  1.0000
  C   C1        1.0  0.9466729749999999  0.705776915  0.57812049420287  1.0000
  O   O1        1.0  0.782026745  0.643613075  0.5847105064523943  1.0000
