data_image0
_chemical_formula_structural       COIn2Pt6In2Pt6In2Pt6In2Pt6
_chemical_formula_sum              "C1 O1 In8 Pt24"
_cell_length_a       8.14875764
_cell_length_b       5.76204179
_cell_length_c       104.57225074
_cell_angle_alpha    90.0
_cell_angle_beta     90.0
_cell_angle_gamma    90.0

_space_group_name_H-M_alt    "P 1"
_space_group_IT_number       1

loop_
  _space_group_symop_operation_xyz
  'x, y, z'

loop_
  _atom_site_type_symbol
  _atom_site_label
  _atom_site_symmetry_multiplicity
  _atom_site_fract_x
  _atom_site_fract_y
  _atom_site_fract_z
  _atom_site_occupancy
  C   C1        1.0  0.24312492999999996  0.615825345  0.551575525475281  1.0000
  O   O1        1.0  0.31162634  0.611949375  0.5614067270063775  1.0000
  In  In1       1.0  0.12587346  0.624093975  0.45236853561659024  1.0000
  In  In2       1.0  0.12587346  0.12409397500000004  0.4799190674746528  1.0000
  Pt  Pt1       1.0  0.37587346  0.3740939750000001  0.43859327299362255  1.0000
  Pt  Pt2       1.0  0.37587346  0.8740939750000001  0.46614380154562157  1.0000
  Pt  Pt3       1.0  0.37587346  0.8740939750000001  0.43859327299362255  1.0000
  Pt  Pt4       1.0  0.37587346  0.3740939750000001  0.46614380154562157  1.0000
  Pt  Pt5       1.0  0.12587346  0.624093975  0.4799190674746528  1.0000
  Pt  Pt6       1.0  0.12587346  0.12409397500000004  0.45236853561659024  1.0000
  In  In3       1.0  0.12959232999999998  0.623390525  0.5076545603645581  1.0000
  In  In4       1.0  0.12328792999999999  0.12211381500000003  0.5348382778586799  1.0000
  Pt  Pt7       1.0  0.37587346  0.3740939750000001  0.4936943300976205  1.0000
  Pt  Pt8       1.0  0.37667713999999997  0.8778861849999999  0.5215775511315731  1.0000
  Pt  Pt9       1.0  0.37587346  0.8740939750000001  0.4936943300976205  1.0000
  Pt  Pt10      1.0  0.37819605000000006  0.368100375  0.5214786436280939  1.0000
  Pt  Pt11      1.0  0.11462927999999999  0.6206817649999999  0.5367676502665204  1.0000
  Pt  Pt12      1.0  0.12737288  0.12365661500000003  0.5073889908910324  1.0000
  In  In5       1.0  0.62587346  0.624093975  0.45236853561659024  1.0000
  In  In6       1.0  0.62587346  0.12409397500000004  0.4799190674746528  1.0000
  Pt  Pt13      1.0  0.87587346  0.3740939750000001  0.43859327299362255  1.0000
  Pt  Pt14      1.0  0.87587346  0.8740939750000001  0.46614380154562157  1.0000
  Pt  Pt15      1.0  0.87587346  0.8740939750000001  0.43859327299362255  1.0000
  Pt  Pt16      1.0  0.87587346  0.3740939750000001  0.46614380154562157  1.0000
  Pt  Pt17      1.0  0.62587346  0.624093975  0.4799190674746528  1.0000
  Pt  Pt18      1.0  0.62587346  0.12409397500000004  0.45236853561659024  1.0000
  In  In7       1.0  0.62675195  0.623284885  0.5070252379419468  1.0000
  In  In8       1.0  0.63417241  0.12460766500000002  0.5348539287635659  1.0000
  Pt  Pt19      1.0  0.87587346  0.3740939750000001  0.4936943300976205  1.0000
  Pt  Pt20      1.0  0.88537072  0.8717160949999998  0.5215977511799154  1.0000
  Pt  Pt21      1.0  0.87587346  0.8740939750000001  0.4936943300976205  1.0000
  Pt  Pt22      1.0  0.88396673  0.373541235  0.5215491024546524  1.0000
  Pt  Pt23      1.0  0.63121839  0.624962165  0.5330523621607691  1.0000
  Pt  Pt24      1.0  0.6280514700000001  0.12245042500000004  0.507421102686376  1.0000
