data_image0
_chemical_formula_structural       COSi10Ni10Si10Ni10
_chemical_formula_sum              "C1 O1 Si20 Ni20"
_cell_length_a       7.260461927033328
_cell_length_b       5.643429682476692
_cell_length_c       109.21187115000001
_cell_angle_alpha    68.8359518768432
_cell_angle_beta     74.77873563407393
_cell_angle_gamma    76.92941917821835

_space_group_name_H-M_alt    "P 1"
_space_group_IT_number       1

loop_
  _space_group_symop_operation_xyz
  'x, y, z'

loop_
  _atom_site_type_symbol
  _atom_site_label
  _atom_site_symmetry_multiplicity
  _atom_site_fract_x
  _atom_site_fract_y
  _atom_site_fract_z
  _atom_site_occupancy
  C   C1        1.0  0.657686125  0.6553123949999999  0.5569230948158712  1.0000
  O   O1        1.0  0.5724846949999999  0.6144114850000001  0.5679608122519437  1.0000
  Si  Si1       1.0  0.23131153499999996  0.30644265499999995  0.4559905056406577  1.0000
  Si  Si2       1.0  0.6313115349999999  0.10644265499999998  0.46795863902393436  1.0000
  Si  Si3       1.0  0.8313115349999999  0.5064426550000001  0.444022372257381  1.0000
  Si  Si4       1.0  0.031311534999999974  0.906442655  0.47992677599765143  1.0000
  Si  Si5       1.0  0.431311535  0.7064426549999999  0.4320542352836639  1.0000
  Si  Si6       1.0  0.46881421500000003  0.5939345949999999  0.4574862005203487  1.0000
  Si  Si7       1.0  0.8688142149999999  0.393934595  0.4694543374940659  1.0000
  Si  Si8       1.0  0.06881421499999996  0.7939345949999999  0.445518067137072  1.0000
  Si  Si9       1.0  0.268814215  0.19393459499999993  0.4814224708773426  1.0000
  Si  Si10      1.0  0.668814215  0.9939345949999999  0.4335499337537953  1.0000
  Ni  Ni1       1.0  0.33143728499999997  0.006065404999999977  0.44400732113133307  1.0000
  Ni  Ni2       1.0  0.7314372849999999  0.8060654049999999  0.45597545451460975  1.0000
  Ni  Ni3       1.0  0.9314372849999999  0.20606540499999995  0.43203918774805633  1.0000
  Ni  Ni4       1.0  0.13143728499999993  0.606065405  0.4679435914883268  1.0000
  Ni  Ni5       1.0  0.531437285  0.406065405  0.4799117248716035  1.0000
  Ni  Ni6       1.0  0.3686884650000001  0.8943118449999999  0.46946938502967334  1.0000
  Ni  Ni7       1.0  0.768688465  0.6943118450000001  0.48143752200339046  1.0000
  Ni  Ni8       1.0  0.9686884650000002  0.09431184499999996  0.45750125164639666  1.0000
  Ni  Ni9       1.0  0.16868846499999995  0.49431184499999997  0.4335649812894029  1.0000
  Ni  Ni10      1.0  0.568688465  0.29431184499999996  0.44553311826312  1.0000
  Si  Si11      1.0  0.22711891499999995  0.30806151499999995  0.5161072127938772  1.0000
  Si  Si12      1.0  0.6248232650000001  0.09505794499999996  0.5290704546790174  1.0000
  Si  Si13      1.0  0.8313115349999999  0.5064426550000001  0.503863042764205  1.0000
  Si  Si14      1.0  0.05075260499999995  0.9173205049999998  0.5392249525066022  1.0000
  Si  Si15      1.0  0.431311535  0.7064426549999999  0.4918949093809282  1.0000
  Si  Si16      1.0  0.472486175  0.5993441949999999  0.5168764502822509  1.0000
  Si  Si17      1.0  0.8802565150000001  0.36091900499999996  0.5321657194688605  1.0000
  Si  Si18      1.0  0.06881421499999996  0.7939345949999999  0.5053587412343362  1.0000
  Si  Si19      1.0  0.27518106499999995  0.20590754499999994  0.5410916870849856  1.0000
  Si  Si20      1.0  0.668814215  0.9939345949999999  0.49339060426061926  1.0000
  Ni  Ni11      1.0  0.33143728499999997  0.006065404999999977  0.5038479952285974  1.0000
  Ni  Ni12      1.0  0.7376611949999999  0.8005191149999998  0.5157439499890349  1.0000
  Ni  Ni13      1.0  0.9314372849999999  0.20606540499999995  0.4918798582548803  1.0000
  Ni  Ni14      1.0  0.13976249499999996  0.6167202949999999  0.5272833201637261  1.0000
  Ni  Ni15      1.0  0.5422546850000001  0.431809535  0.5374670693090381  1.0000
  Ni  Ni16      1.0  0.37615026499999993  0.9163086049999999  0.5278685439924907  1.0000
  Ni  Ni17      1.0  0.791869985  0.7050333249999999  0.540275702062942  1.0000
  Ni  Ni18      1.0  0.9616243849999999  0.09769911499999998  0.5174650239918845  1.0000
  Ni  Ni19      1.0  0.16868846499999995  0.49431184499999997  0.4934056553866672  1.0000
  Ni  Ni20      1.0  0.568688465  0.29431184499999996  0.505373788769944  1.0000
