data_image0
_chemical_formula_structural       COIr18W6
_chemical_formula_sum              "C1 O1 Ir18 W6"
_cell_length_a       9.62726467
_cell_length_b       7.113508687642105
_cell_length_c       98.45403475
_cell_angle_alpha    85.17088062771009
_cell_angle_beta     90.0
_cell_angle_gamma    47.41455971691698

_space_group_name_H-M_alt    "P 1"
_space_group_IT_number       1

loop_
  _space_group_symop_operation_xyz
  'x, y, z'

loop_
  _atom_site_type_symbol
  _atom_site_label
  _atom_site_symmetry_multiplicity
  _atom_site_fract_x
  _atom_site_fract_y
  _atom_site_fract_z
  _atom_site_occupancy
  C   C1        1.0  0.837849915  0.05627576499999995  0.5313894359274767  1.0000
  O   O1        1.0  0.8364867450000003  0.04137528499999994  0.5435534144413348  1.0000
  Ir  Ir1       1.0  0.749274615  0.6680948349999999  0.4564663508373712  1.0000
  Ir  Ir2       1.0  0.09317154500000001  0.9985718349999999  0.5047336845421903  1.0000
  Ir  Ir3       1.0  0.41594128499999994  0.3347615049999999  0.48055037617644664  1.0000
  Ir  Ir4       1.0  0.5830436850000001  0.6731653149999999  0.49226782817240805  1.0000
  Ir  Ir5       1.0  0.915941285  0.0017017249999999398  0.4684885996732446  1.0000
  Ir  Ir6       1.0  0.24297098500000003  0.33581776499999993  0.5152573934706114  1.0000
  Ir  Ir7       1.0  0.415097885  0.5019248649999999  0.5046414937795877  1.0000
  Ir  Ir8       1.0  0.7491378350000003  0.8348982749999999  0.48054049498213525  1.0000
  Ir  Ir9       1.0  0.08247117500000001  0.16823161499999995  0.45645646675297663  1.0000
  Ir  Ir10      1.0  0.5847922750000001  0.9941091649999999  0.5046910673759676  1.0000
  Ir  Ir11      1.0  0.9158045050000001  0.3350350549999999  0.4805306108977407  1.0000
  Ir  Ir12      1.0  0.249137835  0.6683683850000001  0.45644658555866524  1.0000
  Ir  Ir13      1.0  0.9133512750000001  0.8403255449999998  0.5157888595324714  1.0000
  Ir  Ir14      1.0  0.24322059499999998  0.17626919499999993  0.4920889262448673  1.0000
  Ir  Ir15      1.0  0.5827447250000001  0.5015649449999999  0.468498480867556  1.0000
  Ir  Ir16      1.0  0.7458801050000001  0.3432822949999999  0.5157416962654439  1.0000
  Ir  Ir17      1.0  0.08577467499999998  0.6712623249999999  0.49203849140370676  1.0000
  Ir  Ir18      1.0  0.41607805500000006  0.0014281650000000923  0.46850836206186736  1.0000
  W   W1        1.0  0.4210304549999999  0.8357304649999999  0.5143991052451051  1.0000
  W   W2        1.0  0.748511875  0.17306364499999996  0.4927567204192927  1.0000
  W   W3        1.0  0.08260794499999996  0.5015649449999999  0.468498480867556  1.0000
  W   W4        1.0  0.917528825  0.501401075  0.505407623033406  1.0000
  W   W5        1.0  0.2492746150000001  0.8348982749999999  0.48054049498213525  1.0000
  W   W6        1.0  0.5826079449999999  0.16823161499999995  0.45645646675297663  1.0000
