data_image0
_chemical_formula_structural       CONi6Sb12Ni6Sb12
_chemical_formula_sum              "C1 O1 Ni12 Sb24"
_cell_length_a       6.42700254
_cell_length_b       9.467361072606407
_cell_length_c       109.34489305
_cell_angle_alpha    93.3518511152054
_cell_angle_beta     90.0
_cell_angle_gamma    90.0

_space_group_name_H-M_alt    "P 1"
_space_group_IT_number       1

loop_
  _space_group_symop_operation_xyz
  'x, y, z'

loop_
  _atom_site_type_symbol
  _atom_site_label
  _atom_site_symmetry_multiplicity
  _atom_site_fract_x
  _atom_site_fract_y
  _atom_site_fract_z
  _atom_site_occupancy
  C   C1        1.0  0.989199635  0.052768985000000025  0.5584294866183269  1.0000
  O   O1        1.0  0.9824279350000001  0.059188225000000025  0.5691193726404684  1.0000
  Ni  Ni1       1.0  0.007587145000000046  0.36959068500000003  0.46199700427811374  1.0000
  Ni  Ni2       1.0  0.007587145000000046  0.036257355000000026  0.4819872124361154  1.0000
  Ni  Ni3       1.0  0.007587145000000046  0.7029240250000001  0.4420067925218742  1.0000
  Ni  Ni4       1.0  0.5075871450000001  0.36959068500000003  0.4320116866437545  1.0000
  Ni  Ni5       1.0  0.5075871450000001  0.036257355000000026  0.452001898399994  1.0000
  Ni  Ni6       1.0  0.5075871450000001  0.7029240250000001  0.47199210655799556  1.0000
  Sb  Sb1       1.0  0.649584065  0.29568746500000004  0.453132957684217  1.0000
  Sb  Sb2       1.0  0.649584065  0.9623541349999999  0.4731231658422187  1.0000
  Sb  Sb3       1.0  0.649584065  0.6290207950000001  0.4331427459279776  1.0000
  Sb  Sb4       1.0  0.36559022500000005  0.11016057500000004  0.4308806273595314  1.0000
  Sb  Sb5       1.0  0.36559022500000005  0.776827245  0.4508708391157709  1.0000
  Sb  Sb6       1.0  0.36559022500000005  0.443493915  0.4708610472737726  1.0000
  Sb  Sb7       1.0  0.8655902250000002  0.29568746500000004  0.4831182717203384  1.0000
  Sb  Sb8       1.0  0.8655902250000002  0.9623541349999999  0.44313785180609727  1.0000
  Sb  Sb9       1.0  0.8655902250000002  0.6290207950000001  0.4631280635623367  1.0000
  Sb  Sb10      1.0  0.14958406500000004  0.443493915  0.44087573323765117  1.0000
  Sb  Sb11      1.0  0.14958406500000004  0.11016057500000004  0.4608659449938906  1.0000
  Sb  Sb12      1.0  0.14958406500000004  0.776827245  0.4808561531518923  1.0000
  Ni  Ni7       1.0  0.020782795000000045  0.36959470499999997  0.5219430311983246  1.0000
  Ni  Ni8       1.0  0.992412855  0.040881875000000026  0.5420667771586088  1.0000
  Ni  Ni9       1.0  0.007587145000000046  0.7029240250000001  0.5019774241923548  1.0000
  Ni  Ni10      1.0  0.5075871450000001  0.36959068500000003  0.4919823183142351  1.0000
  Ni  Ni11      1.0  0.5075871450000001  0.036257355000000026  0.5119725264722368  1.0000
  Ni  Ni12      1.0  0.509618755  0.7036291950000001  0.5308921833133354  1.0000
  Sb  Sb13      1.0  0.649584065  0.29568746500000004  0.5131035857564599  1.0000
  Sb  Sb14      1.0  0.6365503650000001  0.9637426449999998  0.532731267855026  1.0000
  Sb  Sb15      1.0  0.649584065  0.6290207950000001  0.49311337759845814  1.0000
  Sb  Sb16      1.0  0.36559022500000005  0.11016057500000004  0.49085125903001203  1.0000
  Sb  Sb17      1.0  0.36559022500000005  0.776827245  0.5108414671880136  1.0000
  Sb  Sb18      1.0  0.3822005150000001  0.44849097500000007  0.5312002176590996  1.0000
  Sb  Sb19      1.0  0.8280375450000002  0.29475175500000006  0.5409316410709263  1.0000
  Sb  Sb20      1.0  0.8655902250000002  0.9623541349999999  0.5031084834765779  1.0000
  Sb  Sb21      1.0  0.8828227450000001  0.6387676050000001  0.5241483515826515  1.0000
  Sb  Sb22      1.0  0.14958406500000004  0.443493915  0.5008463649081318  1.0000
  Sb  Sb23      1.0  0.15192132500000005  0.10631616500000003  0.5216326651944477  1.0000
  Sb  Sb24      1.0  0.17352839500000006  0.794226135  0.5407471450245199  1.0000
