data_image0
_chemical_formula_structural       Al8Fe12Si12CO
_chemical_formula_sum              "Al8 Fe12 Si12 C1 O1"
_cell_length_a       4.628601969034875
_cell_length_b       8.777617102536817
_cell_length_c       102.36671154999999
_cell_angle_alpha    99.6012019427349
_cell_angle_beta     84.7132811435001
_cell_angle_gamma    112.33832828876339

_space_group_name_H-M_alt    "P 1"
_space_group_IT_number       1

loop_
  _space_group_symop_operation_xyz
  'x, y, z'

loop_
  _atom_site_type_symbol
  _atom_site_label
  _atom_site_symmetry_multiplicity
  _atom_site_fract_x
  _atom_site_fract_y
  _atom_site_fract_z
  _atom_site_occupancy
  Al  Al1       1.0  0.596205895  0.16518823  0.5420741085880432  1.0000
  Al  Al2       1.0  0.5888638949999999  0.63698257  0.48942316616061043  1.0000
  Al  Al3       1.0  0.05542685499999982  0.9589401799999999  0.48925493732638753  1.0000
  Al  Al4       1.0  0.09133059499999992  0.46148009  0.5399417323882105  1.0000
  Al  Al5       1.0  0.949645635  0.041059820000000004  0.4499785634785835  1.0000
  Al  Al6       1.0  0.949645635  0.54105982  0.5026758869301341  1.0000
  Al  Al7       1.0  0.41620859499999996  0.8630174299999999  0.5025076580959111  1.0000
  Al  Al8       1.0  0.41620859499999996  0.36301743  0.4498103314825211  1.0000
  Fe  Fe1       1.0  0.3674278549999999  0.63043082  0.45884096887688486  1.0000
  Fe  Fe2       1.0  0.3674278549999999  0.13043082  0.5115382923284353  1.0000
  Fe  Fe3       1.0  0.6376446349999999  0.36956918  0.4803925319280863  1.0000
  Fe  Fe4       1.0  0.6262541749999998  0.8802548799999999  0.5322630469889673  1.0000
  Fe  Fe5       1.0  0.13765828499999985  0.6873155299999999  0.48338086551724846  1.0000
  Fe  Fe6       1.0  0.12838045499999995  0.19503714  0.5357862405154672  1.0000
  Fe  Fe7       1.0  0.8674142049999999  0.31268447  0.4558526352877227  1.0000
  Fe  Fe8       1.0  0.8674142049999999  0.81268447  0.5085499619011127  1.0000
  Fe  Fe9       1.0  0.04231514499999991  0.85398366  0.4631265989029903  1.0000
  Fe  Fe10      1.0  0.037242654999999965  0.35289479  0.515350187099066  1.0000
  Fe  Fe11      1.0  0.9627573450000001  0.14601633999999997  0.4761069019019808  1.0000
  Fe  Fe12      1.0  0.9583447549999998  0.6485703  0.5288968830610625  1.0000
  Si  Si1       1.0  0.45947358499999996  0.11957177  0.4661798861616905  1.0000
  Si  Si2       1.0  0.45760088499999996  0.62189888  0.5190619558971874  1.0000
  Si  Si3       1.0  0.726746735  0.21228998  0.49545748632098985  1.0000
  Si  Si4       1.0  0.7267467349999999  0.7122899799999999  0.4427601597075998  1.0000
  Si  Si5       1.0  0.545598905  0.88042823  0.4730536146432806  1.0000
  Si  Si6       1.0  0.5460337749999999  0.38104873  0.5256949229456546  1.0000
  Si  Si7       1.0  0.18171723499999998  0.43127697  0.4743647883939368  1.0000
  Si  Si8       1.0  0.17663548499999995  0.93649726  0.5282486996330024  1.0000
  Si  Si9       1.0  0.823355255  0.56872303  0.4648687124110344  1.0000
  Si  Si10      1.0  0.8218074049999999  0.06967622999999999  0.5175447851390798  1.0000
  Si  Si11      1.0  0.27832575499999995  0.78771002  0.44377601448398124  1.0000
  Si  Si12      1.0  0.278325755  0.28771002  0.49647334109737135  1.0000
  C   C1        1.0  0.8793082849999997  0.69792671  0.5459385562935614  1.0000
  O   O1        1.0  0.8171331249999999  0.7344526299999999  0.5572398402924001  1.0000
