data_image0
_chemical_formula_structural       COSi12Os8
_chemical_formula_sum              "C1 O1 Si12 Os8"
_cell_length_a       5.67085587
_cell_length_b       5.67085587
_cell_length_c       105.90155188
_cell_angle_alpha    90.0
_cell_angle_beta     90.0
_cell_angle_gamma    90.0

_space_group_name_H-M_alt    "P 1"
_space_group_IT_number       1

loop_
  _space_group_symop_operation_xyz
  'x, y, z'

loop_
  _atom_site_type_symbol
  _atom_site_label
  _atom_site_symmetry_multiplicity
  _atom_site_fract_x
  _atom_site_fract_y
  _atom_site_fract_z
  _atom_site_occupancy
  C   C1        1.0  0.005069375000000036  0.99614136  0.5401334177097288  1.0000
  O   O1        1.0  0.013900165000000025  0.9884427800000001  0.5512036125766471  1.0000
  Si  Si1       1.0  0.324155075  0.17264587  0.46998443379912797  1.0000
  Si  Si2       1.0  0.324351345  0.8181896  0.5133055574901744  1.0000
  Si  Si3       1.0  0.663370275  0.19095114999999996  0.5133906961456434  1.0000
  Si  Si4       1.0  0.661100335  0.83570061  0.46998443379912797  1.0000
  Si  Si5       1.0  0.698673535  0.36014493  0.48348047691135176  1.0000
  Si  Si6       1.0  0.286581875  0.64820155  0.48348047691135176  1.0000
  Si  Si7       1.0  0.13432401500000002  0.19857150999999998  0.499684887984212  1.0000
  Si  Si8       1.0  0.8510240849999999  0.8102352700000001  0.4996960142511248  1.0000
  Si  Si9       1.0  0.671750725  0.66672205  0.5251823083957388  1.0000
  Si  Si10      1.0  0.8485993949999998  0.21021906999999998  0.4564883906869042  1.0000
  Si  Si11      1.0  0.13665601500000002  0.7981274100000001  0.4564883906869042  1.0000
  Si  Si12      1.0  0.31637919500000006  0.34364873999999995  0.5251954754952786  1.0000
  Os  Os1       1.0  0.492627705  0.00417323999999999  0.4911724801749031  1.0000
  Os  Os2       1.0  0.492627705  0.00417323999999999  0.44879638742335287  1.0000
  Os  Os3       1.0  0.992627705  0.50417324  0.46998443379912797  1.0000
  Os  Os4       1.0  0.9940072649999998  0.5036181  0.5134343096203032  1.0000
  Os  Os5       1.0  0.492627705  0.50417324  0.45965644772153463  1.0000
  Os  Os6       1.0  0.9949306249999998  0.0038586399999999904  0.5219061618138051  1.0000
  Os  Os7       1.0  0.992627705  0.00417323999999999  0.4803124198767213  1.0000
  Os  Os8       1.0  0.493556165  0.50416747  0.5015196541472944  1.0000
