data_image0
_chemical_formula_structural       COAl20W4Al20W4
_chemical_formula_sum              "C1 O1 Al40 W8"
_cell_length_a       4.935080103194727
_cell_length_b       18.492494134375082
_cell_length_c       104.54556070999999
_cell_angle_alpha    105.47806019666774
_cell_angle_beta     119.99999997858582
_cell_angle_gamma    82.33188521370337

_space_group_name_H-M_alt    "P 1"
_space_group_IT_number       1

loop_
  _space_group_symop_operation_xyz
  'x, y, z'

loop_
  _atom_site_type_symbol
  _atom_site_label
  _atom_site_symmetry_multiplicity
  _atom_site_fract_x
  _atom_site_fract_y
  _atom_site_fract_z
  _atom_site_occupancy
  C   C1        1.0  0.9806896650000001  0.6328545200000001  0.5473457083793565  1.0000
  O   O1        1.0  0.15725401500000002  0.60812596  0.5580178320784192  1.0000
  Al  Al1       1.0  0.05430321500000005  0.43399850999999995  0.4577171907341773  1.0000
  Al  Al2       1.0  0.05430321500000005  0.9339985099999999  0.48131972330089456  1.0000
  Al  Al3       1.0  0.05430321500000005  0.18399850999999998  0.4459159227986415  1.0000
  Al  Al4       1.0  0.05430321500000005  0.6839985100000001  0.4695184553653587  1.0000
  Al  Al5       1.0  0.720969885  0.43399850999999995  0.47345221024241907  1.0000
  Al  Al6       1.0  0.720969885  0.9339985099999999  0.4498496776757019  1.0000
  Al  Al7       1.0  0.38763654500000005  0.18399850999999998  0.4773859651194795  1.0000
  Al  Al8       1.0  0.38763654500000005  0.6839985100000001  0.4537834325527623  1.0000
  Al  Al9       1.0  0.391821835  0.05899850999999998  0.45594787735434683  1.0000
  Al  Al10      1.0  0.391821835  0.5589985099999999  0.47955040992106396  1.0000
  Al  Al11      1.0  0.391821835  0.30899851  0.4518165551142321  1.0000
  Al  Al12      1.0  0.391821835  0.80899851  0.4754190876809493  1.0000
  Al  Al13      1.0  0.05430321500000005  0.30899851  0.4677491452898828  1.0000
  Al  Al14      1.0  0.05430321500000005  0.80899851  0.44414661272316563  1.0000
  Al  Al15      1.0  0.05430321500000005  0.05899850999999998  0.47128776544083456  1.0000
  Al  Al16      1.0  0.05430321500000005  0.5589985099999999  0.4476852328741173  1.0000
  Al  Al17      1.0  0.716784595  0.05899850999999998  0.48722035561648513  1.0000
  Al  Al18      1.0  0.716784595  0.5589985099999999  0.4636178230497679  1.0000
  Al  Al19      1.0  0.716784595  0.30899851  0.4830890333763705  1.0000
  Al  Al20      1.0  0.716784595  0.80899851  0.45948650080965325  1.0000
  W   W1        1.0  0.720969885  0.18399850999999998  0.4616509456112378  1.0000
  W   W2        1.0  0.720969885  0.6839985100000001  0.485253478177955  1.0000
  W   W3        1.0  0.38763654500000005  0.43399850999999995  0.441982167921581  1.0000
  W   W4        1.0  0.38763654500000005  0.9339985099999999  0.46558470048829825  1.0000
  Al  Al21      1.0  0.05430321500000005  0.43399850999999995  0.5049222558676119  1.0000
  Al  Al22      1.0  0.019310335000000123  0.94100149  0.5262996922035947  1.0000
  Al  Al23      1.0  0.05430321500000005  0.18399850999999998  0.4931209879320758  1.0000
  Al  Al24      1.0  0.06600857500000004  0.6894785999999999  0.5184952791010463  1.0000
  Al  Al25      1.0  0.7085675650000001  0.43594868999999997  0.5212367732639333  1.0000
  Al  Al26      1.0  0.720969885  0.9339985099999999  0.4970547428091363  1.0000
  Al  Al27      1.0  0.391811905  0.18825417999999997  0.5243631784797176  1.0000
  Al  Al28      1.0  0.38763654500000005  0.6839985100000001  0.5009885009905514  1.0000
  Al  Al29      1.0  0.391821835  0.05899850999999998  0.5031529457921359  1.0000
  Al  Al30      1.0  0.4081191250000001  0.5635476100000001  0.5267943772215036  1.0000
  Al  Al31      1.0  0.391821835  0.30899851  0.49902162355202107  1.0000
  Al  Al32      1.0  0.4209866950000001  0.8161893399999999  0.5241892207304619  1.0000
  Al  Al33      1.0  0.05806958500000005  0.31024071  0.515773683761714  1.0000
  Al  Al34      1.0  0.05430321500000005  0.80899851  0.49135167785659994  1.0000
  Al  Al35      1.0  0.09133891500000005  0.06831818999999999  0.5206741936715357  1.0000
  Al  Al36      1.0  0.05430321500000005  0.5589985099999999  0.49489030131190637  1.0000
  Al  Al37      1.0  0.728448925  0.06776153999999998  0.533964995280767  1.0000
  Al  Al38      1.0  0.7436590050000002  0.55903253  0.5119803738692981  1.0000
  Al  Al39      1.0  0.705805605  0.30721432000000004  0.5289928403539569  1.0000
  Al  Al40      1.0  0.7097815750000002  0.8081986900000001  0.5071057040126471  1.0000
  W   W5        1.0  0.719054505  0.18261746  0.5079073239230028  1.0000
  W   W6        1.0  0.692448155  0.6833293800000001  0.5303843503476892  1.0000
  W   W7        1.0  0.38763654500000005  0.43399850999999995  0.4891872330550155  1.0000
  W   W8        1.0  0.378117225  0.9341292  0.5125723390873795  1.0000
