data_image0
_chemical_formula_structural       COSn4Pt4Sn4Pt4
_chemical_formula_sum              "C1 O1 Sn8 Pt8"
_cell_length_a       6.9553917405612085
_cell_length_b       7.27984488
_cell_length_c       103.6241632
_cell_angle_alpha    90.0
_cell_angle_beta     72.41374774381839
_cell_angle_gamma    58.444525408294595

_space_group_name_H-M_alt    "P 1"
_space_group_IT_number       1

loop_
  _space_group_symop_operation_xyz
  'x, y, z'

loop_
  _atom_site_type_symbol
  _atom_site_label
  _atom_site_symmetry_multiplicity
  _atom_site_fract_x
  _atom_site_fract_y
  _atom_site_fract_z
  _atom_site_occupancy
  C   C1        1.0  0.8121030549999999  0.13162666500000006  0.5393949231205936  1.0000
  O   O1        1.0  0.7760064150000001  0.14621697499999997  0.5512320739889164  1.0000
  Sn  Sn1       1.0  0.12353226500000002  0.8041558950000001  0.49439819026589776  1.0000
  Sn  Sn2       1.0  0.136846765  0.2899491350000001  0.5144594057471729  1.0000
  Sn  Sn3       1.0  0.620964315  0.374192095  0.5055104129232032  1.0000
  Sn  Sn4       1.0  0.601220485  0.9155712349999996  0.5231787432763585  1.0000
  Pt  Pt1       1.0  0.874450165  0.08442876500000006  0.520035308848044  1.0000
  Pt  Pt2       1.0  0.876467735  0.585719505  0.4998339918258104  1.0000
  Pt  Pt3       1.0  0.37353226500000003  0.345822565  0.4893281609042518  1.0000
  Pt  Pt4       1.0  0.384807615  0.831219725  0.5082452695037543  1.0000
  Sn  Sn5       1.0  0.12353226500000002  0.8041558950000001  0.45383795537272953  1.0000
  Sn  Sn6       1.0  0.12353226500000002  0.304155895  0.4741180728193136  1.0000
  Sn  Sn7       1.0  0.623532265  0.387489225  0.46397801409602163  1.0000
  Sn  Sn8       1.0  0.623532265  0.8874892249999998  0.4842581315426057  1.0000
  Pt  Pt5       1.0  0.8735322649999999  0.09582256500000008  0.4791881021809597  1.0000
  Pt  Pt6       1.0  0.8735322649999999  0.5958225650000001  0.45890798473437555  1.0000
  Pt  Pt7       1.0  0.37353226500000003  0.345822565  0.44876792601108356  1.0000
  Pt  Pt8       1.0  0.37353226500000003  0.845822565  0.46904804345766765  1.0000
