data_image0
_chemical_formula_structural       COAl8Pt4Al8Pt4
_chemical_formula_sum              "C1 O1 Al16 Pt8"
_cell_length_a       8.45045896
_cell_length_b       5.97537683
_cell_length_c       103.80183584
_cell_angle_alpha    90.0
_cell_angle_beta     90.0
_cell_angle_gamma    90.0

_space_group_name_H-M_alt    "P 1"
_space_group_IT_number       1

loop_
  _space_group_symop_operation_xyz
  'x, y, z'

loop_
  _atom_site_type_symbol
  _atom_site_label
  _atom_site_symmetry_multiplicity
  _atom_site_fract_x
  _atom_site_fract_y
  _atom_site_fract_z
  _atom_site_occupancy
  C   C1        1.0  0.37679965  0.49999992500000007  0.5350764157758667  1.0000
  O   O1        1.0  0.37679964  0.49999995500000016  0.5463201924513612  1.0000
  Al  Al1       1.0  0.12320036  0.7381069750000002  0.5133470131219812  1.0000
  Al  Al2       1.0  0.12679962  0.7500000050000001  0.4740321907498028  1.0000
  Al  Al3       1.0  0.12320036999999999  0.26189291500000006  0.5133470196347438  1.0000
  Al  Al4       1.0  0.12679962  0.2500000050000001  0.4740321907498028  1.0000
  Al  Al5       1.0  0.37679962  0.2500000050000001  0.4536798075486388  1.0000
  Al  Al6       1.0  0.3767996  0.2566559850000001  0.49480216577767894  1.0000
  Al  Al7       1.0  0.37679962  0.7500000050000001  0.4536798075486388  1.0000
  Al  Al8       1.0  0.3767996  0.7433439850000001  0.4948021755468228  1.0000
  Pt  Pt1       1.0  0.12919795  0.9999999949999999  0.4942539637529164  1.0000
  Pt  Pt2       1.0  0.12679962  5.000000062245435e-09  0.4536798075486388  1.0000
  Pt  Pt3       1.0  0.37679966  0.49999993500000006  0.5163473060950146  1.0000
  Pt  Pt4       1.0  0.37679962  0.5000000050000001  0.4740321907498028  1.0000
  Al  Al9       1.0  0.6303988900000002  0.738106955  0.5133469968400746  1.0000
  Al  Al10      1.0  0.62679962  0.7500000050000001  0.4740321907498028  1.0000
  Al  Al11      1.0  0.6303988900000002  0.2618929350000001  0.5133470033528372  1.0000
  Al  Al12      1.0  0.62679962  0.2500000050000001  0.4740321907498028  1.0000
  Al  Al13      1.0  0.87679962  0.2500000050000001  0.4536798075486388  1.0000
  Al  Al14      1.0  0.8767996400000001  0.2475682750000001  0.49380635134688716  1.0000
  Al  Al15      1.0  0.87679962  0.7500000050000001  0.4536798075486388  1.0000
  Al  Al16      1.0  0.8767996400000001  0.7524317250000002  0.4938063448341245  1.0000
  Pt  Pt5       1.0  0.62440129  0.9999999949999999  0.4942539507273911  1.0000
  Pt  Pt6       1.0  0.62679962  5.000000062245435e-09  0.4536798075486388  1.0000
  Pt  Pt7       1.0  0.87679963  0.4999999750000001  0.5133750473086979  1.0000
  Pt  Pt8       1.0  0.87679962  0.5000000050000001  0.4740321907498028  1.0000
