data_image0
_chemical_formula_structural       V6Co2V6Co2CO
_chemical_formula_sum              "V12 Co4 C1 O1"
_cell_length_a       4.65570473
_cell_length_b       4.65570473
_cell_length_c       102.58993311
_cell_angle_alpha    90.0
_cell_angle_beta     90.0
_cell_angle_gamma    90.0

_space_group_name_H-M_alt    "P 1"
_space_group_IT_number       1

loop_
  _space_group_symop_operation_xyz
  'x, y, z'

loop_
  _atom_site_type_symbol
  _atom_site_label
  _atom_site_symmetry_multiplicity
  _atom_site_fract_x
  _atom_site_fract_y
  _atom_site_fract_z
  _atom_site_occupancy
  V   V1        1.0  0.36890084000000006  0.125  0.45874015841245247  1.0000
  V   V2        1.0  0.8689008400000001  0.125  0.45874015841245247  1.0000
  V   V3        1.0  0.11890084000000001  0.625  0.44739473726841283  1.0000
  V   V4        1.0  0.11890084000000001  0.625  0.4700855827332106  1.0000
  V   V5        1.0  0.6189008400000001  0.375  0.48143100705396874  1.0000
  V   V6        1.0  0.6189008400000001  0.8750000000000001  0.48143100705396874  1.0000
  Co  Co1       1.0  0.6189008400000001  0.625  0.45874015841245247  1.0000
  Co  Co2       1.0  0.11890084000000001  0.125  0.48143100705396874  1.0000
  V   V7        1.0  0.36788766000000006  0.12760808  0.5037787033941085  1.0000
  V   V8        1.0  0.86770029  0.12624700000000003  0.503700371871096  1.0000
  V   V9        1.0  0.11890084000000001  0.625  0.49277642819800843  1.0000
  V   V10       1.0  0.10998947000000002  0.63162333  0.5166093738256955  1.0000
  V   V11       1.0  0.61197933  0.34920713000000003  0.5256667698749685  1.0000
  V   V12       1.0  0.6034373700000001  0.8678413699999998  0.526268310099891  1.0000
  Co  Co3       1.0  0.6169547900000001  0.6308599  0.5040688330881931  1.0000
  Co  Co4       1.0  0.10772814000000003  0.13023761  0.5253087664149383  1.0000
  C   C1        1.0  0.80717129  0.21003377  0.5418899818084827  1.0000
  O   O1        1.0  0.89227186  0.15903339  0.5526052627315872  1.0000
