data_image0
_chemical_formula_structural       COCu6In6Pd12
_chemical_formula_sum              "C1 O1 Cu6 In6 Pd12"
_cell_length_a       7.810475966112998
_cell_length_b       6.37722692
_cell_length_c       104.34241798
_cell_angle_alpha    90.0
_cell_angle_beta     85.65224688495657
_cell_angle_gamma    114.09484254508152

_space_group_name_H-M_alt    "P 1"
_space_group_IT_number       1

loop_
  _space_group_symop_operation_xyz
  'x, y, z'

loop_
  _atom_site_type_symbol
  _atom_site_label
  _atom_site_symmetry_multiplicity
  _atom_site_fract_x
  _atom_site_fract_y
  _atom_site_fract_z
  _atom_site_occupancy
  C   C1        1.0  0.6785391599999999  0.6883319299999998  0.535875598950272  1.0000
  O   O1        1.0  0.71075702  0.7351480099999999  0.546659312632069  1.0000
  Cu  Cu1       1.0  0.35416667  0.1979166699999999  0.4807683443642815  1.0000
  Cu  Cu2       1.0  0.5373386299999999  0.7958984599999999  0.5075362630554899  1.0000
  Cu  Cu3       1.0  0.18749999999999997  0.6145833299999999  0.45334068736793104  1.0000
  Cu  Cu4       1.0  0.9374999999999999  0.48958332999999987  0.49448217450811616  1.0000
  Cu  Cu5       1.0  0.13794484999999998  0.10086535999999995  0.5218191457928528  1.0000
  Cu  Cu6       1.0  0.7708333399999999  0.9062499999999998  0.46705451422044675  1.0000
  In  In1       1.0  0.35416667  0.6979166699999999  0.4807683443642815  1.0000
  In  In2       1.0  0.54819371  0.29550002999999986  0.5081623377501945  1.0000
  In  In3       1.0  0.18749999999999997  0.11458332999999993  0.45334068736793104  1.0000
  In  In4       1.0  0.9374999999999999  0.9895833299999999  0.49448217450811616  1.0000
  In  In5       1.0  0.11037967999999998  0.5764452  0.5230980075270322  1.0000
  In  In6       1.0  0.7708333399999999  0.4062499999999999  0.46705451422044675  1.0000
  Pd  Pd1       1.0  0.4791666699999999  0.010416669999999906  0.46019760079418887  1.0000
  Pd  Pd2       1.0  0.6458333399999999  0.5937499999999998  0.4876252577905394  1.0000
  Pd  Pd3       1.0  0.8352281799999999  0.1841841799999999  0.5151367611376816  1.0000
  Pd  Pd4       1.0  0.8249244799999998  0.7085512699999998  0.5182390069992759  1.0000
  Pd  Pd5       1.0  0.4791666699999999  0.5104166699999998  0.46019760079418887  1.0000
  Pd  Pd6       1.0  0.6458333399999999  0.0937499999999999  0.4876252577905394  1.0000
  Pd  Pd7       1.0  0.4346198599999999  0.5093998299999998  0.5274073380386817  1.0000
  Pd  Pd8       1.0  0.062499999999999986  0.30208332999999987  0.4739114309380237  1.0000
  Pd  Pd9       1.0  0.22972391  0.8883314199999999  0.5015735845371162  1.0000
  Pd  Pd10      1.0  0.24034990999999994  0.3910289099999999  0.5015712378266898  1.0000
  Pd  Pd11      1.0  0.41257024000000003  0.9705910899999999  0.5269388023265343  1.0000
  Pd  Pd12      1.0  0.062499999999999986  0.8020833299999999  0.4739114309380237  1.0000
