data_image0
_chemical_formula_structural       COAu4In8
_chemical_formula_sum              "C1 O1 Au4 In8"
_cell_length_a       4.77878509
_cell_length_b       4.77878509
_cell_length_c       103.79111342
_cell_angle_alpha    90.0
_cell_angle_beta     90.0
_cell_angle_gamma    90.0

_space_group_name_H-M_alt    "P 1"
_space_group_IT_number       1

loop_
  _space_group_symop_operation_xyz
  'x, y, z'

loop_
  _atom_site_type_symbol
  _atom_site_label
  _atom_site_symmetry_multiplicity
  _atom_site_fract_x
  _atom_site_fract_y
  _atom_site_fract_z
  _atom_site_occupancy
  C   C1        1.0  0.74999998  0.94773854  0.5621568752128804  1.0000
  O   O1        1.0  0.74999996  0.7777811  0.5701730772912772  1.0000
  Au  Au1       1.0  0.7499999900000001  0.06906301000000001  0.4786621923766488  1.0000
  Au  Au2       1.0  0.24999999  0.56906301  0.44610534593136475  1.0000
  Au  Au3       1.0  0.7500000099999999  0.05226146000000001  0.5425609614284183  1.0000
  Au  Au4       1.0  0.24999999  0.56906301  0.5112190388219329  1.0000
  In  In1       1.0  0.7499999900000001  0.56906301  0.4298269227087228  1.0000
  In  In2       1.0  0.24999999  0.06906301000000001  0.4298269227087228  1.0000
  In  In3       1.0  0.24999999  0.06906301000000001  0.4623837691540068  1.0000
  In  In4       1.0  0.7499999900000001  0.56906301  0.4623837691540068  1.0000
  In  In5       1.0  0.7499999900000001  0.56906301  0.49494061559929087  1.0000
  In  In6       1.0  0.24999999  0.06906301000000001  0.49494061559929087  1.0000
  In  In7       1.0  0.25000000000000006  0.06504465000000001  0.527708378318586  1.0000
  In  In8       1.0  0.75  0.5572005099999999  0.5276024871755227  1.0000
