data_image0
_chemical_formula_structural       COAl8Cu8Al8Cu8
_chemical_formula_sum              "C1 O1 Al16 Cu16"
_cell_length_a       8.54227902
_cell_length_b       5.231056206833354
_cell_length_c       104.56721629
_cell_angle_alpha    92.89141685587643
_cell_angle_beta     90.0
_cell_angle_gamma    90.0

_space_group_name_H-M_alt    "P 1"
_space_group_IT_number       1

loop_
  _space_group_symop_operation_xyz
  'x, y, z'

loop_
  _atom_site_type_symbol
  _atom_site_label
  _atom_site_symmetry_multiplicity
  _atom_site_fract_x
  _atom_site_fract_y
  _atom_site_fract_z
  _atom_site_occupancy
  C   C1        1.0  0.6024030450000001  0.016796145000000005  0.542637604681709  1.0000
  O   O1        1.0  0.581186385  0.054709425000000006  0.5537681215038522  1.0000
  Al  Al1       1.0  0.12451442500000001  0.040262515000000006  0.4816505359583278  1.0000
  Al  Al2       1.0  0.374514425  0.0045482250000000056  0.44623187849614787  1.0000
  Al  Al3       1.0  0.12451442500000001  0.6831196549999999  0.45803809875212154  1.0000
  Al  Al4       1.0  0.374514425  0.36169108499999997  0.469844315702354  1.0000
  Al  Al5       1.0  0.13487948500000002  0.727746985  0.5294868468884437  1.0000
  Al  Al6       1.0  0.374514425  0.7188339349999999  0.4934567529085602  1.0000
  Al  Al7       1.0  0.117940325  0.41540748499999997  0.5056050149085152  1.0000
  Al  Al8       1.0  0.37306251500000004  0.007470215000000006  0.5180324070902473  1.0000
  Cu  Cu1       1.0  0.12451442500000001  0.183119655  0.4580380987521216  1.0000
  Cu  Cu2       1.0  0.374514425  0.8616910849999999  0.469844315702354  1.0000
  Cu  Cu3       1.0  0.12451442500000001  0.540262515  0.48165053595832774  1.0000
  Cu  Cu4       1.0  0.374514425  0.504548225  0.44623187849614787  1.0000
  Cu  Cu5       1.0  0.12165636500000002  0.9108840349999999  0.5044353444731878  1.0000
  Cu  Cu6       1.0  0.377458535  0.500502875  0.5193187900270293  1.0000
  Cu  Cu7       1.0  0.13172838500000003  0.225212575  0.5272286090742292  1.0000
  Cu  Cu8       1.0  0.374514425  0.21883393499999998  0.4934567529085603  1.0000
  Al  Al9       1.0  0.624514425  0.040262515000000006  0.4816505359583278  1.0000
  Al  Al10      1.0  0.874514425  0.0045482250000000056  0.44623187849614787  1.0000
  Al  Al11      1.0  0.624514425  0.6831196549999999  0.45803809875212154  1.0000
  Al  Al12      1.0  0.874514425  0.36169108499999997  0.469844315702354  1.0000
  Al  Al13      1.0  0.6243650850000001  0.7150502449999999  0.5284606125670377  1.0000
  Al  Al14      1.0  0.874514425  0.7188339349999999  0.4934567529085602  1.0000
  Al  Al15      1.0  0.6302589050000001  0.40338901499999996  0.5050024443889112  1.0000
  Al  Al16      1.0  0.882059675  0.9954517749999999  0.5194358562428003  1.0000
  Cu  Cu9       1.0  0.624514425  0.183119655  0.4580380987521216  1.0000
  Cu  Cu10      1.0  0.874514425  0.8616910849999999  0.469844315702354  1.0000
  Cu  Cu11      1.0  0.624514425  0.540262515  0.48165053595832774  1.0000
  Cu  Cu12      1.0  0.874514425  0.504548225  0.44623187849614787  1.0000
  Cu  Cu13      1.0  0.629386095  0.908407505  0.5054779190737159  1.0000
  Cu  Cu14      1.0  0.880615745  0.490991415  0.5236242337439461  1.0000
  Cu  Cu15      1.0  0.6250883850000001  0.228144785  0.5270993281444472  1.0000
  Cu  Cu16      1.0  0.874514425  0.21883393499999998  0.4934567529085603  1.0000
