data_image0
_chemical_formula_structural       COAl10Sb10Al10Sb10
_chemical_formula_sum              "C1 O1 Al20 Sb20"
_cell_length_a       8.88480422
_cell_length_b       13.327206337537536
_cell_length_c       101.72509673
_cell_angle_alpha    98.04946697110584
_cell_angle_beta     90.0
_cell_angle_gamma    90.0

_space_group_name_H-M_alt    "P 1"
_space_group_IT_number       1

loop_
  _space_group_symop_operation_xyz
  'x, y, z'

loop_
  _atom_site_type_symbol
  _atom_site_label
  _atom_site_symmetry_multiplicity
  _atom_site_fract_x
  _atom_site_fract_y
  _atom_site_fract_z
  _atom_site_occupancy
  C   C1        1.0  0.25099575999999996  0.52631855  0.542670615280967  1.0000
  O   O1        1.0  0.25099482999999995  0.54886514  0.5540591360591092  1.0000
  Al  Al1       1.0  0.0007777099999999733  0.21455545  0.5332872122708571  1.0000
  Al  Al2       1.0  0.0010332799999999732  0.7618382000000001  0.5144665742158436  1.0000
  Al  Al3       1.0  0.0009964999999999733  0.35833333  0.4511387100738803  1.0000
  Al  Al4       1.0  0.0009964999999999733  0.29166667  0.49272149785005054  1.0000
  Al  Al5       1.0  0.0009964999999999733  0.825  0.47193010396196544  1.0000
  Al  Al6       1.0  0.25099649999999996  0.024999999999999994  0.5031171932347387  1.0000
  Al  Al7       1.0  0.25099649999999996  0.55833333  0.48232579934665354  1.0000
  Al  Al8       1.0  0.25099629  0.48782892  0.5225510380764513  1.0000
  Al  Al9       1.0  0.25099649999999996  0.09166667  0.46153440857727734  1.0000
  Al  Al10      1.0  0.25099612  0.92037264  0.5387629759124831  1.0000
  Sb  Sb1       1.0  0.0009964999999999733  0.9083333300000002  0.49791934398304016  1.0000
  Sb  Sb2       1.0  0.0009964999999999733  0.44166667  0.4771279532136639  1.0000
  Sb  Sb3       1.0  0.9992222900000001  0.37374405  0.5198729652960912  1.0000
  Sb  Sb4       1.0  0.0009964999999999733  0.975  0.4563365593255788  1.0000
  Sb  Sb5       1.0  0.0010172799999999733  0.81450908  0.5417699071930979  1.0000
  Sb  Sb6       1.0  0.25099649999999996  0.175  0.487523648598352  1.0000
  Sb  Sb7       1.0  0.25099649999999996  0.7083333300000001  0.46673225471026697  1.0000
  Sb  Sb8       1.0  0.25099649999999996  0.64166667  0.5083150424864372  1.0000
  Sb  Sb9       1.0  0.25099649999999996  0.24166667  0.4459408639408907  1.0000
  Sb  Sb10      1.0  0.25099640999999995  0.10367802  0.5303225987516765  1.0000
  Al  Al11      1.0  0.5012204699999999  0.21455322  0.5332871530153874  1.0000
  Al  Al12      1.0  0.50095937  0.76183817  0.5144665679784256  1.0000
  Al  Al13      1.0  0.5009965  0.35833333  0.4511387100738803  1.0000
  Al  Al14      1.0  0.5009965  0.29166667  0.49272149785005054  1.0000
  Al  Al15      1.0  0.5009965  0.825  0.47193010396196544  1.0000
  Al  Al16      1.0  0.7509965  0.024999999999999994  0.5031171932347387  1.0000
  Al  Al17      1.0  0.7509965  0.55833333  0.48232579934665354  1.0000
  Al  Al18      1.0  0.7509962299999999  0.49133537  0.5225950056349081  1.0000
  Al  Al19      1.0  0.7509965  0.09166667  0.46153440857727734  1.0000
  Al  Al20      1.0  0.75099666  0.9198004100000001  0.5388207375205253  1.0000
  Sb  Sb11      1.0  0.5009965  0.9083333300000002  0.49791934398304016  1.0000
  Sb  Sb12      1.0  0.5009965  0.44166667  0.4771279532136639  1.0000
  Sb  Sb13      1.0  0.5027702399999999  0.3737441100000001  0.5198729497025465  1.0000
  Sb  Sb14      1.0  0.5009965  0.975  0.4563365593255788  1.0000
  Sb  Sb15      1.0  0.50097542  0.81450934  0.54176990095568  1.0000
  Sb  Sb16      1.0  0.7509965  0.175  0.487523648598352  1.0000
  Sb  Sb17      1.0  0.7509965  0.7083333300000001  0.46673225471026697  1.0000
  Sb  Sb18      1.0  0.7509965  0.64166667  0.5083150424864372  1.0000
  Sb  Sb19      1.0  0.7509965  0.24166667  0.4459408639408907  1.0000
  Sb  Sb20      1.0  0.7510018599999999  0.10308069  0.5303419784089506  1.0000
