data_image0
_chemical_formula_structural       COAl2Sb2Al2Sb2Al2Sb2Al2Sb2
_chemical_formula_sum              "C1 O1 Al8 Sb8"
_cell_length_a       8.86892762
_cell_length_b       8.868927622189348
_cell_length_c       40.894052880000004
_cell_angle_alpha    90.0
_cell_angle_beta     90.0
_cell_angle_gamma    120.00000006643099

_space_group_name_H-M_alt    "P 1"
_space_group_IT_number       1

loop_
  _space_group_symop_operation_xyz
  'x, y, z'

loop_
  _atom_site_type_symbol
  _atom_site_label
  _atom_site_symmetry_multiplicity
  _atom_site_fract_x
  _atom_site_fract_y
  _atom_site_fract_z
  _atom_site_occupancy
  C   C1        1.0  0.04191695500000012  0.21790149499999997  0.5634857223629783  1.0000
  O   O1        1.0  0.0963996150000001  0.24530661499999998  0.589897623483437  1.0000
  Al  Al1       1.0  0.4633773750000001  0.160891615  0.502987038978287  1.0000
  Al  Al2       1.0  0.28291823500000013  0.338118045  0.410102376516563  1.0000
  Sb  Sb1       1.0  0.4495848950000001  0.17145138499999998  0.4322983121998626  1.0000
  Sb  Sb2       1.0  0.2813855250000001  0.3377946049999999  0.49252934562952044  1.0000
  Al  Al3       1.0  0.4634749650000001  0.696249825  0.503038006704068  1.0000
  Al  Al4       1.0  0.28291823500000013  0.8381180449999999  0.410102376516563  1.0000
  Sb  Sb3       1.0  0.4495848950000001  0.671451385  0.4322983121998626  1.0000
  Sb  Sb4       1.0  0.28473608500000014  0.839108385  0.5282964044895341  1.0000
  Al  Al5       1.0  0.9409467950000002  0.167143295  0.516291223940308  1.0000
  Al  Al6       1.0  0.7829182350000001  0.338118045  0.410102376516563  1.0000
  Sb  Sb5       1.0  0.9495848950000001  0.17145138499999998  0.4322983121998626  1.0000
  Sb  Sb6       1.0  0.7799956350000002  0.351329345  0.5296373232909792  1.0000
  Al  Al7       1.0  0.9580830450000001  0.6757813649999999  0.5036342885265067  1.0000
  Al  Al8       1.0  0.782918235  0.8381180449999999  0.410102376516563  1.0000
  Sb  Sb7       1.0  0.9495848950000001  0.671451385  0.4322983121998626  1.0000
  Sb  Sb8       1.0  0.7797478350000002  0.8219835949999998  0.5297228815973071  1.0000
