data_image0
_chemical_formula_structural       COSb16Ir8
_chemical_formula_sum              "C1 O1 Sb16 Ir8"
_cell_length_a       9.47338972275033
_cell_length_b       6.8274108602365615
_cell_length_c       107.8935589
_cell_angle_alpha    72.58852466144016
_cell_angle_beta     89.53611574045605
_cell_angle_gamma    72.58852462690658

_space_group_name_H-M_alt    "P 1"
_space_group_IT_number       1

loop_
  _space_group_symop_operation_xyz
  'x, y, z'

loop_
  _atom_site_type_symbol
  _atom_site_label
  _atom_site_symmetry_multiplicity
  _atom_site_fract_x
  _atom_site_fract_y
  _atom_site_fract_z
  _atom_site_occupancy
  C   C1        1.0  0.357568495  0.9289002750000002  0.5411286103354839  1.0000
  O   O1        1.0  0.33856229499999996  0.782625095  0.5492685940731888  1.0000
  Sb  Sb1       1.0  0.5121987450000001  0.07109972499999989  0.5078443243346209  1.0000
  Sb  Sb2       1.0  0.015268714999999973  0.07617285499999997  0.4639893133746054  1.0000
  Sb  Sb3       1.0  0.6161958849999999  0.3338507149999999  0.4728510316297573  1.0000
  Sb  Sb4       1.0  0.11695525499999998  0.33607646500000005  0.5169661961723421  1.0000
  Sb  Sb5       1.0  0.501166495  0.833850715  0.4829509703762668  1.0000
  Sb  Sb6       1.0  0.984731285  0.8514835550000002  0.5258496720374736  1.0000
  Sb  Sb7       1.0  0.4081517749999999  0.554591465  0.5187692154193504  1.0000
  Sb  Sb8       1.0  0.9002393249999998  0.576172855  0.4740892486089906  1.0000
  Sb  Sb9       1.0  0.3617977849999999  0.7763097149999999  0.4507314059268112  1.0000
  Sb  Sb10      1.0  0.8617977849999999  0.7763097150000001  0.49463295955792425  1.0000
  Sb  Sb11      1.0  0.771861235  0.603466675  0.5321910723411489  1.0000
  Sb  Sb12      1.0  0.267191755  0.6337138549999998  0.4863262552801497  1.0000
  Sb  Sb13      1.0  0.654637425  0.13371385499999994  0.4523073206808237  1.0000
  Sb  Sb14      1.0  0.15463742499999997  0.133713855  0.4962088743119367  1.0000
  Sb  Sb15      1.0  0.24924346499999997  0.276309715  0.4606140249585981  1.0000
  Sb  Sb16      1.0  0.743952465  0.2777947349999999  0.504011044374761  1.0000
  Ir  Ir1       1.0  0.38653547499999996  0.16524695499999997  0.5280254576203015  1.0000
  Ir  Ir2       1.0  0.8945547249999999  0.16394139499999996  0.4853547665801575  1.0000
  Ir  Ir3       1.0  0.37286220499999995  0.246082175  0.4834500959198096  1.0000
  Ir  Ir4       1.0  0.879070875  0.25642427500000003  0.5248637801157661  1.0000
  Ir  Ir5       1.0  0.621880485  0.7460821750000002  0.46158551717071455  1.0000
  Ir  Ir6       1.0  0.12615161499999997  0.7436974950000002  0.505975926893945  1.0000
  Ir  Ir7       1.0  0.6470437250000001  0.6591078049999999  0.5082966367734958  1.0000
  Ir  Ir8       1.0  0.14357300499999995  0.6639413950000002  0.46349018783106255  1.0000
