data_image0
_chemical_formula_structural       COSb6Ir6Sb6Ir6
_chemical_formula_sum              "C1 O1 Sb12 Ir12"
_cell_length_a       5.62376671
_cell_length_b       10.794902439859273
_cell_length_c       98.56062727
_cell_angle_alpha    79.10660532889057
_cell_angle_beta     90.0
_cell_angle_gamma    90.0

_space_group_name_H-M_alt    "P 1"
_space_group_IT_number       1

loop_
  _space_group_symop_operation_xyz
  'x, y, z'

loop_
  _atom_site_type_symbol
  _atom_site_label
  _atom_site_symmetry_multiplicity
  _atom_site_fract_x
  _atom_site_fract_y
  _atom_site_fract_z
  _atom_site_occupancy
  C   C1        1.0  0.6351972450000001  0.7043155849999999  0.5362072410871378  1.0000
  O   O1        1.0  0.644667065  0.689582755  0.548297373766539  1.0000
  Sb  Sb1       1.0  0.36390155500000004  0.8333333349999998  0.4517026262334611  1.0000
  Sb  Sb2       1.0  0.36390155500000004  0.499999995  0.47930046069682725  1.0000
  Sb  Sb3       1.0  0.36390155500000004  0.16666666499999994  0.46550154346514416  1.0000
  Sb  Sb4       1.0  0.863901555  0.6111111149999999  0.45630226627661297  1.0000
  Sb  Sb5       1.0  0.863901555  0.27777777499999995  0.4839000978422066  1.0000
  Sb  Sb6       1.0  0.863901555  0.9444444450000001  0.4701011806105236  1.0000
  Ir  Ir1       1.0  0.613901555  0.722222225  0.4747008206536754  1.0000
  Ir  Ir2       1.0  0.613901555  0.3888888849999999  0.46090190342199233  1.0000
  Ir  Ir3       1.0  0.613901555  0.05555555499999995  0.48849973788535844  1.0000
  Ir  Ir4       1.0  0.11390155500000004  0.722222225  0.4747008206536754  1.0000
  Ir  Ir5       1.0  0.11390155500000004  0.3888888849999999  0.46090190342199233  1.0000
  Ir  Ir6       1.0  0.11390155500000004  0.05555555499999995  0.48849973788535844  1.0000
  Sb  Sb7       1.0  0.36390155500000004  0.8333333349999998  0.4930993750307378  1.0000
  Sb  Sb8       1.0  0.35345814500000006  0.501454735  0.5212365255202862  1.0000
  Sb  Sb9       1.0  0.35170217500000006  0.17769558499999993  0.5058486147526142  1.0000
  Sb  Sb10      1.0  0.8612913749999999  0.6159651549999999  0.49812200871743006  1.0000
  Sb  Sb11      1.0  0.861586135  0.2634362149999999  0.5268855938648119  1.0000
  Sb  Sb12      1.0  0.8895394049999998  0.943010485  0.5125236944991534  1.0000
  Ir  Ir7       1.0  0.611215205  0.726929775  0.517037427179548  1.0000
  Ir  Ir8       1.0  0.619020785  0.393373775  0.5033879828476068  1.0000
  Ir  Ir9       1.0  0.603125865  0.06586144499999995  0.5259919411183102  1.0000
  Ir  Ir10      1.0  0.11906245500000004  0.722826475  0.5143724733374153  1.0000
  Ir  Ir11      1.0  0.11046059500000004  0.398015065  0.5017992066445532  1.0000
  Ir  Ir12      1.0  0.13560220500000003  0.06684251499999995  0.5280557636518501  1.0000
