data_image0
_chemical_formula_structural       COAg12Pd4Ag12Pd4
_chemical_formula_sum              "C1 O1 Ag24 Pd8"
_cell_length_a       9.241517566658013
_cell_length_b       5.87362479
_cell_length_c       105.24174875
_cell_angle_alpha    90.0
_cell_angle_beta     71.47099747545565
_cell_angle_gamma    71.47099747545565

_space_group_name_H-M_alt    "P 1"
_space_group_IT_number       1

loop_
  _space_group_symop_operation_xyz
  'x, y, z'

loop_
  _atom_site_type_symbol
  _atom_site_label
  _atom_site_symmetry_multiplicity
  _atom_site_fract_x
  _atom_site_fract_y
  _atom_site_fract_z
  _atom_site_occupancy
  C   C1        1.0  0.95218566  0.08609150999999997  0.5551842274635261  1.0000
  O   O1        1.0  0.91885916  0.10322099999999987  0.5668681196651062  1.0000
  Ag  Ag1       1.0  0.49446700000000005  0.06109504999999991  0.5241927889400277  1.0000
  Ag  Ag2       1.0  0.49784884000000007  0.5639049500000001  0.49591901537501726  1.0000
  Ag  Ag3       1.0  0.4942543100000001  0.5691898299999999  0.5241986725131619  1.0000
  Ag  Ag4       1.0  0.49784884000000007  0.06390494999999988  0.49591901537501726  1.0000
  Ag  Ag5       1.0  0.24659903999999996  0.43965163  0.5173144867598835  1.0000
  Ag  Ag6       1.0  0.24784883999999996  0.9389049500000001  0.4889426681534415  1.0000
  Ag  Ag7       1.0  0.0021511599999999792  0.3099033799999999  0.5097830711267282  1.0000
  Ag  Ag8       1.0  0.99402711  0.8128848699999999  0.5377690184187731  1.0000
  Ag  Ag9       1.0  0.002409749999999979  0.81284814  0.5097778204479152  1.0000
  Ag  Ag10      1.0  0.99283654  0.32149018  0.5378478891063252  1.0000
  Ag  Ag11      1.0  0.7412048800000001  0.1931055099999999  0.5302439551693604  1.0000
  Ag  Ag12      1.0  0.7478488400000001  0.68890495  0.5028953625965931  1.0000
  Pd  Pd1       1.0  0.24784883999999996  0.43890495000000007  0.4889426681534415  1.0000
  Pd  Pd2       1.0  0.2533914199999999  0.9364156  0.5165781661211937  1.0000
  Pd  Pd3       1.0  0.7478488400000001  0.18890495000000002  0.5028953625965931  1.0000
  Pd  Pd4       1.0  0.75813832  0.6843464399999999  0.5295734655860175  1.0000
  Ag  Ag13      1.0  0.49784884000000007  0.06390494999999988  0.46801362314006706  1.0000
  Ag  Ag14      1.0  0.49784884000000007  0.5639049500000001  0.44010822755646956  1.0000
  Ag  Ag15      1.0  0.49784884000000007  0.5639049500000001  0.46801362314006706  1.0000
  Ag  Ag16      1.0  0.49784884000000007  0.06390494999999988  0.44010822755646956  1.0000
  Ag  Ag17      1.0  0.24784883999999996  0.43890495000000007  0.4610372725698441  1.0000
  Ag  Ag18      1.0  0.24784883999999996  0.9389049500000001  0.4331318803348938  1.0000
  Ag  Ag19      1.0  0.99784884  0.31390494999999996  0.45406092534826825  1.0000
  Ag  Ag20      1.0  0.99784884  0.8139049500000001  0.48196631758321856  1.0000
  Ag  Ag21      1.0  0.99784884  0.8139049500000001  0.45406092534826825  1.0000
  Ag  Ag22      1.0  0.99784884  0.31390494999999996  0.48196631758321856  1.0000
  Ag  Ag23      1.0  0.7478488400000001  0.18890495000000002  0.47498997036164287  1.0000
  Ag  Ag24      1.0  0.7478488400000001  0.68890495  0.4470845781266925  1.0000
  Pd  Pd5       1.0  0.24784883999999996  0.43890495000000007  0.4331318803348938  1.0000
  Pd  Pd6       1.0  0.24784883999999996  0.9389049500000001  0.4610372725698441  1.0000
  Pd  Pd7       1.0  0.7478488400000001  0.18890495000000002  0.4470845781266925  1.0000
  Pd  Pd8       1.0  0.7478488400000001  0.68890495  0.47498997036164287  1.0000
