data_image0
_chemical_formula_structural       Fe2Pt2Fe2Pt2Fe2Pt2Fe2Pt2Fe2Pt2Fe2Pt2CO
_chemical_formula_sum              "Fe12 Pt12 C1 O1"
_cell_length_a       5.34834606
_cell_length_b       7.876316251222661
_cell_length_c       40.58409667
_cell_angle_alpha    70.15231995930297
_cell_angle_beta     90.0
_cell_angle_gamma    90.0

_space_group_name_H-M_alt    "P 1"
_space_group_IT_number       1

loop_
  _space_group_symop_operation_xyz
  'x, y, z'

loop_
  _atom_site_type_symbol
  _atom_site_label
  _atom_site_symmetry_multiplicity
  _atom_site_fract_x
  _atom_site_fract_y
  _atom_site_fract_z
  _atom_site_occupancy
  Fe  Fe1       1.0  0.12442587499999999  0.11438310500000001  0.5338700807306105  1.0000
  Fe  Fe2       1.0  0.124388325  0.633439025  0.5527906862170515  1.0000
  Pt  Pt1       1.0  0.37740775499999996  0.382630935  0.5424691600093565  1.0000
  Pt  Pt2       1.0  0.377815635  0.8475136950000001  0.5750594954333305  1.0000
  Fe  Fe3       1.0  0.124412865  0.12317868500000002  0.45828506647832473  1.0000
  Fe  Fe4       1.0  0.124412865  0.6231786850000001  0.49123114039444155  1.0000
  Pt  Pt3       1.0  0.37441286499999993  0.373178685  0.4747580998123153  1.0000
  Pt  Pt4       1.0  0.373218645  0.8856086850000001  0.5066006450929647  1.0000
  Fe  Fe5       1.0  0.124412865  0.12317868500000002  0.3923929258942266  1.0000
  Fe  Fe6       1.0  0.124412865  0.6231786850000001  0.42533899981034334  1.0000
  Pt  Pt5       1.0  0.37441286499999993  0.373178685  0.4088659592282172  1.0000
  Pt  Pt6       1.0  0.37441286499999993  0.8731786850000002  0.441812033144334  1.0000
  Fe  Fe7       1.0  0.624410615  0.125411095  0.5238606519909916  1.0000
  Fe  Fe8       1.0  0.6244409649999999  0.631717225  0.552649507033067  1.0000
  Pt  Pt7       1.0  0.8714141149999999  0.3826171650000001  0.5424705444032439  1.0000
  Pt  Pt8       1.0  0.8710099749999999  0.8475234150000002  0.5750597491180742  1.0000
  Fe  Fe9       1.0  0.6244128649999999  0.12317868500000002  0.45828506647832473  1.0000
  Fe  Fe10      1.0  0.6244128649999999  0.6231786850000001  0.49123114039444155  1.0000
  Pt  Pt9       1.0  0.8744128649999998  0.373178685  0.4747580998123153  1.0000
  Pt  Pt10      1.0  0.8756116749999999  0.8856168950000001  0.5065992534509416  1.0000
  Fe  Fe11      1.0  0.6244128649999999  0.12317868500000002  0.3923929258942266  1.0000
  Fe  Fe12      1.0  0.6244128649999999  0.6231786850000001  0.42533899981034334  1.0000
  Pt  Pt11      1.0  0.8744128649999998  0.373178685  0.4088659592282172  1.0000
  Pt  Pt12      1.0  0.8744128649999998  0.8731786850000002  0.441812033144334  1.0000
  C   C1        1.0  0.124402535  0.16604747500000003  0.576050547501539  1.0000
  O   O1        1.0  0.12441630499999999  0.11926824500000001  0.6076070741057733  1.0000
