data_image0
_chemical_formula_structural       COSn3Pt9
_chemical_formula_sum              "C1 O1 Sn3 Pt9"
_cell_length_a       5.77174691
_cell_length_b       5.771746913994469
_cell_length_c       98.27566971
_cell_angle_alpha    90.0
_cell_angle_beta     90.0
_cell_angle_gamma    59.99999996558038

_space_group_name_H-M_alt    "P 1"
_space_group_IT_number       1

loop_
  _space_group_symop_operation_xyz
  'x, y, z'

loop_
  _atom_site_type_symbol
  _atom_site_label
  _atom_site_symmetry_multiplicity
  _atom_site_fract_x
  _atom_site_fract_y
  _atom_site_fract_z
  _atom_site_occupancy
  C   C1        1.0  0.273387605  0.540425745  0.5259847274909999  1.0000
  O   O1        1.0  0.283947675  0.523230055  0.5380562285056824  1.0000
  Sn  Sn1       1.0  0.6732875950000001  0.7463026349999999  0.4619437714943177  1.0000
  Sn  Sn2       1.0  0.992853485  0.10747341500000004  0.5099980504302885  1.0000
  Sn  Sn3       1.0  0.34152131499999994  0.410754805  0.48482303880517447  1.0000
  Pt  Pt1       1.0  0.835615805  0.41344720500000004  0.48638783002978464  1.0000
  Pt  Pt2       1.0  0.17328759499999996  0.7463026349999999  0.4619437714943177  1.0000
  Pt  Pt3       1.0  0.5120674249999999  0.08803667500000004  0.5088005857766249  1.0000
  Pt  Pt4       1.0  0.3399856349999999  0.911963325  0.48621639043946574  1.0000
  Pt  Pt5       1.0  0.6732875949999999  0.246302635  0.4619437714943177  1.0000
  Pt  Pt6       1.0  0.00714651499999992  0.5808468950000001  0.5111919272416882  1.0000
  Pt  Pt7       1.0  0.851114315  0.901761805  0.48612351222285305  1.0000
  Pt  Pt8       1.0  0.17328759499999988  0.246302635  0.4619437714943177  1.0000
  Pt  Pt9       1.0  0.48977551499999994  0.597644385  0.5111972586544506  1.0000
