data_image0
_chemical_formula_structural       COIr10Sn20
_chemical_formula_sum              "C1 O1 Ir10 Sn20"
_cell_length_a       13.717263185363237
_cell_length_b       4.57242106
_cell_length_c       102.65361775
_cell_angle_alpha    90.0
_cell_angle_beta     81.95053304380687
_cell_angle_gamma    90.0

_space_group_name_H-M_alt    "P 1"
_space_group_IT_number       1

loop_
  _space_group_symop_operation_xyz
  'x, y, z'

loop_
  _atom_site_type_symbol
  _atom_site_label
  _atom_site_symmetry_multiplicity
  _atom_site_fract_x
  _atom_site_fract_y
  _atom_site_fract_z
  _atom_site_occupancy
  C   C1        1.0  0.393345495  0.24960184999999993  0.5535044977722265  1.0000
  O   O1        1.0  0.39352567499999996  0.25070606999999995  0.5649029507218899  1.0000
  Ir  Ir1       1.0  0.25735608499999996  0.25021969999999993  0.45100180668740275  1.0000
  Ir  Ir2       1.0  0.7906894249999998  0.25021969999999993  0.47220815096010993  1.0000
  Ir  Ir3       1.0  0.40664003499999996  0.25198985999999995  0.5349872630823015  1.0000
  Ir  Ir4       1.0  0.32402275500000005  0.25021969999999993  0.4934144952328172  1.0000
  Ir  Ir5       1.0  0.8586772149999999  0.24963503999999997  0.5146079152996537  1.0000
  Ir  Ir6       1.0  0.057356084999999966  0.7502196999999999  0.4828113215059879  1.0000
  Ir  Ir7       1.0  0.590689425  0.7502196999999999  0.5040176657786951  1.0000
  Ir  Ir8       1.0  0.524022755  0.7502196999999999  0.46160498041423204  1.0000
  Ir  Ir9       1.0  0.12336603499999999  0.75039815  0.5237027868051847  1.0000
  Ir  Ir10      1.0  0.990689425  0.7502196999999999  0.4403986361415248  1.0000
  Sn  Sn1       1.0  0.17402275499999997  0.25021969999999993  0.4775097378235246  1.0000
  Sn  Sn2       1.0  0.707356085  0.25021969999999993  0.4987160789152804  1.0000
  Sn  Sn3       1.0  0.640689425  0.25021969999999993  0.45630339355081734  1.0000
  Sn  Sn4       1.0  0.24460143499999998  0.25008822999999997  0.5219409150365099  1.0000
  Sn  Sn5       1.0  0.10735608499999996  0.25021969999999993  0.4350970492781101  1.0000
  Sn  Sn6       1.0  0.940689425  0.25021969999999993  0.4881129083694026  1.0000
  Sn  Sn7       1.0  0.473863145  0.25002656999999995  0.5084004093589631  1.0000
  Sn  Sn8       1.0  0.407356085  0.25021969999999993  0.4669065640966953  1.0000
  Sn  Sn9       1.0  0.009310574999999963  0.25011240999999995  0.5298304126922627  1.0000
  Sn  Sn10      1.0  0.8740227549999999  0.25021969999999993  0.4457002230049395  1.0000
  Sn  Sn11      1.0  0.9728339249999999  0.74995325  0.5089042307213202  1.0000
  Sn  Sn12      1.0  0.504572445  0.7472207399999999  0.5306292609426594  1.0000
  Sn  Sn13      1.0  0.44068942499999997  0.7502196999999999  0.4881129083694025  1.0000
  Sn  Sn14      1.0  0.374022755  0.7502196999999999  0.44570022300493956  1.0000
  Sn  Sn15      1.0  0.907356085  0.7502196999999999  0.4669065640966953  1.0000
  Sn  Sn16      1.0  0.20735608499999997  0.7502196999999999  0.4987160789152804  1.0000
  Sn  Sn17      1.0  0.743915545  0.7503426999999999  0.5205707138237964  1.0000
  Sn  Sn18      1.0  0.6740227549999999  0.7502196999999999  0.4775097378235246  1.0000
  Sn  Sn19      1.0  0.6073560849999998  0.7502196999999999  0.43509704927811016  1.0000
  Sn  Sn20      1.0  0.14068942499999995  0.7502196999999999  0.45630339355081734  1.0000
