data_image0
_chemical_formula_structural       COAs12Si12
_chemical_formula_sum              "C1 O1 As12 Si12"
_cell_length_a       9.118568962194976
_cell_length_b       10.29740631172188
_cell_length_c       99.30354768000001
_cell_angle_alpha    83.35034616693109
_cell_angle_beta     84.03854411737056
_cell_angle_gamma    68.15296846203913

_space_group_name_H-M_alt    "P 1"
_space_group_IT_number       1

loop_
  _space_group_symop_operation_xyz
  'x, y, z'

loop_
  _atom_site_type_symbol
  _atom_site_label
  _atom_site_symmetry_multiplicity
  _atom_site_fract_x
  _atom_site_fract_y
  _atom_site_fract_z
  _atom_site_occupancy
  C   C1        1.0  0.5675795250000001  0.880701105  0.5352151331397397  1.0000
  O   O1        1.0  0.5949581750000001  0.871641255  0.5465659392950426  1.0000
  As  As1       1.0  0.7490071450000001  0.9316857749999998  0.5059478425623642  1.0000
  As  As2       1.0  0.21695244499999997  0.050970405000000045  0.4921502333272636  1.0000
  As  As3       1.0  0.8288659449999999  0.315440955  0.5053937095503924  1.0000
  As  As4       1.0  0.1443433749999999  0.653472695  0.49374629893766847  1.0000
  As  As5       1.0  0.502125855  0.6575828650000001  0.5199842273416897  1.0000
  As  As6       1.0  0.360758965  0.294812265  0.5149937370223733  1.0000
  As  As7       1.0  0.885326455  0.9490295949999998  0.46721066833903657  1.0000
  As  As8       1.0  0.35134698499999995  0.05797953500000003  0.456705845742877  1.0000
  As  As9       1.0  0.948362635  0.3415443150000001  0.468450760205671  1.0000
  As  As10      1.0  0.28831080500000006  0.665464815  0.45546575387624266  1.0000
  As  As11      1.0  0.6406036649999999  0.6893699050000001  0.48206901925011836  1.0000
  As  As12      1.0  0.471069765  0.3176392250000001  0.4787338280858609  1.0000
  Si  Si1       1.0  0.7267833550000001  0.5598854150000001  0.5051151764439136  1.0000
  Si  Si2       1.0  0.23644837499999996  0.40125637500000005  0.49443697038989054  1.0000
  Si  Si3       1.0  0.8888381849999999  0.6909062250000001  0.5035635544351644  1.0000
  Si  Si4       1.0  0.05328342499999994  0.2986031150000001  0.49105380633989404  1.0000
  Si  Si5       1.0  0.5267742649999999  0.876007895  0.517157199969127  1.0000
  Si  Si6       1.0  0.3279763849999999  0.09679047500000004  0.5108795596784287  1.0000
  Si  Si7       1.0  0.874978375  0.5937093550000001  0.46700709415754676  1.0000
  Si  Si8       1.0  0.36169506500000004  0.41329977500000004  0.4569094199243669  1.0000
  Si  Si9       1.0  0.05163736499999998  0.704234625  0.47048245632786256  1.0000
  Si  Si10      1.0  0.18503606499999997  0.302774505  0.4534340607049575  1.0000
  Si  Si11      1.0  0.6777788049999999  0.9116869249999999  0.48280035419286665  1.0000
  Si  Si12      1.0  0.433894635  0.09532220500000003  0.4780024901922062  1.0000
