data_image0
_chemical_formula_structural       AlPdAlPdAlPdAlPdAlPdAlPdAlPdAlPdAlPdAlPdAlPdAlPdCO
_chemical_formula_sum              "Al12 Pd12 C1 O1"
_cell_length_a       6.19851436
_cell_length_b       6.19851436
_cell_length_c       39.0074282
_cell_angle_alpha    90.0
_cell_angle_beta     90.0
_cell_angle_gamma    90.0

_space_group_name_H-M_alt    "P 1"
_space_group_IT_number       1

loop_
  _space_group_symop_operation_xyz
  'x, y, z'

loop_
  _atom_site_type_symbol
  _atom_site_label
  _atom_site_symmetry_multiplicity
  _atom_site_fract_x
  _atom_site_fract_y
  _atom_site_fract_z
  _atom_site_occupancy
  Al  Al1       1.0  0.11892007  0.99999987  0.5326009641384246  1.0000
  Pd  Pd1       1.0  0.35675912  0.2621606999999999  0.5671910500142502  1.0000
  Al  Al2       1.0  0.11891982  1.299999999622768e-07  0.45005028269588404  1.0000
  Pd  Pd2       1.0  0.36891982  0.25000013  0.48977678253213847  1.0000
  Al  Al3       1.0  0.11891982  1.299999999622768e-07  0.3705972830233756  1.0000
  Pd  Pd3       1.0  0.36891982  0.25000013  0.41032378285962984  1.0000
  Al  Al4       1.0  0.11891981  0.50000013  0.5282695918065777  1.0000
  Pd  Pd4       1.0  0.35676043999999996  0.73784076  0.56719109768605  1.0000
  Al  Al5       1.0  0.11891982  0.50000013  0.45005028269588404  1.0000
  Pd  Pd5       1.0  0.36891982  0.7500001299999999  0.48977678253213847  1.0000
  Al  Al6       1.0  0.11891982  0.50000013  0.3705972830233756  1.0000
  Pd  Pd6       1.0  0.36891982  0.7500001299999999  0.41032378285962984  1.0000
  Al  Al7       1.0  0.61891939  0.99999972  0.5350168994447665  1.0000
  Pd  Pd7       1.0  0.88107811  0.26215842999999994  0.5671907480928514  1.0000
  Al  Al8       1.0  0.61891982  1.299999999622768e-07  0.45005028269588404  1.0000
  Pd  Pd8       1.0  0.8689198199999999  0.25000013  0.48977678253213847  1.0000
  Al  Al9       1.0  0.61891982  1.299999999622768e-07  0.3705972830233756  1.0000
  Pd  Pd9       1.0  0.8689198199999999  0.25000013  0.41032378285962984  1.0000
  Al  Al10      1.0  0.6189195399999999  0.50000038  0.5326009641384246  1.0000
  Pd  Pd10      1.0  0.88108036  0.7378394699999998  0.5671910500142502  1.0000
  Al  Al11      1.0  0.61891982  0.50000013  0.45005028269588404  1.0000
  Pd  Pd11      1.0  0.8689198199999999  0.7500001299999999  0.48977678253213847  1.0000
  Al  Al12      1.0  0.61891982  0.50000013  0.3705972830233756  1.0000
  Pd  Pd12      1.0  0.8689198199999999  0.7500001299999999  0.41032378285962984  1.0000
  C   C1        1.0  0.11892090999999999  0.50000117  0.5988548739668375  1.0000
  O   O1        1.0  0.11891964000000001  0.4999999499999999  0.6294027169766245  1.0000
