data_image0
_chemical_formula_structural       COPt4Sn16
_chemical_formula_sum              "C1 O1 Pt4 Sn16"
_cell_length_a       6.57030638
_cell_length_b       6.699884759816259
_cell_length_c       104.41881455000001
_cell_angle_alpha    91.13196199311443
_cell_angle_beta     90.0
_cell_angle_gamma    90.0

_space_group_name_H-M_alt    "P 1"
_space_group_IT_number       1

loop_
  _space_group_symop_operation_xyz
  'x, y, z'

loop_
  _atom_site_type_symbol
  _atom_site_label
  _atom_site_symmetry_multiplicity
  _atom_site_fract_x
  _atom_site_fract_y
  _atom_site_fract_z
  _atom_site_occupancy
  C   C1        1.0  0.19888415500000003  0.9402829300000002  0.5522252718157604  1.0000
  O   O1        1.0  0.27543366500000005  0.9605760600000001  0.562273738285859  1.0000
  Pt  Pt1       1.0  0.08230721500000003  0.4310866000000001  0.48121935114930253  1.0000
  Pt  Pt2       1.0  0.582307215  0.18108660000000004  0.4537507915466601  1.0000
  Pt  Pt3       1.0  0.08148945500000003  0.9120787800000001  0.5355439291421438  1.0000
  Pt  Pt4       1.0  0.5834963150000001  0.6837738700000001  0.5081405755076367  1.0000
  Sn  Sn1       1.0  0.24893301500000004  0.2860474800000001  0.43772626171414103  1.0000
  Sn  Sn2       1.0  0.24893301500000004  0.07612572000000004  0.4697753213791792  1.0000
  Sn  Sn3       1.0  0.7489330150000001  0.15983974000000006  0.4789733348401446  1.0000
  Sn  Sn4       1.0  0.7489330150000001  0.7023334600000002  0.48346536745846064  1.0000
  Sn  Sn5       1.0  0.41568141500000005  0.5360474800000001  0.4651948213167835  1.0000
  Sn  Sn6       1.0  0.41568141500000005  0.8261257200000002  0.4423067584803094  1.0000
  Sn  Sn7       1.0  0.915681415  0.45233346000000013  0.4559968078558181  1.0000
  Sn  Sn8       1.0  0.915681415  0.9098397400000001  0.45150477523750215  1.0000
  Sn  Sn9       1.0  0.24893301500000004  0.78604748  0.492663380919426  1.0000
  Sn  Sn10      1.0  0.27367929500000004  0.5672955800000001  0.5258468602779011  1.0000
  Sn  Sn11      1.0  0.735843895  0.6588714500000001  0.5338940190561908  1.0000
  Sn  Sn12      1.0  0.7867505850000001  0.20087091000000004  0.5350605505958299  1.0000
  Sn  Sn13      1.0  0.41917748500000007  0.03942394000000003  0.5206544881372002  1.0000
  Sn  Sn14      1.0  0.41568141500000005  0.32612572000000006  0.49724388098182176  1.0000
  Sn  Sn15      1.0  0.918510545  0.9394676300000001  0.5109400349702607  1.0000
  Sn  Sn16      1.0  0.915681415  0.4098397400000001  0.5064418944427872  1.0000
