data_image0
_chemical_formula_structural       COAu8In4Ti4
_chemical_formula_sum              "C1 O1 Au8 In4 Ti4"
_cell_length_a       4.74713986
_cell_length_b       4.74713986
_cell_length_c       103.56734786
_cell_angle_alpha    90.0
_cell_angle_beta     90.0
_cell_angle_gamma    90.0

_space_group_name_H-M_alt    "P 1"
_space_group_IT_number       1

loop_
  _space_group_symop_operation_xyz
  'x, y, z'

loop_
  _atom_site_type_symbol
  _atom_site_label
  _atom_site_symmetry_multiplicity
  _atom_site_fract_x
  _atom_site_fract_y
  _atom_site_fract_z
  _atom_site_occupancy
  C   C1        1.0  0.50366689  0.8634092950000001  0.5582497594662318  1.0000
  O   O1        1.0  0.48897115999999996  0.8781017049999998  0.5695684812778238  1.0000
  Au  Au1       1.0  0.24287852999999998  0.624194865  0.5114593439817735  1.0000
  Au  Au2       1.0  0.7428785299999999  0.12419486500000003  0.5114593439817735  1.0000
  Au  Au3       1.0  0.7418117099999999  0.12189829500000003  0.543806056964531  1.0000
  Au  Au4       1.0  0.24518351  0.625251155  0.5438061347512434  1.0000
  Au  Au5       1.0  0.24287852999999998  0.624194865  0.4466370837740958  1.0000
  Au  Au6       1.0  0.7428785299999999  0.12419486500000003  0.4466370837740958  1.0000
  Au  Au7       1.0  0.7428785299999999  0.12419486500000003  0.47904821387793467  1.0000
  Au  Au8       1.0  0.24287852999999998  0.624194865  0.47904821387793467  1.0000
  In  In1       1.0  0.23878595999999996  0.12828005500000003  0.5279908094291131  1.0000
  In  In2       1.0  0.7428785299999999  0.624194865  0.4952537789298541  1.0000
  In  In3       1.0  0.24287852999999998  0.12419486500000003  0.4628426488260153  1.0000
  In  In4       1.0  0.7428785299999999  0.624194865  0.43043151872217633  1.0000
  Ti  Ti1       1.0  0.24287852999999998  0.12419486500000003  0.4952537789298541  1.0000
  Ti  Ti2       1.0  0.7612140399999999  0.6058638949999999  0.5281516431800274  1.0000
  Ti  Ti3       1.0  0.24287852999999998  0.12419486500000003  0.43043151872217633  1.0000
  Ti  Ti4       1.0  0.7428785299999999  0.624194865  0.4628426488260153  1.0000
