data_image0
_chemical_formula_structural       COAs4Pd20
_chemical_formula_sum              "C1 O1 As4 Pd20"
_cell_length_a       5.65110782
_cell_length_b       8.65168805439049
_cell_length_c       101.5519395
_cell_angle_alpha    90.0
_cell_angle_beta     90.0
_cell_angle_gamma    98.66839208453064

_space_group_name_H-M_alt    "P 1"
_space_group_IT_number       1

loop_
  _space_group_symop_operation_xyz
  'x, y, z'

loop_
  _atom_site_type_symbol
  _atom_site_label
  _atom_site_symmetry_multiplicity
  _atom_site_fract_x
  _atom_site_fract_y
  _atom_site_fract_z
  _atom_site_occupancy
  C   C1        1.0  0.02473211000000003  0.016358225000000014  0.5311591356085883  1.0000
  O   O1        1.0  0.02844716000000003  0.02682531500000001  0.5427847608667047  1.0000
  As  As1       1.0  0.7459764300000001  0.717653855  0.47744181786345674  1.0000
  As  As2       1.0  0.29128607000000006  0.29228727499999996  0.47744181786345674  1.0000
  As  As3       1.0  0.2608280700000001  0.7132799350000001  0.5158193634019573  1.0000
  As  As4       1.0  0.77560384  0.29862335500000003  0.5157139996464651  1.0000
  Pd  Pd1       1.0  0.98227594  0.830854375  0.4976683997005936  1.0000
  Pd  Pd2       1.0  0.05498656000000004  0.17908675500000004  0.4976683997005936  1.0000
  Pd  Pd3       1.0  0.98227594  0.830854375  0.4572152391332954  1.0000
  Pd  Pd4       1.0  0.05498656000000004  0.17908675500000004  0.4572152391332954  1.0000
  Pd  Pd5       1.0  0.16444086000000005  0.652956085  0.47744181786345674  1.0000
  Pd  Pd6       1.0  0.87282164  0.356985045  0.47744181786345674  1.0000
  Pd  Pd7       1.0  0.26189604  0.998097755  0.47744181786345674  1.0000
  Pd  Pd8       1.0  0.7753664599999999  0.011843375000000012  0.47744181786345674  1.0000
  Pd  Pd9       1.0  0.01772406000000003  0.5059755549999999  0.5289326178833852  1.0000
  Pd  Pd10      1.0  0.018989360000000028  0.5055880349999999  0.5015274777384706  1.0000
  Pd  Pd11      1.0  0.48227594  0.830854375  0.45883120508945574  1.0000
  Pd  Pd12      1.0  0.55498656  0.17908675500000004  0.45883120508945574  1.0000
  Pd  Pd13      1.0  0.48227594  0.830854375  0.4960524337444333  1.0000
  Pd  Pd14      1.0  0.55498656  0.17908675500000004  0.4960524337444333  1.0000
  Pd  Pd15      1.0  0.6672162700000001  0.654380305  0.5160453865536674  1.0000
  Pd  Pd16      1.0  0.36934142000000003  0.35717242499999996  0.5160394180535995  1.0000
  Pd  Pd17      1.0  0.76859751  0.0019022450000000131  0.517183661230062  1.0000
  Pd  Pd18      1.0  0.27347369000000005  0.010393685000000012  0.5170590870446272  1.0000
  Pd  Pd19      1.0  0.5186312500000001  0.504970565  0.4917420177935659  1.0000
  Pd  Pd20      1.0  0.5186312500000001  0.504970565  0.4631416210403232  1.0000
