data_image0
_chemical_formula_structural       COGa15Pt25
_chemical_formula_sum              "C1 O1 Ga15 Pt25"
_cell_length_a       5.572155373124954
_cell_length_b       9.766344472400032
_cell_length_c       104.32639571
_cell_angle_alpha    90.95488065215673
_cell_angle_beta     93.56286588665944
_cell_angle_gamma    92.50370952818916

_space_group_name_H-M_alt    "P 1"
_space_group_IT_number       1

loop_
  _space_group_symop_operation_xyz
  'x, y, z'

loop_
  _atom_site_type_symbol
  _atom_site_label
  _atom_site_symmetry_multiplicity
  _atom_site_fract_x
  _atom_site_fract_y
  _atom_site_fract_z
  _atom_site_occupancy
  C   C1        1.0  0.5426823700000001  0.624363865  0.5498831484355615  1.0000
  O   O1        1.0  0.53851774  0.6282576449999999  0.5610367532029852  1.0000
  Ga  Ga1       1.0  0.00479281000000003  0.9641652949999999  0.44077509360385647  1.0000
  Ga  Ga2       1.0  0.00479281000000005  0.6308319550000001  0.46271034916645876  1.0000
  Ga  Ga3       1.0  0.013182790000000033  0.607323355  0.5291103683091886  1.0000
  Ga  Ga4       1.0  0.004792810000000035  0.29749862499999996  0.4846456080193498  1.0000
  Ga  Ga5       1.0  0.99520719  0.9555724850000001  0.5064848167655782  1.0000
  Ga  Ga6       1.0  0.7037721800000001  0.21880802500000002  0.5082964529939455  1.0000
  Ga  Ga7       1.0  0.6924759100000001  0.888386655  0.5295765166652898  1.0000
  Ga  Ga8       1.0  0.7193419199999999  0.5593155850000001  0.48620085837448607  1.0000
  Ga  Ga9       1.0  0.7193419200000001  0.225982255  0.44233034066870414  1.0000
  Ga  Ga10      1.0  0.7193419199999999  0.892648925  0.4642655995215952  1.0000
  Ga  Ga11      1.0  0.29024370000000005  0.035681664999999994  0.48309035766421343  1.0000
  Ga  Ga12      1.0  0.2812006  0.695411455  0.504747346933973  1.0000
  Ga  Ga13      1.0  0.2902437  0.36901499499999996  0.46115510210161115  1.0000
  Ga  Ga14      1.0  0.27837683999999996  0.34810224500000003  0.5285448598160295  1.0000
  Ga  Ga15      1.0  0.29024370000000005  0.7023483250000001  0.43921984324872015  1.0000
  Pt  Pt1       1.0  0.5047928100000001  0.130831955  0.46271034916645876  1.0000
  Pt  Pt2       1.0  0.50479281  0.7974986250000001  0.4846456080193498  1.0000
  Pt  Pt3       1.0  0.5047928100000001  0.464165295  0.44077509360385647  1.0000
  Pt  Pt4       1.0  0.48185977  0.46356765499999997  0.5081856262008955  1.0000
  Pt  Pt5       1.0  0.48150191999999997  0.12319243499999998  0.5284355695877853  1.0000
  Pt  Pt6       1.0  0.004792810000000039  0.130831955  0.46271034916645876  1.0000
  Pt  Pt7       1.0  0.00479281000000004  0.7974986250000001  0.4846456080193498  1.0000
  Pt  Pt8       1.0  0.004792810000000035  0.464165295  0.44077509360385647  1.0000
  Pt  Pt9       1.0  0.98197402  0.462021775  0.5053794969337211  1.0000
  Pt  Pt10      1.0  0.9801487  0.098556915  0.5272056925882858  1.0000
  Pt  Pt11      1.0  0.50479281  0.29749862499999996  0.4846456080193497  1.0000
  Pt  Pt12      1.0  0.4909799800000001  0.964318335  0.5058314871777037  1.0000
  Pt  Pt13      1.0  0.5047928100000001  0.6308319550000001  0.4627103491664588  1.0000
  Pt  Pt14      1.0  0.54774341  0.6194248350000001  0.5318781591328569  1.0000
  Pt  Pt15      1.0  0.5047928100000001  0.9641652949999999  0.44077509360385647  1.0000
  Pt  Pt16      1.0  0.21349296000000006  0.8670653450000001  0.4608985056499057  1.0000
  Pt  Pt17      1.0  0.21349296000000006  0.533732005  0.48283376121250804  1.0000
  Pt  Pt18      1.0  0.21349296000000006  0.20039867499999997  0.4389632467970147  1.0000
  Pt  Pt19      1.0  0.2097709  0.20027027499999997  0.5044242471678027  1.0000
  Pt  Pt20      1.0  0.21785319  0.839256915  0.5254707990527041  1.0000
  Pt  Pt21      1.0  0.79609266  0.061265244999999996  0.48645745482619146  1.0000
  Pt  Pt22      1.0  0.77043209  0.719747715  0.5089318472183157  1.0000
  Pt  Pt23      1.0  0.79609266  0.394598575  0.4645221959733005  1.0000
  Pt  Pt24      1.0  0.81392844  0.364803655  0.5288909554096685  1.0000
  Pt  Pt25      1.0  0.79609266  0.7279319049999999  0.44258693712040953  1.0000
