data_image0
_chemical_formula_structural       COAl3Pd3Al3Pd3Al3Pd3Al3Pd3
_chemical_formula_sum              "C1 O1 Al12 Pd12"
_cell_length_a       6.930149738601103
_cell_length_b       6.19851436
_cell_length_c       100.68108076
_cell_angle_alpha    90.0
_cell_angle_beta     108.43494882292201
_cell_angle_gamma    90.0

_space_group_name_H-M_alt    "P 1"
_space_group_IT_number       1

loop_
  _space_group_symop_operation_xyz
  'x, y, z'

loop_
  _atom_site_type_symbol
  _atom_site_label
  _atom_site_symmetry_multiplicity
  _atom_site_fract_x
  _atom_site_fract_y
  _atom_site_fract_z
  _atom_site_occupancy
  C   C1        1.0  0.24060517500000003  0.380726795  0.5438756061459162  1.0000
  O   O1        1.0  0.295151165  0.38072686499999997  0.5560405545552025  1.0000
  Al  Al1       1.0  0.19544881500000005  0.135911865  0.5029751293469774  1.0000
  Al  Al2       1.0  0.8427570050000001  0.11927308499999999  0.5159823021697642  1.0000
  Al  Al3       1.0  0.512192285  0.130726825  0.4874930639082456  1.0000
  Pd  Pd1       1.0  0.14488728500000003  0.38072674500000003  0.5234548783142553  1.0000
  Pd  Pd2       1.0  0.8551127150000001  0.380726825  0.49497060114364877  1.0000
  Pd  Pd3       1.0  0.5254805850000001  0.380726825  0.5086059401059646  1.0000
  Al  Al4       1.0  0.17885895500000004  0.130726825  0.45847065159928013  1.0000
  Al  Al5       1.0  0.8455256250000002  0.130726825  0.4729818577537629  1.0000
  Al  Al6       1.0  0.512192285  0.130726825  0.4439594454447975  1.0000
  Pd  Pd4       1.0  0.17885895500000004  0.380726825  0.48023745930732764  1.0000
  Pd  Pd5       1.0  0.8455256250000002  0.380726825  0.45121505004571544  1.0000
  Pd  Pd6       1.0  0.512192285  0.380726825  0.465726253152845  1.0000
  Al  Al7       1.0  0.19544888500000002  0.625541755  0.5029751445837432  1.0000
  Al  Al8       1.0  0.8427571249999999  0.642180545  0.5159823143591766  1.0000
  Al  Al9       1.0  0.512192285  0.630726825  0.4874930639082456  1.0000
  Pd  Pd7       1.0  0.15961754500000003  0.880726915  0.5216785700742  1.0000
  Pd  Pd8       1.0  0.843786565  0.8807267950000001  0.4933654505400588  1.0000
  Pd  Pd9       1.0  0.519315115  0.8807267950000001  0.5085364452176051  1.0000
  Al  Al10      1.0  0.17885895500000004  0.630726825  0.45847065159928013  1.0000
  Al  Al11      1.0  0.8455256250000002  0.630726825  0.4729818577537629  1.0000
  Al  Al12      1.0  0.512192285  0.630726825  0.4439594454447975  1.0000
  Pd  Pd10      1.0  0.17885895500000004  0.880726825  0.48023745930732764  1.0000
  Pd  Pd11      1.0  0.8455256250000002  0.880726825  0.45121505004571544  1.0000
  Pd  Pd12      1.0  0.512192285  0.880726825  0.465726253152845  1.0000
