data_image0
_chemical_formula_structural       COIn24Ag12
_chemical_formula_sum              "C1 O1 In24 Ag12"
_cell_length_a       9.92491192
_cell_length_b       9.184824471814112
_cell_length_c       104.67731896000001
_cell_angle_alpha    97.65522818623212
_cell_angle_beta     90.0
_cell_angle_gamma    57.29671270493192

_space_group_name_H-M_alt    "P 1"
_space_group_IT_number       1

loop_
  _space_group_symop_operation_xyz
  'x, y, z'

loop_
  _atom_site_type_symbol
  _atom_site_label
  _atom_site_symmetry_multiplicity
  _atom_site_fract_x
  _atom_site_fract_y
  _atom_site_fract_z
  _atom_site_occupancy
  C   C1        1.0  0.24454471999999994  0.37082137499999995  0.5567652932596927  1.0000
  O   O1        1.0  0.31941383999999995  0.307477155  0.5651329511737214  1.0000
  In  In1       1.0  0.9601529599999997  0.590429185  0.52778159028195  1.0000
  In  In2       1.0  0.2847224199999999  0.9397501649999999  0.49008008815742904  1.0000
  In  In3       1.0  0.61805576  0.273083505  0.4532713941657345  1.0000
  In  In4       1.0  0.68106008  0.8360878249999999  0.5015271165349899  1.0000
  In  In5       1.0  0.014393419999999926  0.16942116499999996  0.46471842254329543  1.0000
  In  In6       1.0  0.38282088000000003  0.5086253550000001  0.5364975475216627  1.0000
  In  In7       1.0  0.6587137699999998  0.502754495  0.4831227678827515  1.0000
  In  In8       1.0  0.9920471000000001  0.8360878249999999  0.44631407389105693  1.0000
  In  In9       1.0  0.33084634999999996  0.165611805  0.5206544269616705  1.0000
  In  In10      1.0  0.05505142999999992  0.39909215499999995  0.4945697929475299  1.0000
  In  In11      1.0  0.38838476000000005  0.7324254849999999  0.45776109895583533  1.0000
  In  In12      1.0  0.7290635799999999  0.060249835  0.5314966538907276  1.0000
  In  In13      1.0  0.61805576  0.273083505  0.5084844368096675  1.0000
  In  In14      1.0  0.9513890899999997  0.6064168349999999  0.47167574281797303  1.0000
  In  In15      1.0  0.2847224199999999  0.9397501649999999  0.43486704882627847  1.0000
  In  In16      1.0  0.00795289999999989  0.166566755  0.5216388931604962  1.0000
  In  In17      1.0  0.34772675  0.502754495  0.4831227678827515  1.0000
  In  In18      1.0  0.68106008  0.8360878249999999  0.44631407389105693  1.0000
  In  In19      1.0  0.7028444599999999  0.506395805  0.53957140882791  1.0000
  In  In20      1.0  0.9920471000000001  0.8360878249999999  0.5015271165349899  1.0000
  In  In21      1.0  0.32538043999999994  0.16942116499999996  0.46471842254329543  1.0000
  In  In22      1.0  0.38704133999999996  0.739703555  0.5138728100448239  1.0000
  In  In23      1.0  0.7217181  0.065758825  0.47616544760807383  1.0000
  In  In24      1.0  0.05505142999999992  0.39909215499999995  0.43935675361637927  1.0000
  Ag  Ag1       1.0  0.7500580099999997  0.500795855  0.5099200244771755  1.0000
  Ag  Ag2       1.0  0.08655358999999996  0.8360878249999999  0.47392059355663213  1.0000
  Ag  Ag3       1.0  0.41988692999999994  0.16942116499999996  0.43711189956493757  1.0000
  Ag  Ag4       1.0  0.5865535899999997  0.8360878249999999  0.47392059355663213  1.0000
  Ag  Ag5       1.0  0.9198869299999998  0.16942116499999996  0.43711189956493757  1.0000
  Ag  Ag6       1.0  0.25123092999999996  0.49560515499999996  0.5102608170377317  1.0000
  Ag  Ag7       1.0  0.41988692999999994  0.16942116499999996  0.49232494220887063  1.0000
  Ag  Ag8       1.0  0.7532202599999999  0.502754495  0.4555162482171762  1.0000
  Ag  Ag9       1.0  0.08493772  0.826863465  0.5285154643619222  1.0000
  Ag  Ag10      1.0  0.5934634999999997  0.838430165  0.5286112634060368  1.0000
  Ag  Ag11      1.0  0.9198869299999998  0.16942116499999996  0.49232494220887063  1.0000
  Ag  Ag12      1.0  0.2532202599999999  0.502754495  0.4555162482171762  1.0000
