data_image0
_chemical_formula_structural       CONi4Sb8Ni4Sb8
_chemical_formula_sum              "C1 O1 Ni8 Sb16"
_cell_length_a       6.42700254
_cell_length_b       11.196961043949846
_cell_length_c       101.54014696
_cell_angle_alpha    110.61618828644077
_cell_angle_beta     90.0
_cell_angle_gamma    90.0

_space_group_name_H-M_alt    "P 1"
_space_group_IT_number       1

loop_
  _space_group_symop_operation_xyz
  'x, y, z'

loop_
  _atom_site_type_symbol
  _atom_site_label
  _atom_site_symmetry_multiplicity
  _atom_site_fract_x
  _atom_site_fract_y
  _atom_site_fract_z
  _atom_site_occupancy
  C   C1        1.0  0.23506491999999996  0.15075902499999996  0.5381929411708608  1.0000
  O   O1        1.0  0.3396007  0.20654514499999999  0.5478041673636671  1.0000
  Ni  Ni1       1.0  0.07991262999999997  0.5554274149999999  0.4673052464547085  1.0000
  Ni  Ni2       1.0  0.07991262999999997  0.05542741499999997  0.4867188404273128  1.0000
  Ni  Ni3       1.0  0.5799126299999999  0.305427415  0.47701204344101067  1.0000
  Ni  Ni4       1.0  0.5799126299999999  0.8054274149999999  0.4575984494684065  1.0000
  Sb  Sb1       1.0  0.7219095499999999  0.44457258499999996  0.46300106319430506  1.0000
  Sb  Sb2       1.0  0.7219095499999999  0.9445725850000001  0.48241465716690923  1.0000
  Sb  Sb3       1.0  0.4379157099999999  0.16628224499999997  0.45219583263633284  1.0000
  Sb  Sb4       1.0  0.4379157099999999  0.6662822449999999  0.471609426608937  1.0000
  Sb  Sb5       1.0  0.9379157100000001  0.194572585  0.4727078601806071  1.0000
  Sb  Sb6       1.0  0.9379157100000001  0.6945725850000001  0.4532942662080029  1.0000
  Sb  Sb7       1.0  0.22190954999999998  0.41628224499999994  0.4813162235952391  1.0000
  Sb  Sb8       1.0  0.22190954999999998  0.9162822449999999  0.4619026296226349  1.0000
  Ni  Ni5       1.0  0.08297980999999996  0.551737895  0.505173722793699  1.0000
  Ni  Ni6       1.0  0.06208428999999996  0.06760608499999997  0.5241676072893157  1.0000
  Ni  Ni7       1.0  0.57775409  0.31451588499999994  0.5132651814083039  1.0000
  Ni  Ni8       1.0  0.57258089  0.808187875  0.49626941234019845  1.0000
  Sb  Sb9       1.0  0.71763314  0.4574637749999999  0.5009407330651118  1.0000
  Sb  Sb10      1.0  0.7481235500000001  0.9415342250000001  0.5188040071218644  1.0000
  Sb  Sb11      1.0  0.4379157099999999  0.16628224499999997  0.49102302058154124  1.0000
  Sb  Sb12      1.0  0.42440896999999994  0.6724038349999999  0.5105878355795793  1.0000
  Sb  Sb13      1.0  0.93155712  0.20924133499999997  0.5107024534383936  1.0000
  Sb  Sb14      1.0  0.9379157100000001  0.6945725850000001  0.4921214541532113  1.0000
  Sb  Sb15      1.0  0.22897066  0.422100005  0.5193939349908038  1.0000
  Sb  Sb16      1.0  0.21067238  0.9188262150000001  0.5008452399259918  1.0000
