data_image0
_chemical_formula_structural       COPd24
_chemical_formula_sum              "C1 O1 Pd24"
_cell_length_a       7.95614588
_cell_length_b       4.872124429791378
_cell_length_c       102.07224938
_cell_angle_alpha    92.90252586533592
_cell_angle_beta     90.0
_cell_angle_gamma    114.0948425599747

_space_group_name_H-M_alt    "P 1"
_space_group_IT_number       1

loop_
  _space_group_symop_operation_xyz
  'x, y, z'

loop_
  _atom_site_type_symbol
  _atom_site_label
  _atom_site_symmetry_multiplicity
  _atom_site_fract_x
  _atom_site_fract_y
  _atom_site_fract_z
  _atom_site_occupancy
  C   C1        1.0  0.4592015099999999  0.8640318299999998  0.5463019094550869  1.0000
  O   O1        1.0  0.4705817599999998  0.9139239399999999  0.5580168675506748  1.0000
  Pd  Pd1       1.0  0.4444465199999999  0.80555556  0.46816740563212034  1.0000
  Pd  Pd2       1.0  0.13889095999999992  0.58333333  0.4507112235102568  1.0000
  Pd  Pd3       1.0  0.2500020799999999  0.027777779999999985  0.4856235846118714  1.0000
  Pd  Pd4       1.0  0.2916687399999999  0.19444444  0.4594393145711886  1.0000
  Pd  Pd5       1.0  0.48611317999999987  0.97222222  0.441983132449325  1.0000
  Pd  Pd6       1.0  0.09722429999999992  0.41666667  0.4768954935509396  1.0000
  Pd  Pd7       1.0  0.35812834999999993  0.4585275999999999  0.5200669854182989  1.0000
  Pd  Pd8       1.0  0.05555762999999992  0.25  0.5030797667337349  1.0000
  Pd  Pd9       1.0  0.1915740199999999  0.69259362  0.537579562175861  1.0000
  Pd  Pd10      1.0  0.20584365999999987  0.85501689  0.5116367949042776  1.0000
  Pd  Pd11      1.0  0.40277984999999994  0.63888889  0.4943516756728032  1.0000
  Pd  Pd12      1.0  0.013886819999999923  0.07694623999999999  0.5294052338852038  1.0000
  Pd  Pd13      1.0  0.94444652  0.80555556  0.46816740563212034  1.0000
  Pd  Pd14      1.0  0.6388909599999999  0.58333333  0.4507112235102568  1.0000
  Pd  Pd15      1.0  0.7500020799999998  0.027777779999999985  0.4856235846118714  1.0000
  Pd  Pd16      1.0  0.7916687399999998  0.19444444  0.4594393145711886  1.0000
  Pd  Pd17      1.0  0.9861131799999998  0.97222222  0.441983132449325  1.0000
  Pd  Pd18      1.0  0.5972242999999999  0.41666667  0.4768954935509396  1.0000
  Pd  Pd19      1.0  0.8633507599999998  0.47296030999999994  0.5216533751927313  1.0000
  Pd  Pd20      1.0  0.5555576299999999  0.25  0.5030797667337349  1.0000
  Pd  Pd21      1.0  0.6479258899999999  0.70774694  0.5376538071528458  1.0000
  Pd  Pd22      1.0  0.7107829099999999  0.8628694899999999  0.5117822212985298  1.0000
  Pd  Pd23      1.0  0.9027798499999999  0.63888889  0.4943516756728031  1.0000
  Pd  Pd24      1.0  0.5185371599999998  0.10425871999999999  0.5295451490140773  1.0000
