data_image0
_chemical_formula_structural       COPt18Rh6
_chemical_formula_sum              "C1 O1 Pt18 Rh6"
_cell_length_a       7.397922787237306
_cell_length_b       4.848725940393844
_cell_length_c       101.11552481
_cell_angle_alpha    89.92723306359852
_cell_angle_beta     93.93610397208153
_cell_angle_gamma    90.15302837139375

_space_group_name_H-M_alt    "P 1"
_space_group_IT_number       1

loop_
  _space_group_symop_operation_xyz
  'x, y, z'

loop_
  _atom_site_type_symbol
  _atom_site_label
  _atom_site_symmetry_multiplicity
  _atom_site_fract_x
  _atom_site_fract_y
  _atom_site_fract_z
  _atom_site_occupancy
  C   C1        1.0  0.11025393999999995  0.035731644999999944  0.5490460626240335  1.0000
  O   O1        1.0  0.10255557999999995  0.9893204849999998  0.560538929719529  1.0000
  Pt  Pt1       1.0  0.45833333  0.15380417499999993  0.4565567645134423  1.0000
  Pt  Pt2       1.0  0.9027777699999998  0.487137505  0.47365246182363907  1.0000
  Pt  Pt3       1.0  0.013888889999999961  0.8204708349999998  0.43946107028047093  1.0000
  Pt  Pt4       1.0  0.73611111  0.487137505  0.448008915858344  1.0000
  Pt  Pt5       1.0  0.18055554999999995  0.8204708349999998  0.4651046131685407  1.0000
  Pt  Pt6       1.0  0.6249999999999999  0.15380417499999993  0.48220031047873746  1.0000
  Pt  Pt7       1.0  0.37499999999999994  0.6538041749999999  0.44373499460802013  1.0000
  Pt  Pt8       1.0  0.8194444399999999  0.987137505  0.4608306888409916  1.0000
  Pt  Pt9       1.0  0.26388888999999993  0.3204708349999999  0.4779263861511882  1.0000
  Pt  Pt10      1.0  0.79166666  0.15380417499999993  0.5078438533668072  1.0000
  Pt  Pt11      1.0  0.23920988999999995  0.506741555  0.5254770803871076  1.0000
  Pt  Pt12      1.0  0.34722221999999997  0.8204708349999998  0.49074815605661054  1.0000
  Pt  Pt13      1.0  0.06944443999999997  0.48713750499999997  0.4992960047117089  1.0000
  Pt  Pt14      1.0  0.5207357199999999  0.8174852450000001  0.5173554828219117  1.0000
  Pt  Pt15      1.0  0.9532624599999999  0.16160793499999995  0.5331853173590557  1.0000
  Pt  Pt16      1.0  0.7083333299999999  0.6538041749999999  0.4950220803841597  1.0000
  Pt  Pt17      1.0  0.15191196999999998  0.987757435  0.511499104631117  1.0000
  Pt  Pt18      1.0  0.6015178299999999  0.3178020649999999  0.5288137772915026  1.0000
  Rh  Rh1       1.0  0.98611111  0.987137505  0.48647423172906135  1.0000
  Rh  Rh2       1.0  0.09722221999999996  0.3204708349999999  0.45228284018589326  1.0000
  Rh  Rh3       1.0  0.5416666600000001  0.6538041749999999  0.46937853749608993  1.0000
  Rh  Rh4       1.0  0.30324015  0.01067951499999995  0.536010914841188  1.0000
  Rh  Rh5       1.0  0.43055554999999995  0.3204708349999999  0.503569929039258  1.0000
  Rh  Rh6       1.0  0.8741490799999999  0.658591075  0.5207960422336081  1.0000
