data_image0
_chemical_formula_structural       COAl8Ni8Al8Ni8
_chemical_formula_sum              "C1 O1 Al16 Ni16"
_cell_length_a       8.24841874
_cell_length_b       5.051104274740968
_cell_length_c       103.37808023
_cell_angle_alpha    92.89141690353566
_cell_angle_beta     90.0
_cell_angle_gamma    90.0

_space_group_name_H-M_alt    "P 1"
_space_group_IT_number       1

loop_
  _space_group_symop_operation_xyz
  'x, y, z'

loop_
  _atom_site_type_symbol
  _atom_site_label
  _atom_site_symmetry_multiplicity
  _atom_site_fract_x
  _atom_site_fract_y
  _atom_site_fract_z
  _atom_site_occupancy
  C   C1        1.0  0.12499991499999998  0.8060370800000001  0.5431722134399268  1.0000
  O   O1        1.0  0.12500088499999998  0.8196871299999999  0.5544980635642768  1.0000
  Al  Al1       1.0  0.12500076499999996  0.2303701  0.4570331472526133  1.0000
  Al  Al2       1.0  0.37500076499999996  0.90894153  0.4685643548407646  1.0000
  Al  Al3       1.0  0.12500076499999996  0.5875129600000001  0.4800955656576545  1.0000
  Al  Al4       1.0  0.37500076499999996  0.55179867  0.4455019364357235  1.0000
  Al  Al5       1.0  0.12500235499999998  0.94820133  0.5030503669750431  1.0000
  Al  Al6       1.0  0.37729115499999993  0.62356086  0.5155424923851804  1.0000
  Al  Al7       1.0  0.12500214499999995  0.29538831  0.525168944356772  1.0000
  Al  Al8       1.0  0.37500076499999996  0.26608438  0.4916267732458058  1.0000
  Ni  Ni1       1.0  0.12500076499999996  0.08751296000000004  0.4800955656576545  1.0000
  Ni  Ni2       1.0  0.37500076499999996  0.05179867000000003  0.44550193643572344  1.0000
  Ni  Ni3       1.0  0.12500076499999996  0.7303701  0.4570331472526133  1.0000
  Ni  Ni4       1.0  0.37500076499999996  0.40894153  0.4685643548407646  1.0000
  Ni  Ni5       1.0  0.12499923499999996  0.80207283  0.5259704561232993  1.0000
  Ni  Ni6       1.0  0.37500076499999996  0.76608438  0.49162677324580567  1.0000
  Ni  Ni7       1.0  0.12499955499999997  0.45641054  0.5033437043380807  1.0000
  Ni  Ni8       1.0  0.37605563499999994  0.11869578000000004  0.5147295993149426  1.0000
  Al  Al9       1.0  0.6250007649999999  0.2303701  0.4570331472526133  1.0000
  Al  Al10      1.0  0.8750007650000001  0.90894153  0.4685643548407646  1.0000
  Al  Al11      1.0  0.6250007649999999  0.5875129600000001  0.4800955656576545  1.0000
  Al  Al12      1.0  0.8750007650000001  0.55179867  0.4455019364357235  1.0000
  Al  Al13      1.0  0.624999625  0.94696101  0.5026306890689721  1.0000
  Al  Al14      1.0  0.8727115749999999  0.62356096  0.515542514986351  1.0000
  Al  Al15      1.0  0.6250001049999999  0.30807274000000007  0.5254741150469298  1.0000
  Al  Al16      1.0  0.8750007650000001  0.26608438  0.4916267732458058  1.0000
  Ni  Ni9       1.0  0.6250007649999999  0.08751296000000004  0.4800955656576545  1.0000
  Ni  Ni10      1.0  0.8750007650000001  0.05179867000000003  0.44550193643572344  1.0000
  Ni  Ni11      1.0  0.6250007649999999  0.7303701  0.4570331472526133  1.0000
  Ni  Ni12      1.0  0.8750007650000001  0.40894153  0.4685643548407646  1.0000
  Ni  Ni13      1.0  0.6250010550000001  0.81535607  0.5242309376641844  1.0000
  Ni  Ni14      1.0  0.8750007650000001  0.76608438  0.49162677324580567  1.0000
  Ni  Ni15      1.0  0.625001725  0.44697032  0.5026300982098009  1.0000
  Ni  Ni16      1.0  0.873945915  0.11869678000000003  0.5147293765319763  1.0000
