data_image0
_chemical_formula_structural       COSi12Rh12
_chemical_formula_sum              "C1 O1 Si12 Rh12"
_cell_length_a       7.168156824829767
_cell_length_b       6.417975411154229
_cell_length_c       106.40836634
_cell_angle_alpha    111.84922864157807
_cell_angle_beta     119.30300857004472
_cell_angle_gamma    77.79643127085824

_space_group_name_H-M_alt    "P 1"
_space_group_IT_number       1

loop_
  _space_group_symop_operation_xyz
  'x, y, z'

loop_
  _atom_site_type_symbol
  _atom_site_label
  _atom_site_symmetry_multiplicity
  _atom_site_fract_x
  _atom_site_fract_y
  _atom_site_fract_z
  _atom_site_occupancy
  C   C1        1.0  0.43510244000000003  0.36111371499999995  0.5380083501335384  1.0000
  O   O1        1.0  0.53219871  0.3525201950000001  0.5506076688300682  1.0000
  Si  Si1       1.0  0.3925506500000001  0.09406258500000005  0.48162444345383043  1.0000
  Si  Si2       1.0  0.7432114199999998  0.44172706500000003  0.5117209384041015  1.0000
  Si  Si3       1.0  0.05921732000000003  0.760729255  0.45311136209256175  1.0000
  Si  Si4       1.0  0.94078268  0.3851627550000001  0.4525982224114867  1.0000
  Si  Si5       1.0  0.27411602  0.718496095  0.48111130377275546  1.0000
  Si  Si6       1.0  0.60986342  0.04878335500000004  0.5096698817489873  1.0000
  Si  Si7       1.0  0.81759348  0.631541175  0.48483033469538545  1.0000
  Si  Si8       1.0  0.15823626000000005  0.951216645  0.5128245657754157  1.0000
  Si  Si9       1.0  0.48426014000000006  0.2982078350000001  0.45631724991254685  1.0000
  Si  Si10      1.0  0.5157398600000002  0.847684175  0.4493923311699316  1.0000
  Si  Si11      1.0  0.84907319  0.18101750500000005  0.4779054159527703  1.0000
  Si  Si12      1.0  0.19434521000000002  0.520114545  0.5070267771677595  1.0000
  Rh  Rh1       1.0  0.88414273  0.7573135150000001  0.46837928975235554  1.0000
  Rh  Rh2       1.0  0.21747607000000005  0.09064685500000003  0.4968923711136242  1.0000
  Rh  Rh3       1.0  0.5349921600000002  0.41031891500000006  0.5237112895113607  1.0000
  Rh  Rh4       1.0  0.4491906000000001  0.7219118250000001  0.46584337611296167  1.0000
  Rh  Rh5       1.0  0.78252393  0.05524515500000004  0.49435646089580026  1.0000
  Rh  Rh6       1.0  0.13002695000000003  0.3545344650000001  0.5214752833168605  1.0000
  Rh  Rh7       1.0  0.11393876000000004  0.39241550500000005  0.4799358097472569  1.0000
  Rh  Rh8       1.0  0.45203253000000004  0.725133815  0.5073863875858421  1.0000
  Rh  Rh9       1.0  0.78060543  0.05908217500000005  0.4514227283859882  1.0000
  Rh  Rh10      1.0  0.21939457000000004  0.08680983500000004  0.4542868561180602  1.0000
  Rh  Rh11      1.0  0.55272791  0.420143175  0.4827999374793289  1.0000
  Rh  Rh12      1.0  0.89002219  0.744450065  0.5104777486181271  1.0000
