data_image0
_chemical_formula_structural       COSn3As4Sn3As4
_chemical_formula_sum              "C1 O1 Sn6 As8"
_cell_length_a       5.91832091
_cell_length_b       5.91832091
_cell_length_c       105.50992546
_cell_angle_alpha    90.0
_cell_angle_beta     90.0
_cell_angle_gamma    90.0

_space_group_name_H-M_alt    "P 1"
_space_group_IT_number       1

loop_
  _space_group_symop_operation_xyz
  'x, y, z'

loop_
  _atom_site_type_symbol
  _atom_site_label
  _atom_site_symmetry_multiplicity
  _atom_site_fract_x
  _atom_site_fract_y
  _atom_site_fract_z
  _atom_site_occupancy
  C   C1        1.0  0.573102185  0.8781285399999998  0.5517343799771742  1.0000
  O   O1        1.0  0.6964416750000001  0.81580769  0.5594851040015778  1.0000
  Sn  Sn1       1.0  0.8939350850000001  0.99998333  0.5125662650689327  1.0000
  Sn  Sn2       1.0  0.302231435  0.09729741999999995  0.5403577335898679  1.0000
  Sn  Sn3       1.0  0.393728005  0.49983266  0.5125758467985513  1.0000
  As  As1       1.0  0.680005605  0.71304633  0.49660744845321586  1.0000
  As  As2       1.0  0.675773685  0.28141578999999994  0.5285869203569408  1.0000
  As  As3       1.0  0.10606491499999998  0.28698701  0.49660744845321586  1.0000
  As  As4       1.0  0.11813411499999998  0.7231491999999999  0.5286323620546267  1.0000
  Sn  Sn4       1.0  0.8930352550000001  1.666999999995998e-05  0.4566117945259043  1.0000
  Sn  Sn5       1.0  0.3930352549999999  1.666999999995998e-05  0.4846580724360776  1.0000
  Sn  Sn6       1.0  0.3930352549999999  0.5000166699999999  0.4566117945259043  1.0000
  As  As5       1.0  0.680005605  0.71304633  0.4405148959984222  1.0000
  As  As6       1.0  0.680005605  0.28698701  0.47270869305338625  1.0000
  As  As7       1.0  0.10606491499999998  0.28698701  0.4405148959984222  1.0000
  As  As8       1.0  0.10606491499999998  0.71304633  0.47270869305338625  1.0000
