data_image0
_chemical_formula_structural       Ni2Sb4Ni2Sb4CO
_chemical_formula_sum              "Ni4 Sb8 C1 O1"
_cell_length_a       5.2394744
_cell_length_b       6.42641388
_cell_length_c       101.53725816
_cell_angle_alpha    90.0
_cell_angle_beta     90.0
_cell_angle_gamma    90.0

_space_group_name_H-M_alt    "P 1"
_space_group_IT_number       1

loop_
  _space_group_symop_operation_xyz
  'x, y, z'

loop_
  _atom_site_type_symbol
  _atom_site_label
  _atom_site_symmetry_multiplicity
  _atom_site_fract_x
  _atom_site_fract_y
  _atom_site_fract_z
  _atom_site_occupancy
  Ni  Ni1       1.0  0.006215099999999985  0.073583605  0.4767506049191704  1.0000
  Ni  Ni2       1.0  0.5062151  0.573583605  0.4573382367824021  1.0000
  Sb  Sb1       1.0  0.22792476999999997  0.43158668499999997  0.4767506049191704  1.0000
  Sb  Sb2       1.0  0.7845054300000001  0.7155805249999999  0.4767506049191704  1.0000
  Sb  Sb3       1.0  0.72792477  0.215580525  0.4573382367824021  1.0000
  Sb  Sb4       1.0  0.28450542999999995  0.931586685  0.4573382367824021  1.0000
  Ni  Ni3       1.0  0.9937849000000001  0.06841331499999999  0.5154519282270196  1.0000
  Ni  Ni4       1.0  0.50705338  0.568504275  0.49551669649592944  1.0000
  Sb  Sb5       1.0  0.24255057999999996  0.41199042500000005  0.5150613389561922  1.0000
  Sb  Sb6       1.0  0.81605656  0.699490785  0.5135057280590575  1.0000
  Sb  Sb7       1.0  0.73038341  0.211428855  0.49594620057641847  1.0000
  Sb  Sb8       1.0  0.27409572  0.9259820049999999  0.49626392668818664  1.0000
  C   C1        1.0  0.88659309  0.102795085  0.5319744004141089  1.0000
  O   O1        1.0  0.8094827699999999  0.125679975  0.542661763217598  1.0000
