data_image0
_chemical_formula_structural       COCo12Sn24
_chemical_formula_sum              "C1 O1 Co12 Sn24"
_cell_length_a       5.50945776
_cell_length_b       14.38816893693558
_cell_length_c       33.60049184
_cell_angle_alpha    108.43494882292202
_cell_angle_beta     90.0
_cell_angle_gamma    90.0

_space_group_name_H-M_alt    "P 1"
_space_group_IT_number       1

loop_
  _space_group_symop_operation_xyz
  'x, y, z'

loop_
  _atom_site_type_symbol
  _atom_site_label
  _atom_site_symmetry_multiplicity
  _atom_site_fract_x
  _atom_site_fract_y
  _atom_site_fract_z
  _atom_site_occupancy
  C   C1        1.0  0.11675852499999999  0.7171393500000001  0.6140436771062231  1.0000
  O   O1        1.0  0.11685460499999997  0.74540229  0.6515385107721929  1.0000
  Co  Co1       1.0  0.36678659499999994  0.6922862900000002  0.4390208940961942  1.0000
  Co  Co2       1.0  0.37166870499999993  0.35819684000000007  0.5260685886545391  1.0000
  Co  Co3       1.0  0.36678659499999994  0.025619620000000027  0.34874566122820505  1.0000
  Co  Co4       1.0  0.35008995499999995  0.6805360500000001  0.5703008184923434  1.0000
  Co  Co5       1.0  0.36678659499999994  0.35895295000000005  0.39388328307871373  1.0000
  Co  Co6       1.0  0.36678659499999994  0.025619620000000027  0.484158515946703  1.0000
  Co  Co7       1.0  0.8834991149999999  0.6805991800000002  0.5702921845687264  1.0000
  Co  Co8       1.0  0.8667865949999999  0.35895295000000005  0.39388328307871373  1.0000
  Co  Co9       1.0  0.8667865949999999  0.025619620000000027  0.484158515946703  1.0000
  Co  Co10      1.0  0.8667865949999999  0.6922862900000002  0.4390208940961942  1.0000
  Co  Co11      1.0  0.861814365  0.35811311000000007  0.5260474750822314  1.0000
  Co  Co12      1.0  0.8667865949999999  0.025619620000000027  0.34874566122820505  1.0000
  Sn  Sn1       1.0  0.11678659499999998  0.7485413500000001  0.5143449878471751  1.0000
  Sn  Sn2       1.0  0.11676372499999997  0.4131584000000001  0.6034199428369963  1.0000
  Sn  Sn3       1.0  0.11678659499999998  0.08187469000000003  0.42406974414615733  1.0000
  Sn  Sn4       1.0  0.616882975  0.52997643  0.5781977928547315  1.0000
  Sn  Sn5       1.0  0.616786595  0.19228629  0.3941674442460835  1.0000
  Sn  Sn6       1.0  0.616786595  0.85895295  0.48444268794710116  1.0000
  Sn  Sn7       1.0  0.616786595  0.6360312200000001  0.4991096658967399  1.0000
  Sn  Sn8       1.0  0.6164351549999999  0.3076967400000001  0.590720221174651  1.0000
  Sn  Sn9       1.0  0.616786595  0.9693645500000001  0.4088344330287508  1.0000
  Sn  Sn10      1.0  0.11689604499999998  0.51761453  0.5284294088627866  1.0000
  Sn  Sn11      1.0  0.11678659499999998  0.19228629  0.3484614892278069  1.0000
  Sn  Sn12      1.0  0.11678659499999998  0.85895295  0.43873673292882465  1.0000
  Sn  Sn13      1.0  0.616786595  0.7485413500000001  0.37893213312867685  1.0000
  Sn  Sn14      1.0  0.616786595  0.41520802000000007  0.4692073659966662  1.0000
  Sn  Sn15      1.0  0.616922145  0.07902950000000004  0.5600927366889319  1.0000
  Sn  Sn16      1.0  0.11678659499999998  0.85895295  0.3490298332286029  1.0000
  Sn  Sn17      1.0  0.11678659499999998  0.5256196200000001  0.43930506609659226  1.0000
  Sn  Sn18      1.0  0.11676413499999996  0.19559663000000005  0.5340951802014638  1.0000
  Sn  Sn19      1.0  0.11678659499999998  0.6360312200000001  0.3636968111782419  1.0000
  Sn  Sn20      1.0  0.11678659499999998  0.30269789  0.4539720440462312  1.0000
  Sn  Sn21      1.0  0.11650088499999998  0.97438038  0.545975415766138  1.0000
  Sn  Sn22      1.0  0.6167050649999999  0.8353589200000001  0.5798277086383503  1.0000
  Sn  Sn23      1.0  0.616786595  0.5256196200000001  0.39359911107831586  1.0000
  Sn  Sn24      1.0  0.616786595  0.19228629  0.4838743439463051  1.0000
