data_image0
_chemical_formula_structural       COFe18Re6Fe18Re6
_chemical_formula_sum              "C1 O1 Fe36 Re12"
_cell_length_a       5.094475137352057
_cell_length_b       9.58528036413198
_cell_length_c       109.08513364000001
_cell_angle_alpha    83.55555854807967
_cell_angle_beta     113.01854942033654
_cell_angle_gamma    74.58879163155181

_space_group_name_H-M_alt    "P 1"
_space_group_IT_number       1

loop_
  _space_group_symop_operation_xyz
  'x, y, z'

loop_
  _atom_site_type_symbol
  _atom_site_label
  _atom_site_symmetry_multiplicity
  _atom_site_fract_x
  _atom_site_fract_y
  _atom_site_fract_z
  _atom_site_occupancy
  C   C1        1.0  0.1335123699999999  0.307482395  0.5506608495171695  1.0000
  O   O1        1.0  0.27767882  0.277880825  0.5632472897820222  1.0000
  Fe  Fe1       1.0  0.3429768299999999  0.028839675000000016  0.44023317646246046  1.0000
  Fe  Fe2       1.0  0.3429768299999999  0.362173005  0.4601386980912006  1.0000
  Fe  Fe3       1.0  0.34297682999999984  0.6955063350000001  0.48004421613694725  1.0000
  Fe  Fe4       1.0  0.8552507599999999  0.858081695  0.46062733601027894  1.0000
  Fe  Fe5       1.0  0.8552507599999999  0.19141502500000002  0.4805328540560256  1.0000
  Fe  Fe6       1.0  0.8552507599999999  0.5247483650000001  0.44072181438153873  1.0000
  Fe  Fe7       1.0  0.8552507599999999  0.028839675000000016  0.4402331764624604  1.0000
  Fe  Fe8       1.0  0.8552507599999999  0.362173005  0.4601386980912006  1.0000
  Fe  Fe9       1.0  0.8552507599999999  0.6955063350000001  0.48004421613694725  1.0000
  Fe  Fe10      1.0  0.6926754099999999  0.970556575  0.4770523878115428  1.0000
  Fe  Fe11      1.0  0.6926754099999999  0.303889915  0.4372413481370559  1.0000
  Fe  Fe12      1.0  0.6926754099999999  0.637223245  0.45714686976579616  1.0000
  Fe  Fe13      1.0  0.1804014799999999  0.141314555  0.45665823184671794  1.0000
  Fe  Fe14      1.0  0.18040147999999995  0.474647885  0.47656374989246447  1.0000
  Fe  Fe15      1.0  0.18040147999999995  0.807981225  0.4367527102179777  1.0000
  Fe  Fe16      1.0  0.18040147999999995  0.970556575  0.4770523878115428  1.0000
  Fe  Fe17      1.0  0.1804014799999999  0.303889915  0.4372413481370559  1.0000
  Fe  Fe18      1.0  0.18040147999999986  0.637223245  0.45714686976579616  1.0000
  Re  Re1       1.0  0.68449279  0.138587015  0.4569839904594367  1.0000
  Re  Re2       1.0  0.6844927899999999  0.4719203450000001  0.47688950850518336  1.0000
  Re  Re3       1.0  0.6844927899999999  0.805253685  0.4370784688306965  1.0000
  Re  Re4       1.0  0.3511594499999997  0.8608092350000001  0.46030157739756006  1.0000
  Re  Re5       1.0  0.35115945  0.19414256500000002  0.48020709544330675  1.0000
  Re  Re6       1.0  0.3511594499999998  0.5274759050000001  0.44039605576881985  1.0000
  Fe  Fe19      1.0  0.3429768299999999  0.028839675000000016  0.4999497377656875  1.0000
  Fe  Fe20      1.0  0.3495778299999999  0.362547215  0.5204631644216866  1.0000
  Fe  Fe21      1.0  0.32979743  0.6933256950000001  0.5389636043586439  1.0000
  Fe  Fe22      1.0  0.8544353099999998  0.857523965  0.5201686710111785  1.0000
  Fe  Fe23      1.0  0.86648763  0.189243215  0.5400581049986254  1.0000
  Fe  Fe24      1.0  0.8552507599999999  0.5247483650000001  0.5004383756847658  1.0000
  Fe  Fe25      1.0  0.8552507599999999  0.028839675000000016  0.49994973776568746  1.0000
  Fe  Fe26      1.0  0.8552714299999998  0.36247161499999997  0.5200629583678112  1.0000
  Fe  Fe27      1.0  0.8471632899999997  0.6979329850000001  0.5390696394714356  1.0000
  Fe  Fe28      1.0  0.70006039  0.9711603249999999  0.5365482797045307  1.0000
  Fe  Fe29      1.0  0.6926754099999999  0.303889915  0.49695790944028295  1.0000
  Fe  Fe30      1.0  0.6978211899999996  0.6341269150000001  0.5174924291796439  1.0000
  Fe  Fe31      1.0  0.1842884399999999  0.14222182500000002  0.5166863881889372  1.0000
  Fe  Fe32      1.0  0.17567743999999988  0.4728823650000001  0.536890588164718  1.0000
  Fe  Fe33      1.0  0.18040147999999995  0.807981225  0.49646927152120474  1.0000
  Fe  Fe34      1.0  0.18400754  0.970377135  0.5364919407130615  1.0000
  Fe  Fe35      1.0  0.1804014799999999  0.303889915  0.496957909440283  1.0000
  Fe  Fe36      1.0  0.18151215  0.636091805  0.517187204703284  1.0000
  Re  Re7       1.0  0.68955912  0.13640880500000002  0.5170288363858753  1.0000
  Re  Re8       1.0  0.6826895099999998  0.4743950850000001  0.5369940291901387  1.0000
  Re  Re9       1.0  0.6844927899999999  0.805253685  0.49679503013392357  1.0000
  Re  Re10      1.0  0.3552258199999998  0.857797435  0.5202130857999251  1.0000
  Re  Re11      1.0  0.3612276300000001  0.18725520499999998  0.5389821356015769  1.0000
  Re  Re12      1.0  0.3511594499999998  0.5274759050000001  0.5001126170720469  1.0000
