data_image0
_chemical_formula_structural       COAu8In16
_chemical_formula_sum              "C1 O1 Au8 In16"
_cell_length_a       4.77878509
_cell_length_b       11.70558506
_cell_length_c       103.10839429
_cell_angle_alpha    90.0
_cell_angle_beta     90.0
_cell_angle_gamma    90.0

_space_group_name_H-M_alt    "P 1"
_space_group_IT_number       1

loop_
  _space_group_symop_operation_xyz
  'x, y, z'

loop_
  _atom_site_type_symbol
  _atom_site_label
  _atom_site_symmetry_multiplicity
  _atom_site_fract_x
  _atom_site_fract_y
  _atom_site_fract_z
  _atom_site_occupancy
  C   C1        1.0  1.8800000000082673e-06  0.368700615  0.5507325039041195  1.0000
  O   O1        1.0  2.0999999983395412e-07  0.374647445  0.5619950144908584  1.0000
  Au  Au1       1.0  0.99999979  0.377434305  0.5309997734284526  1.0000
  Au  Au2       1.0  1.2700000000082672e-06  0.3782037450000001  0.45138426677451926  1.0000
  Au  Au3       1.0  1.2700000000082672e-06  0.04487040500000001  0.47814283572733063  1.0000
  Au  Au4       1.0  1.3200000000082671e-06  0.7077647149999999  0.5044379120519905  1.0000
  Au  Au5       1.0  0.50000127  0.711537075  0.46476355125092494  1.0000
  Au  Au6       1.0  0.50000127  0.3782037450000001  0.49152211699270837  1.0000
  Au  Au7       1.0  0.50000187  0.038462925  0.5183035388319199  1.0000
  Au  Au8       1.0  0.50000127  0.04487040500000001  0.43800498550914163  1.0000
  In  In1       1.0  1.2700000000082672e-06  0.6282037450000001  0.45138426677451926  1.0000
  In  In2       1.0  1.2700000000082672e-06  0.294870405  0.47814283572733063  1.0000
  In  In3       1.0  2.0600000000082672e-06  0.956162925  0.5045031216089689  1.0000
  In  In4       1.0  2.910000000008267e-06  0.6260930849999999  0.5312862324489178  1.0000
  In  In5       1.0  0.50000127  0.461537075  0.46476355125092494  1.0000
  In  In6       1.0  0.50000127  0.128203745  0.49152211699270837  1.0000
  In  In7       1.0  0.5000018500000001  0.7917880549999999  0.5199486672932989  1.0000
  In  In8       1.0  0.50000127  0.7948704049999998  0.43800498550914163  1.0000
  In  In9       1.0  0.50000127  0.6282037450000001  0.49152211699270837  1.0000
  In  In10      1.0  0.5000029500000001  0.291969675  0.5188718618917573  1.0000
  In  In11      1.0  0.50000127  0.294870405  0.43800498550914163  1.0000
  In  In12      1.0  0.50000127  0.961537075  0.46476355125092494  1.0000
  In  In13      1.0  1.2700000000082672e-06  0.7948704049999998  0.47814283572733063  1.0000
  In  In14      1.0  1.3900000000082673e-06  0.45557582500000005  0.505100613647317  1.0000
  In  In15      1.0  2.3200000000082673e-06  0.112733265  0.5314684165455441  1.0000
  In  In16      1.0  1.2700000000082672e-06  0.128203745  0.45138426677451926  1.0000
