data_image0
_chemical_formula_structural       COAl2V6Al2V6
_chemical_formula_sum              "C1 O1 Al4 V12"
_cell_length_a       4.82055689
_cell_length_b       4.82055689
_cell_length_c       103.74389823
_cell_angle_alpha    90.0
_cell_angle_beta     90.0
_cell_angle_gamma    90.0

_space_group_name_H-M_alt    "P 1"
_space_group_IT_number       1

loop_
  _space_group_symop_operation_xyz
  'x, y, z'

loop_
  _atom_site_type_symbol
  _atom_site_label
  _atom_site_symmetry_multiplicity
  _atom_site_fract_x
  _atom_site_fract_y
  _atom_site_fract_z
  _atom_site_occupancy
  C   C1        1.0  0.500014715  0.227062895  0.5436053435111847  1.0000
  O   O1        1.0  0.500004745  0.159194125  0.5545924500391619  1.0000
  Al  Al1       1.0  9.534999999966933e-06  0.127034195  0.480256999669155  1.0000
  Al  Al2       1.0  0.500009535  0.627034195  0.45702403102853356  1.0000
  V   V1        1.0  9.534999999966933e-06  0.627034195  0.44540754996083803  1.0000
  V   V2        1.0  9.534999999966933e-06  0.627034195  0.46864051534884427  1.0000
  V   V3        1.0  0.500009535  0.37703419499999996  0.480256999669155  1.0000
  V   V4        1.0  0.500009535  0.877034195  0.480256999669155  1.0000
  V   V5        1.0  0.750009535  0.127034195  0.45702403102853356  1.0000
  V   V6        1.0  0.25000953499999995  0.127034195  0.45702403102853356  1.0000
  Al  Al3       1.0  0.999990645  0.131066045  0.5274900369763501  1.0000
  Al  Al4       1.0  0.499999225  0.627455685  0.5031953561810513  1.0000
  V   V7        1.0  9.534999999966933e-06  0.627034195  0.49187348073685055  1.0000
  V   V8        1.0  9.354999999966931e-06  0.6316084550000001  0.515841550174896  1.0000
  V   V9        1.0  0.499965125  0.3554664249999999  0.5255530005295264  1.0000
  V   V10       1.0  0.49998471499999997  0.859977095  0.5262815700755898  1.0000
  V   V11       1.0  0.760104665  0.12296841499999998  0.503863036770208  1.0000
  V   V12       1.0  0.23990779499999998  0.12296580499999997  0.5038640190600044  1.0000
