data_image0
_chemical_formula_structural       COAl2V6Al2V6
_chemical_formula_sum              "C1 O1 Al4 V12"
_cell_length_a       4.82055689
_cell_length_b       4.82055689
_cell_length_c       103.74389823
_cell_angle_alpha    90.0
_cell_angle_beta     90.0
_cell_angle_gamma    90.0

_space_group_name_H-M_alt    "P 1"
_space_group_IT_number       1

loop_
  _space_group_symop_operation_xyz
  'x, y, z'

loop_
  _atom_site_type_symbol
  _atom_site_label
  _atom_site_symmetry_multiplicity
  _atom_site_fract_x
  _atom_site_fract_y
  _atom_site_fract_z
  _atom_site_occupancy
  C   C1        1.0  0.6228102849999999  0.550617075  0.5434736125948001  1.0000
  O   O1        1.0  0.622809705  0.618571735  0.5544022761325156  1.0000
  Al  Al1       1.0  0.12281332499999999  0.11812657500000001  0.48044717357580136  1.0000
  Al  Al2       1.0  0.622813325  0.618126575  0.4572142049351799  1.0000
  V   V1        1.0  0.12281332499999999  0.618126575  0.44559772386748436  1.0000
  V   V2        1.0  0.12281332499999999  0.618126575  0.4688306892554906  1.0000
  V   V3        1.0  0.622813325  0.368126575  0.48044717357580136  1.0000
  V   V4        1.0  0.622813325  0.868126575  0.48044717357580136  1.0000
  V   V5        1.0  0.8728133250000001  0.11812657500000001  0.4572142049351799  1.0000
  V   V6        1.0  0.37281332500000003  0.11812657500000001  0.4572142049351799  1.0000
  Al  Al3       1.0  0.122802815  0.163098495  0.5279728649373596  1.0000
  Al  Al4       1.0  0.622827255  0.619996085  0.5032062817155732  1.0000
  V   V7        1.0  0.12281332499999999  0.618126575  0.4920636546434969  1.0000
  V   V8        1.0  0.122795045  0.6613415750000001  0.5156325859101274  1.0000
  V   V9        1.0  0.622810605  0.392246455  0.5257449373536216  1.0000
  V   V10       1.0  0.622818075  0.8877969049999999  0.5257426572703529  1.0000
  V   V11       1.0  0.877204955  0.11220309500000002  0.5042492555539717  1.0000
  V   V12       1.0  0.36842719500000004  0.11220677500000002  0.5042496653834894  1.0000
