data_image0
_chemical_formula_structural       COCu6Ni12Sn6
_chemical_formula_sum              "C1 O1 Cu6 Ni12 Sn6"
_cell_length_a       7.406602614930625
_cell_length_b       6.04746571
_cell_length_c       102.56659952999999
_cell_angle_alpha    90.0
_cell_angle_beta     85.6522468113833
_cell_angle_gamma    114.09484258862899

_space_group_name_H-M_alt    "P 1"
_space_group_IT_number       1

loop_
  _space_group_symop_operation_xyz
  'x, y, z'

loop_
  _atom_site_type_symbol
  _atom_site_label
  _atom_site_symmetry_multiplicity
  _atom_site_fract_x
  _atom_site_fract_y
  _atom_site_fract_z
  _atom_site_occupancy
  C   C1        1.0  0.37543849000000007  0.710236355  0.5370033006225796  1.0000
  O   O1        1.0  0.36717053  0.703723345  0.5486191379683164  1.0000
  Cu  Cu1       1.0  0.35416666  0.6979166650000002  0.47784058209370567  1.0000
  Cu  Cu2       1.0  0.52486405  0.283238625  0.506025122263926  1.0000
  Cu  Cu3       1.0  0.1875  0.11458333500000004  0.45138086203168354  1.0000
  Cu  Cu4       1.0  0.9374999999999999  0.9895833350000001  0.49107043894955055  1.0000
  Cu  Cu5       1.0  0.09261517999999999  0.565997375  0.5171559498045603  1.0000
  Cu  Cu6       1.0  0.77083333  0.40624999500000003  0.4646107220626946  1.0000
  Ni  Ni1       1.0  0.23159219  0.378313535  0.4979651058659224  1.0000
  Ni  Ni2       1.0  0.38803402000000004  0.9280075950000001  0.5233785769287281  1.0000
  Ni  Ni3       1.0  0.06250000000000001  0.802083335  0.47122565049061704  1.0000
  Ni  Ni4       1.0  0.23080192000000002  0.8948407450000001  0.4980312382265661  1.0000
  Ni  Ni5       1.0  0.39118061  0.503825465  0.5234130020801635  1.0000
  Ni  Ni6       1.0  0.06250000000000001  0.30208333500000006  0.47122565049061704  1.0000
  Ni  Ni7       1.0  0.8210263699999999  0.6821865749999999  0.5105998540302947  1.0000
  Ni  Ni8       1.0  0.47916666  0.510416665  0.4579957936347721  1.0000
  Ni  Ni9       1.0  0.64583333  0.09374999500000002  0.4844555105216281  1.0000
  Ni  Ni10      1.0  0.8208593399999999  0.18018016499999992  0.5105625617038226  1.0000
  Ni  Ni11      1.0  0.47916666  0.010416664999999992  0.4579957936347721  1.0000
  Ni  Ni12      1.0  0.64583333  0.593749995  0.4844555105216281  1.0000
  Sn  Sn1       1.0  0.9374999999999999  0.48958333500000006  0.49107043894955055  1.0000
  Sn  Sn2       1.0  0.10188281999999997  0.07245151500000001  0.5195793223423437  1.0000
  Sn  Sn3       1.0  0.77083333  0.906249995  0.4646107220626946  1.0000
  Sn  Sn4       1.0  0.35416666  0.19791666500000002  0.47784058209370567  1.0000
  Sn  Sn5       1.0  0.53215597  0.7871044250000002  0.5035078791139825  1.0000
  Sn  Sn6       1.0  0.1875  0.6145833350000001  0.45138086203168354  1.0000
