data_image0
_chemical_formula_structural       COV6Sn2V6Sn2
_chemical_formula_sum              "C1 O1 V12 Sn4"
_cell_length_a       5.671743657130572
_cell_length_b       4.54236436
_cell_length_c       30.297794439999997
_cell_angle_alpha    90.0
_cell_angle_beta     120.00000001673558
_cell_angle_gamma    90.0

_space_group_name_H-M_alt    "P 1"
_space_group_IT_number       1

loop_
  _space_group_symop_operation_xyz
  'x, y, z'

loop_
  _atom_site_type_symbol
  _atom_site_label
  _atom_site_symmetry_multiplicity
  _atom_site_fract_x
  _atom_site_fract_y
  _atom_site_fract_z
  _atom_site_occupancy
  C   C1        1.0  0.9453013949999999  0.25000007  0.6826715942574485  1.0000
  O   O1        1.0  0.054698605000000046  0.25000448999999997  0.7271995618167715  1.0000
  V   V1        1.0  0.11497618500000004  0.75000044  0.4600003199840538  1.0000
  V   V2        1.0  0.264401225  0.25000044  0.5159450226271137  1.0000
  V   V3        1.0  0.8161260850000001  0.25000044  0.5159450226271138  1.0000
  V   V4        1.0  0.666701045  0.75000044  0.46000031998405383  1.0000
  V   V5        1.0  0.10364556500000004  0.7500105100000001  0.5370408641449848  1.0000
  V   V6        1.0  0.761069205  0.24998948999999998  0.6065448569778102  1.0000
  Sn  Sn1       1.0  0.641535305  0.75000755  0.5517272417896418  1.0000
  Sn  Sn2       1.0  0.29028481500000003  0.24999813999999998  0.6149270089089104  1.0000
  V   V7        1.0  0.11497618500000004  0.75000044  0.2728004381832286  1.0000
  V   V8        1.0  0.264401225  0.25000044  0.32874514082628853  1.0000
  V   V9        1.0  0.8161260850000001  0.25000044  0.3287451408262886  1.0000
  V   V10       1.0  0.666701045  0.75000044  0.27280043818322863  1.0000
  V   V11       1.0  0.11497618500000004  0.75000044  0.3567174855958226  1.0000
  V   V12       1.0  0.8161260850000001  0.25000044  0.43202797521451974  1.0000
  Sn  Sn3       1.0  0.632217805  0.75000044  0.36317274792103504  1.0000
  Sn  Sn4       1.0  0.298884465  0.25000044  0.4255727128893074  1.0000
