data_image0
_chemical_formula_structural       COV6Sn2V6Sn2
_chemical_formula_sum              "C1 O1 V12 Sn4"
_cell_length_a       5.671743657130572
_cell_length_b       4.54236436
_cell_length_c       30.297794439999997
_cell_angle_alpha    90.0
_cell_angle_beta     120.00000001673558
_cell_angle_gamma    90.0

_space_group_name_H-M_alt    "P 1"
_space_group_IT_number       1

loop_
  _space_group_symop_operation_xyz
  'x, y, z'

loop_
  _atom_site_type_symbol
  _atom_site_label
  _atom_site_symmetry_multiplicity
  _atom_site_fract_x
  _atom_site_fract_y
  _atom_site_fract_z
  _atom_site_occupancy
  C   C1        1.0  0.9414774749999999  0.471007245  0.6791880224753258  1.0000
  O   O1        1.0  0.058522525000000034  0.584709355  0.7192124231721577  1.0000
  V   V1        1.0  0.14559696500000002  0.7472697549999999  0.46798745862866736  1.0000
  V   V2        1.0  0.29502200500000003  0.24726975500000004  0.5239321612717273  1.0000
  V   V3        1.0  0.8467468650000001  0.24726975500000004  0.5239321612717273  1.0000
  V   V4        1.0  0.6973218250000001  0.7472697549999999  0.46798745862866736  1.0000
  V   V5        1.0  0.14960688500000002  0.7533622849999999  0.5455068226568449  1.0000
  V   V6        1.0  0.750958475  0.249003275  0.6137647699955102  1.0000
  Sn  Sn1       1.0  0.682204625  0.7435515650000001  0.5601759423440535  1.0000
  Sn  Sn2       1.0  0.29747886500000004  0.24663771500000006  0.6238941426983486  1.0000
  V   V7        1.0  0.14559696500000002  0.7472697549999999  0.2807875768278421  1.0000
  V   V8        1.0  0.29502200500000003  0.24726975500000004  0.33673227947090206  1.0000
  V   V9        1.0  0.8467468650000001  0.24726975500000004  0.33673227947090206  1.0000
  V   V10       1.0  0.6973218250000001  0.7472697549999999  0.2807875768278421  1.0000
  V   V11       1.0  0.14559696500000002  0.7472697549999999  0.36470462424043615  1.0000
  V   V12       1.0  0.8467468650000001  0.24726975500000004  0.4400151138591333  1.0000
  Sn  Sn3       1.0  0.662838585  0.7472697549999999  0.37115988656564863  1.0000
  Sn  Sn4       1.0  0.329505245  0.24726975500000004  0.43355985153392096  1.0000
