data_image0
_chemical_formula_structural       COV2Ir2V2Ir2V2Ir2V2Ir2V2Ir2V2Ir2
_chemical_formula_sum              "C1 O1 V12 Ir12"
_cell_length_a       7.882270780995085
_cell_length_b       5.50903502
_cell_length_c       100.29969261
_cell_angle_alpha    90.0
_cell_angle_beta     69.54587178955929
_cell_angle_gamma    90.0

_space_group_name_H-M_alt    "P 1"
_space_group_IT_number       1

loop_
  _space_group_symop_operation_xyz
  'x, y, z'

loop_
  _atom_site_type_symbol
  _atom_site_label
  _atom_site_symmetry_multiplicity
  _atom_site_fract_x
  _atom_site_fract_y
  _atom_site_fract_z
  _atom_site_occupancy
  C   C1        1.0  0.72823646  0.12503998000000005  0.5386660335428751  1.0000
  O   O1        1.0  0.65196285  0.12505610000000003  0.5510632043620183  1.0000
  V   V1        1.0  0.6302077800000001  0.3779337000000001  0.509239156797816  1.0000
  V   V2        1.0  0.12505234  0.38067887000000006  0.5213280310759475  1.0000
  Ir  Ir1       1.0  0.37701208  0.12557943000000005  0.5042807252945833  1.0000
  Ir  Ir2       1.0  0.8542576100000001  0.12495327000000003  0.5189373598768753  1.0000
  V   V3        1.0  0.62847592  0.37503277000000007  0.4832653861921361  1.0000
  V   V4        1.0  0.12164753  0.3749588900000001  0.49784679090827066  1.0000
  Ir  Ir3       1.0  0.37847591999999997  0.12503277000000004  0.4763996662687558  1.0000
  Ir  Ir4       1.0  0.87847592  0.12503277000000004  0.4901311030946007  1.0000
  V   V5        1.0  0.62847592  0.37503277000000007  0.4558025155613622  1.0000
  V   V6        1.0  0.12847592  0.37503277000000007  0.4695339493662912  1.0000
  Ir  Ir5       1.0  0.37847591999999997  0.12503277000000004  0.44893679563798183  1.0000
  Ir  Ir6       1.0  0.87847592  0.12503277000000004  0.46266823246382666  1.0000
  V   V7        1.0  0.6302787599999999  0.8721168000000001  0.5092381508328547  1.0000
  V   V8        1.0  0.12495754  0.8693526100000001  0.5213443440212653  1.0000
  Ir  Ir7       1.0  0.37920152  0.6244068700000001  0.5041562514799769  1.0000
  Ir  Ir8       1.0  0.87577227  0.6250179600000001  0.5170237396172116  1.0000
  V   V9        1.0  0.62847592  0.8750327700000001  0.4832653861921361  1.0000
  V   V10       1.0  0.12152408000000002  0.8750467300000001  0.4978288285429262  1.0000
  Ir  Ir9       1.0  0.37847591999999997  0.62503277  0.4763996662687558  1.0000
  Ir  Ir10      1.0  0.87847592  0.62503277  0.4901311030946007  1.0000
  V   V11       1.0  0.62847592  0.8750327700000001  0.4558025155613622  1.0000
  V   V12       1.0  0.12847592  0.8750327700000001  0.4695339493662912  1.0000
  Ir  Ir11      1.0  0.37847591999999997  0.62503277  0.44893679563798183  1.0000
  Ir  Ir12      1.0  0.87847592  0.62503277  0.46266823246382666  1.0000
