data_image0
_chemical_formula_structural       COV2Ir2V2Ir2V2Ir2V2Ir2V2Ir2V2Ir2
_chemical_formula_sum              "C1 O1 V12 Ir12"
_cell_length_a       7.882270780995085
_cell_length_b       5.50903502
_cell_length_c       100.29969261
_cell_angle_alpha    90.0
_cell_angle_beta     69.54587178955929
_cell_angle_gamma    90.0

_space_group_name_H-M_alt    "P 1"
_space_group_IT_number       1

loop_
  _space_group_symop_operation_xyz
  'x, y, z'

loop_
  _atom_site_type_symbol
  _atom_site_label
  _atom_site_symmetry_multiplicity
  _atom_site_fract_x
  _atom_site_fract_y
  _atom_site_fract_z
  _atom_site_occupancy
  C   C1        1.0  0.69649806  0.610783965  0.5386713080618613  1.0000
  O   O1        1.0  0.5990099200000001  0.601160815  0.5506331951234409  1.0000
  V   V1        1.0  0.6290792900000001  0.3699068349999999  0.5095765024651568  1.0000
  V   V2        1.0  0.12330060000000004  0.36867792499999996  0.5218430337805466  1.0000
  Ir  Ir1       1.0  0.37758263  0.12324700499999997  0.504619956013383  1.0000
  Ir  Ir2       1.0  0.8738109000000001  0.12281438499999997  0.5175455454241914  1.0000
  V   V3        1.0  0.62926373  0.374052375  0.4836953954307136  1.0000
  V   V4        1.0  0.12073627000000002  0.373838485  0.4983686269244085  1.0000
  Ir  Ir3       1.0  0.37926372999999997  0.12405237499999996  0.47682967550733324  1.0000
  Ir  Ir4       1.0  0.87926373  0.12405237499999996  0.4905611123331782  1.0000
  V   V5        1.0  0.62926373  0.374052375  0.45623252479993964  1.0000
  V   V6        1.0  0.12926373  0.374052375  0.4699639586048687  1.0000
  Ir  Ir5       1.0  0.37926372999999997  0.12405237499999996  0.44936680487655933  1.0000
  Ir  Ir6       1.0  0.87926373  0.12405237499999996  0.46309824170240416  1.0000
  V   V7        1.0  0.6296637700000001  0.876889785  0.5095718532757413  1.0000
  V   V8        1.0  0.12135594  0.877185615  0.5218997273073577  1.0000
  Ir  Ir7       1.0  0.37558806000000006  0.623845565  0.5047433513610491  1.0000
  Ir  Ir8       1.0  0.85095022  0.6225821549999999  0.5195247014312113  1.0000
  V   V9        1.0  0.62926373  0.874052375  0.4836953954307136  1.0000
  V   V10       1.0  0.12073698  0.8734731949999999  0.4983662887355796  1.0000
  Ir  Ir9       1.0  0.37926372999999997  0.624052375  0.47682967550733324  1.0000
  Ir  Ir10      1.0  0.87926373  0.624052375  0.4905611123331782  1.0000
  V   V11       1.0  0.62926373  0.874052375  0.45623252479993964  1.0000
  V   V12       1.0  0.12926373  0.874052375  0.4699639586048687  1.0000
  Ir  Ir11      1.0  0.37926372999999997  0.624052375  0.44936680487655933  1.0000
  Ir  Ir12      1.0  0.87926373  0.624052375  0.46309824170240416  1.0000
