data_image0
_chemical_formula_structural       COV2Ir2V2Ir2V2Ir2V2Ir2V2Ir2V2Ir2
_chemical_formula_sum              "C1 O1 V12 Ir12"
_cell_length_a       5.50903502
_cell_length_b       7.882270780995085
_cell_length_c       100.29969261
_cell_angle_alpha    110.45412821044073
_cell_angle_beta     90.0
_cell_angle_gamma    90.0

_space_group_name_H-M_alt    "P 1"
_space_group_IT_number       1

loop_
  _space_group_symop_operation_xyz
  'x, y, z'

loop_
  _atom_site_type_symbol
  _atom_site_label
  _atom_site_symmetry_multiplicity
  _atom_site_fract_x
  _atom_site_fract_y
  _atom_site_fract_z
  _atom_site_occupancy
  C   C1        1.0  0.62264392  0.59577088  0.5353513276399385  1.0000
  O   O1        1.0  0.62267601  0.64699624  0.5478862945123645  1.0000
  V   V1        1.0  0.37267356000000007  0.25241706  0.4658451423134804  1.0000
  V   V2        1.0  0.37267356000000007  0.75241706  0.45211370548763546  1.0000
  Ir  Ir1       1.0  0.12267356000000003  0.0024170600000000203  0.47271085921594486  1.0000
  Ir  Ir2       1.0  0.12267356000000003  0.5024170600000001  0.45897942239010003  1.0000
  V   V3        1.0  0.37267356000000007  0.25241706  0.4933080129442543  1.0000
  V   V4        1.0  0.37267356000000007  0.75241706  0.4795765761184094  1.0000
  Ir  Ir3       1.0  0.12267897000000001  0.9956927099999999  0.4997652536959609  1.0000
  Ir  Ir4       1.0  0.12267356000000003  0.5024170600000001  0.486442293020874  1.0000
  V   V5        1.0  0.36803043  0.23973695000000003  0.518681331221028  1.0000
  V   V6        1.0  0.36979705  0.7541089100000001  0.5072650185319392  1.0000
  Ir  Ir5       1.0  0.12267812000000003  0.00872895000000002  0.526461684758304  1.0000
  Ir  Ir6       1.0  0.12268443000000002  0.4881652000000001  0.5131785971508559  1.0000
  V   V7        1.0  0.87267356  0.25241706  0.4658451423134804  1.0000
  V   V8        1.0  0.87267356  0.75241706  0.45211370548763546  1.0000
  Ir  Ir7       1.0  0.6226735600000001  0.0024170600000000203  0.47271085921594486  1.0000
  Ir  Ir8       1.0  0.6226735600000001  0.5024170600000001  0.45897942239010003  1.0000
  V   V9        1.0  0.87267356  0.25241706  0.4933080129442543  1.0000
  V   V10       1.0  0.87267356  0.75241706  0.4795765761184094  1.0000
  Ir  Ir9       1.0  0.62269337  0.99758294  0.49977898980010166  1.0000
  Ir  Ir10      1.0  0.6226735600000001  0.5024170600000001  0.486442293020874  1.0000
  V   V11       1.0  0.87732644  0.23978460000000001  0.5186791954335576  1.0000
  V   V12       1.0  0.87556706  0.75411483  0.5072781232646777  1.0000
  Ir  Ir11      1.0  0.62268537  0.00723859000000002  0.5262514562068944  1.0000
  Ir  Ir12      1.0  0.6226445500000001  0.5159249100000001  0.5153826240881662  1.0000
