data_image0
_chemical_formula_structural       COAg16Al8
_chemical_formula_sum              "C1 O1 Ag16 Al8"
_cell_length_a       5.1146784379524295
_cell_length_b       6.892220688861718
_cell_length_c       108.50396585
_cell_angle_alpha    86.77190265008633
_cell_angle_beta     89.61705669915978
_cell_angle_gamma    68.60323897044242

_space_group_name_H-M_alt    "P 1"
_space_group_IT_number       1

loop_
  _space_group_symop_operation_xyz
  'x, y, z'

loop_
  _atom_site_type_symbol
  _atom_site_label
  _atom_site_symmetry_multiplicity
  _atom_site_fract_x
  _atom_site_fract_y
  _atom_site_fract_z
  _atom_site_occupancy
  C   C1        1.0  0.9777237  0.35001828  0.5590101496488936  1.0000
  O   O1        1.0  0.9382686899999999  0.37187044  0.5695275085340489  1.0000
  Ag  Ag1       1.0  0.60859264  0.54626176  0.4402320099921349  1.0000
  Ag  Ag2       1.0  0.35859263999999996  0.04626176  0.4698038663510311  1.0000
  Ag  Ag3       1.0  0.9221623800000002  0.8852418399999998  0.4793271814394114  1.0000
  Ag  Ag4       1.0  0.17216237999999995  0.38524183999999995  0.4497553250805152  1.0000
  Ag  Ag5       1.0  0.3928408400000001  0.61475816  0.46575273360230857  1.0000
  Ag  Ag6       1.0  0.64284084  0.11475815999999998  0.43618087724341226  1.0000
  Ag  Ag7       1.0  0.9564105800000002  0.45373823999999996  0.47527605223931174  1.0000
  Ag  Ag8       1.0  0.20641057999999995  0.95373824  0.44570419233179265  1.0000
  Ag  Ag9       1.0  0.10859263999999999  0.54626176  0.49937572270992736  1.0000
  Ag  Ag10      1.0  0.80417862  0.06563381  0.5295006816292903  1.0000
  Ag  Ag11      1.0  0.3650439200000002  0.9197497499999999  0.53751495192456  1.0000
  Ag  Ag12      1.0  0.6721623800000001  0.38524183999999995  0.5088990413469305  1.0000
  Ag  Ag13      1.0  0.85623686  0.64289029  0.5252626677525212  1.0000
  Ag  Ag14      1.0  0.14284084000000002  0.11475815999999998  0.4953245935098277  1.0000
  Ag  Ag15      1.0  0.42103859999999993  0.47643029  0.5352544684881982  1.0000
  Ag  Ag16      1.0  0.7064105800000002  0.95373824  0.504847908598208  1.0000
  Al  Al1       1.0  0.76313929  0.21127534999999997  0.46004434782484743  1.0000
  Al  Al2       1.0  0.013139290000000026  0.71127535  0.4304724914659512  1.0000
  Al  Al3       1.0  0.8018639299999999  0.78872465  0.45546371085797627  1.0000
  Al  Al4       1.0  0.55186393  0.28872465  0.4850355672168726  1.0000
  Al  Al5       1.0  0.26015898  0.23218546999999998  0.5182463447392222  1.0000
  Al  Al6       1.0  0.51313929  0.71127535  0.48961620773236647  1.0000
  Al  Al7       1.0  0.27566653999999996  0.79118487  0.5146145634050536  1.0000
  Al  Al8       1.0  0.98686071  0.3220679699999999  0.5408850329653525  1.0000
