data_image0
_chemical_formula_structural       Al10W2Al10W2CO
_chemical_formula_sum              "Al20 W4 C1 O1"
_cell_length_a       4.935080103194727
_cell_length_b       8.91091078
_cell_length_c       35.45443929
_cell_angle_alpha    90.0
_cell_angle_beta     60.00000002141419
_cell_angle_gamma    90.0

_space_group_name_H-M_alt    "P 1"
_space_group_IT_number       1

loop_
  _space_group_symop_operation_xyz
  'x, y, z'

loop_
  _atom_site_type_symbol
  _atom_site_label
  _atom_site_symmetry_multiplicity
  _atom_site_fract_x
  _atom_site_fract_y
  _atom_site_fract_z
  _atom_site_occupancy
  Al  Al1       1.0  0.04347610499999999  0.875  0.4894404618269081  1.0000
  Al  Al2       1.0  0.04347610499999999  0.37500000000000006  0.4894404618269081  1.0000
  Al  Al3       1.0  0.733633255  0.8748954  0.5763417860281304  1.0000
  Al  Al4       1.0  0.371081175  0.37504058000000007  0.5375995960861538  1.0000
  Al  Al5       1.0  0.396212855  0.14011345000000003  0.5835754417135709  1.0000
  Al  Al6       1.0  0.380994725  0.625  0.4894404618269081  1.0000
  Al  Al7       1.0  0.017134815000000136  0.6101267499999999  0.583431420839717  1.0000
  Al  Al8       1.0  0.04455689499999999  0.12858037000000003  0.538964749497496  1.0000
  Al  Al9       1.0  0.705957485  0.12500000000000003  0.4894404618269081  1.0000
  Al  Al10      1.0  0.688358055  0.6216962  0.5388275394341977  1.0000
  W   W1        1.0  0.739630905  0.37540301  0.5741598030452494  1.0000
  W   W2        1.0  0.342070115  0.8749181200000001  0.5459771366608915  1.0000
  Al  Al11      1.0  0.04347610499999999  0.875  0.3502454808441199  1.0000
  Al  Al12      1.0  0.04347610499999999  0.37500000000000006  0.3502454808441199  1.0000
  Al  Al13      1.0  0.710142775  0.875  0.4430421413284113  1.0000
  Al  Al14      1.0  0.37680943499999997  0.37500000000000006  0.3966438110862656  1.0000
  Al  Al15      1.0  0.380994725  0.12500000000000003  0.4424595685628526  1.0000
  Al  Al16      1.0  0.380994725  0.625  0.35024548084412  1.0000
  Al  Al17      1.0  0.04347610499999999  0.625  0.4424595685628526  1.0000
  Al  Al18      1.0  0.04347610499999999  0.12500000000000003  0.39722638385182435  1.0000
  Al  Al19      1.0  0.705957485  0.12500000000000003  0.35024548084411994  1.0000
  Al  Al20      1.0  0.705957485  0.625  0.3972263838518244  1.0000
  W   W3        1.0  0.710142775  0.37500000000000006  0.4430421413284113  1.0000
  W   W4        1.0  0.37680943499999997  0.875  0.3966438110862656  1.0000
  C   C1        1.0  0.11793416500000001  0.8715262  0.6107046442700866  1.0000
  O   O1        1.0  0.982865185  0.86826099  0.64975451915588  1.0000
