data_image0
_chemical_formula_structural       COFePdFePdFePdFePdFePdFePdFePdFePd
_chemical_formula_sum              "C1 O1 Fe8 Pd8"
_cell_length_a       5.3295635
_cell_length_b       5.3295635
_cell_length_c       99.64759368
_cell_angle_alpha    90.0
_cell_angle_beta     90.0
_cell_angle_gamma    90.0

_space_group_name_H-M_alt    "P 1"
_space_group_IT_number       1

loop_
  _space_group_symop_operation_xyz
  'x, y, z'

loop_
  _atom_site_type_symbol
  _atom_site_label
  _atom_site_symmetry_multiplicity
  _atom_site_fract_x
  _atom_site_fract_y
  _atom_site_fract_z
  _atom_site_occupancy
  C   C1        1.0  0.371124  0.12461050000000004  0.5316099923307454  1.0000
  O   O1        1.0  0.36863557  0.12461436000000004  0.5434439700720048  1.0000
  Fe  Fe1       1.0  0.17602415  0.12467454000000003  0.49482144742976364  1.0000
  Pd  Pd1       1.0  0.37410745  0.3738869  0.5162312490053154  1.0000
  Fe  Fe2       1.0  0.125  0.12462980000000003  0.45655602992799504  1.0000
  Pd  Pd2       1.0  0.37500000000000006  0.37462980000000007  0.47515130690929863  1.0000
  Fe  Fe3       1.0  0.17398308999999998  0.6245949900000001  0.4949092677162688  1.0000
  Pd  Pd3       1.0  0.37411602  0.8753895  0.5162288271564413  1.0000
  Fe  Fe4       1.0  0.125  0.6246298  0.45655602992799504  1.0000
  Pd  Pd4       1.0  0.37500000000000006  0.8746298000000001  0.47515130690929863  1.0000
  Fe  Fe5       1.0  0.5727273  0.12466434000000003  0.49482420845648983  1.0000
  Pd  Pd5       1.0  0.87431698  0.3755174500000001  0.5097730468295779  1.0000
  Fe  Fe6       1.0  0.6250000000000001  0.12462980000000003  0.45655602992799504  1.0000
  Pd  Pd6       1.0  0.8750000000000001  0.37462980000000007  0.47515130690929863  1.0000
  Fe  Fe7       1.0  0.57539921  0.62458559  0.4949042217019071  1.0000
  Pd  Pd7       1.0  0.8743340800000001  0.8737548500000001  0.509770053733795  1.0000
  Fe  Fe8       1.0  0.6250000000000001  0.6246298  0.45655602992799504  1.0000
  Pd  Pd8       1.0  0.8750000000000001  0.8746298000000001  0.47515130690929863  1.0000
