data_image0
_chemical_formula_structural       COAl12Cr4
_chemical_formula_sum              "C1 O1 Al12 Cr4"
_cell_length_a       4.851228504218008
_cell_length_b       4.8512285
_cell_length_c       102.09947256000001
_cell_angle_alpha    90.0
_cell_angle_beta     90.0
_cell_angle_gamma    113.07409748685518

_space_group_name_H-M_alt    "P 1"
_space_group_IT_number       1

loop_
  _space_group_symop_operation_xyz
  'x, y, z'

loop_
  _atom_site_type_symbol
  _atom_site_label
  _atom_site_symmetry_multiplicity
  _atom_site_fract_x
  _atom_site_fract_y
  _atom_site_fract_z
  _atom_site_occupancy
  C   C1        1.0  0.7498337099999999  0.24999368500000008  0.5501960799019565  1.0000
  O   O1        1.0  0.74966587  0.24967514500000004  0.5616151254045872  1.0000
  Al  Al1       1.0  0.75008713  0.25030787500000007  0.5304359795205583  1.0000
  Al  Al2       1.0  0.24991286999999995  0.750240425  0.503862826782353  1.0000
  Al  Al3       1.0  0.24998241999999996  0.750324855  0.5296221986685543  1.0000
  Al  Al4       1.0  0.7499450699999999  0.2502689250000001  0.5038943636552845  1.0000
  Al  Al5       1.0  0.24994913999999996  0.2502122850000001  0.4907838935735727  1.0000
  Al  Al6       1.0  0.74991212  0.7502579350000002  0.5182694934665641  1.0000
  Al  Al7       1.0  0.7499491399999999  0.2502122850000001  0.47768413804304743  1.0000
  Al  Al8       1.0  0.24994913999999996  0.750212285  0.451484630125938  1.0000
  Al  Al9       1.0  0.24994913999999996  0.750212285  0.47768413804304743  1.0000
  Al  Al10      1.0  0.7499491399999999  0.2502122850000001  0.451484630125938  1.0000
  Al  Al11      1.0  0.24994913999999996  0.2502122850000001  0.43838487459541264  1.0000
  Al  Al12      1.0  0.7499491399999999  0.7502122850000001  0.46458438565646326  1.0000
  Cr  Cr1       1.0  0.24992482  0.25016859500000005  0.5157839596747907  1.0000
  Cr  Cr2       1.0  0.7499491399999999  0.7502122850000001  0.4907838935735727  1.0000
  Cr  Cr3       1.0  0.24994913999999996  0.2502122850000001  0.46458438565646326  1.0000
  Cr  Cr4       1.0  0.7499491399999999  0.7502122850000001  0.43838487459541264  1.0000
