data_image0
_chemical_formula_structural       COSb4Ir4Sb4Ir4Sb4Ir4Sb4Ir4
_chemical_formula_sum              "C1 O1 Sb16 Ir16"
_cell_length_a       8.160179218018358
_cell_length_b       6.947940938875847
_cell_length_c       111.68764561
_cell_angle_alpha    71.92239601817889
_cell_angle_beta     107.07472210206134
_cell_angle_gamma    72.92527795539817

_space_group_name_H-M_alt    "P 1"
_space_group_IT_number       1

loop_
  _space_group_symop_operation_xyz
  'x, y, z'

loop_
  _atom_site_type_symbol
  _atom_site_label
  _atom_site_symmetry_multiplicity
  _atom_site_fract_x
  _atom_site_fract_y
  _atom_site_fract_z
  _atom_site_occupancy
  C   C1        1.0  0.5417614350000001  0.04006851500000002  0.5577812820576061  1.0000
  O   O1        1.0  0.5813689750000001  0.01686808500000002  0.5692855381096272  1.0000
  Sb  Sb1       1.0  0.17077685499999998  0.06646525500000003  0.46181880032966516  1.0000
  Sb  Sb2       1.0  0.17077685499999998  0.566465255  0.43071446189037277  1.0000
  Sb  Sb3       1.0  0.33744351499999997  0.9831319150000001  0.43589851891900827  1.0000
  Sb  Sb4       1.0  0.3374435149999999  0.48313191499999997  0.46700285735830066  1.0000
  Ir  Ir1       1.0  0.004110184999999981  0.274798585  0.4333064885384302  1.0000
  Ir  Ir2       1.0  0.004110184999999881  0.7747985850000001  0.4644108307102433  1.0000
  Ir  Ir3       1.0  0.004110184999999967  0.02479858500000002  0.4799629980636291  1.0000
  Ir  Ir4       1.0  0.004110184999999995  0.524798585  0.4488586596243368  1.0000
  Sb  Sb5       1.0  0.16354968499999997  0.06778856500000002  0.5245469993080732  1.0000
  Sb  Sb6       1.0  0.17077685499999998  0.566465255  0.4929231425014782  1.0000
  Sb  Sb7       1.0  0.33744351499999997  0.9831319150000001  0.498107195797593  1.0000
  Sb  Sb8       1.0  0.336847635  0.49677819500000003  0.5291311506697545  1.0000
  Ir  Ir5       1.0  0.004110184999999981  0.274798585  0.49551516914953564  1.0000
  Ir  Ir6       1.0  0.9958898150000001  0.784764255  0.5253844724564882  1.0000
  Ir  Ir7       1.0  0.9759547550000001  0.07070804500000002  0.5392457033940995  1.0000
  Ir  Ir8       1.0  0.004110184999999995  0.524798585  0.5110673402354422  1.0000
  Sb  Sb9       1.0  0.6707768550000001  0.06646525500000003  0.46181880032966516  1.0000
  Sb  Sb10      1.0  0.670776855  0.566465255  0.43071446189037277  1.0000
  Sb  Sb11      1.0  0.8374435149999998  0.9831319150000001  0.43589851891900827  1.0000
  Sb  Sb12      1.0  0.837443515  0.48313191499999997  0.46700285735830066  1.0000
  Ir  Ir9       1.0  0.504110185  0.274798585  0.4333064885384302  1.0000
  Ir  Ir10      1.0  0.504110185  0.7747985850000001  0.4644108307102433  1.0000
  Ir  Ir11      1.0  0.5041101849999999  0.02479858500000002  0.479962998063629  1.0000
  Ir  Ir12      1.0  0.504110185  0.524798585  0.44885865962433674  1.0000
  Sb  Sb13      1.0  0.6780356649999999  0.06459442500000002  0.5239803168084217  1.0000
  Sb  Sb14      1.0  0.670776855  0.566465255  0.4929231425014782  1.0000
  Sb  Sb15      1.0  0.8374435149999998  0.9831319150000001  0.49810719579759294  1.0000
  Sb  Sb16      1.0  0.834991185  0.494746175  0.5305955641330031  1.0000
  Ir  Ir13      1.0  0.504110185  0.274798585  0.4955151691495356  1.0000
  Ir  Ir14      1.0  0.4927071450000001  0.7980122250000001  0.5256780053542547  1.0000
  Ir  Ir15      1.0  0.48796572499999996  0.05582154500000002  0.5399769713967522  1.0000
  Ir  Ir16      1.0  0.504110185  0.524798585  0.5110673402354421  1.0000
