data_image0
_chemical_formula_structural       COAg24Sn8
_chemical_formula_sum              "C1 O1 Ag24 Sn8"
_cell_length_a       11.229074243730587
_cell_length_b       7.921717155491821
_cell_length_c       108.08768663000001
_cell_angle_alpha    79.56316842292856
_cell_angle_beta     101.42294909032488
_cell_angle_gamma    56.50571161430806

_space_group_name_H-M_alt    "P 1"
_space_group_IT_number       1

loop_
  _space_group_symop_operation_xyz
  'x, y, z'

loop_
  _atom_site_type_symbol
  _atom_site_label
  _atom_site_symmetry_multiplicity
  _atom_site_fract_x
  _atom_site_fract_y
  _atom_site_fract_z
  _atom_site_occupancy
  C   C1        1.0  0.8416718000000003  0.28609287000000005  0.5476504177483303  1.0000
  O   O1        1.0  0.7993366800000002  0.35505794  0.5556817354897153  1.0000
  Ag  Ag1       1.0  0.9667091800000002  0.2945558200000001  0.5061826000359488  1.0000
  Ag  Ag2       1.0  0.69973503  0.04221245000000003  0.5247932784143382  1.0000
  Ag  Ag3       1.0  0.21541980000000005  0.5377891900000001  0.48330095283535585  1.0000
  Ag  Ag4       1.0  0.46541980000000005  0.7877891900000001  0.46127734877281606  1.0000
  Ag  Ag5       1.0  0.7909981800000003  0.9622108100000001  0.4899589878644769  1.0000
  Ag  Ag6       1.0  0.5353991200000002  0.7218228600000001  0.5118661663465005  1.0000
  Ag  Ag7       1.0  0.04099818000000013  0.21221081000000003  0.46793538380193705  1.0000
  Ag  Ag8       1.0  0.29099818000000005  0.4622108100000001  0.4459117797393972  1.0000
  Ag  Ag9       1.0  0.10764301000000014  0.52591089  0.5076936870816645  1.0000
  Ag  Ag10      1.0  0.8422312800000001  0.27563262000000005  0.5278864319388306  1.0000
  Ag  Ag11      1.0  0.3582608100000001  0.7701958700000001  0.48489446806446845  1.0000
  Ag  Ag12      1.0  0.6082608100000001  0.02019587000000003  0.4628708640019287  1.0000
  Ag  Ag13      1.0  0.6481571700000001  0.7298041300000001  0.4883654726353643  1.0000
  Ag  Ag14      1.0  0.3974823000000001  0.47804681000000004  0.5107675338338914  1.0000
  Ag  Ag15      1.0  0.8981571700000002  0.97980413  0.4663418685728245  1.0000
  Ag  Ag16      1.0  0.14815717000000017  0.22980413000000002  0.44431826451028467  1.0000
  Ag  Ag17      1.0  0.9770905100000001  0.9088141100000001  0.5173234004828221  1.0000
  Ag  Ag18      1.0  0.7335084900000001  0.6444528100000001  0.45183723922186525  1.0000
  Ag  Ag19      1.0  0.2335084900000001  0.14445281000000004  0.49588444734694487  1.0000
  Ag  Ag20      1.0  0.4835084900000001  0.39445281  0.47386084328440503  1.0000
  Ag  Ag21      1.0  0.5237234200000002  0.09765703000000006  0.4987620338348731  1.0000
  Ag  Ag22      1.0  0.26844053  0.8635965600000001  0.5201700482117634  1.0000
  Ag  Ag23      1.0  0.7729094900000002  0.35554719  0.4773754933528879  1.0000
  Ag  Ag24      1.0  0.02290949000000005  0.6055471900000001  0.4553518892903481  1.0000
  Sn  Sn1       1.0  0.91851901  0.58468998  0.4791692542376904  1.0000
  Sn  Sn2       1.0  0.6642956400000002  0.34775671  0.5013269732395295  1.0000
  Sn  Sn3       1.0  0.16851901000000014  0.83468998  0.4571456501751505  1.0000
  Sn  Sn4       1.0  0.4058600500000001  0.09916716000000005  0.5221148452113384  1.0000
  Sn  Sn5       1.0  0.8423624300000002  0.65894792  0.5168293247111715  1.0000
  Sn  Sn6       1.0  0.5878989700000002  0.41531002  0.45004347833706265  1.0000
  Sn  Sn7       1.0  0.08789897  0.9153100200000001  0.4940906864621424  1.0000
  Sn  Sn8       1.0  0.33789897000000013  0.16531002000000006  0.47206708239960254  1.0000
