data_image0
_chemical_formula_structural       COCu2Au2Cu2Au2Cu2Au2Cu2Au2Cu2Au2Cu2Au2Cu2Au2Cu2Au2
_chemical_formula_sum              "C1 O1 Cu16 Au16"
_cell_length_a       7.39734638
_cell_length_b       8.18241854
_cell_length_c       98.63846489
_cell_angle_alpha    90.0
_cell_angle_beta     90.0
_cell_angle_gamma    90.0

_space_group_name_H-M_alt    "P 1"
_space_group_IT_number       1

loop_
  _space_group_symop_operation_xyz
  'x, y, z'

loop_
  _atom_site_type_symbol
  _atom_site_label
  _atom_site_symmetry_multiplicity
  _atom_site_fract_x
  _atom_site_fract_y
  _atom_site_fract_z
  _atom_site_occupancy
  C   C1        1.0  0.12080119499999997  0.25304691  0.5316593067340789  1.0000
  O   O1        1.0  0.12078152499999999  0.25304747000000005  0.5437652274150739  1.0000
  Cu  Cu1       1.0  0.37077989499999997  0.25304626  0.4769731792133051  1.0000
  Cu  Cu2       1.0  0.37077989499999997  0.0030462600000000306  0.4562347725849261  1.0000
  Au  Au1       1.0  0.12077989499999997  0.25304626  0.4562347725849261  1.0000
  Au  Au2       1.0  0.12077989499999997  0.0030462600000000306  0.4769731792133051  1.0000
  Cu  Cu3       1.0  0.362337615  0.2530464800000001  0.518655937709814  1.0000
  Cu  Cu4       1.0  0.371090595  0.003869660000000031  0.4980867921529672  1.0000
  Au  Au3       1.0  0.12078003499999998  0.25304619000000006  0.4971312965936152  1.0000
  Au  Au4       1.0  0.12077819499999998  0.9969537399999999  0.5190188133790373  1.0000
  Cu  Cu5       1.0  0.37077989499999997  0.7530462600000001  0.4769731792133051  1.0000
  Cu  Cu6       1.0  0.37077989499999997  0.5030462600000001  0.4562347725849261  1.0000
  Au  Au5       1.0  0.12077989499999997  0.7530462600000001  0.4562347725849261  1.0000
  Au  Au6       1.0  0.12077989499999997  0.5030462600000001  0.4769731792133051  1.0000
  Cu  Cu7       1.0  0.37460885499999996  0.75304601  0.5175897479994922  1.0000
  Cu  Cu8       1.0  0.371090785  0.50222295  0.49808625502822473  1.0000
  Au  Au7       1.0  0.12078423499999998  0.7530463700000001  0.4979362375393561  1.0000
  Au  Au8       1.0  0.12077857499999999  0.5091383899999999  0.5190185259447156  1.0000
  Cu  Cu9       1.0  0.870779895  0.25304626  0.4769731792133051  1.0000
  Cu  Cu10      1.0  0.870779895  0.0030462600000000306  0.4562347725849261  1.0000
  Au  Au9       1.0  0.6207798950000001  0.25304626  0.4562347725849261  1.0000
  Au  Au10      1.0  0.6207798950000001  0.0030462600000000306  0.4769731792133051  1.0000
  Cu  Cu11      1.0  0.8792218050000001  0.25304676000000004  0.5186548111995435  1.0000
  Cu  Cu12      1.0  0.8704682750000001  0.0038681300000000312  0.4980868821576538  1.0000
  Au  Au11      1.0  0.6207768549999999  0.25304604  0.4982790015161971  1.0000
  Au  Au12      1.0  0.620778095  0.0035191100000000306  0.5188138523840848  1.0000
  Cu  Cu13      1.0  0.870779895  0.7530462600000001  0.4769731792133051  1.0000
  Cu  Cu14      1.0  0.870779895  0.5030462600000001  0.4562347725849261  1.0000
  Au  Au13      1.0  0.6207798950000001  0.7530462600000001  0.4562347725849261  1.0000
  Au  Au14      1.0  0.6207798950000001  0.5030462600000001  0.4769731792133051  1.0000
  Cu  Cu15      1.0  0.866949735  0.75304576  0.5175886069723367  1.0000
  Cu  Cu16      1.0  0.8704680250000001  0.5022244800000001  0.4980863711633042  1.0000
  Au  Au15      1.0  0.620775235  0.7530464  0.4976104205739826  1.0000
  Au  Au16      1.0  0.6207776949999999  0.50257328  0.518813579466648  1.0000
