data_image0
_chemical_formula_structural       COV6Pd12V6Pd12
_chemical_formula_sum              "C1 O1 V12 Pd24"
_cell_length_a       11.34083134046026
_cell_length_b       5.513416
_cell_length_c       106.80971047
_cell_angle_alpha    90.0
_cell_angle_beta     112.9862531815391
_cell_angle_gamma    90.0

_space_group_name_H-M_alt    "P 1"
_space_group_IT_number       1

loop_
  _space_group_symop_operation_xyz
  'x, y, z'

loop_
  _atom_site_type_symbol
  _atom_site_label
  _atom_site_symmetry_multiplicity
  _atom_site_fract_x
  _atom_site_fract_y
  _atom_site_fract_z
  _atom_site_occupancy
  C   C1        1.0  0.99628911  0.6238658300000001  0.5416566535316557  1.0000
  O   O1        1.0  0.09098758000000001  0.6238371000000001  0.5516151667076785  1.0000
  V   V1        1.0  0.44619838  0.12384231999999999  0.4771039085936221  1.0000
  V   V2        1.0  0.11286504000000001  0.12384231999999999  0.4483848332923213  1.0000
  V   V3        1.0  0.77974213  0.12386523  0.5044331645636075  1.0000
  V   V4        1.0  0.44126867  0.37150144  0.5182804148363054  1.0000
  V   V5        1.0  0.11286504000000001  0.37384232  0.49146344279798376  1.0000
  V   V6        1.0  0.77953171  0.37384232  0.4627443709429717  1.0000
  Pd  Pd1       1.0  0.55888131  0.37384232  0.5007656206184445  1.0000
  Pd  Pd2       1.0  0.22554798  0.37384232  0.4720465487634326  1.0000
  Pd  Pd3       1.0  0.87463155  0.3753873  0.529055374497412  1.0000
  Pd  Pd4       1.0  0.33351545000000005  0.12384231999999999  0.4965208026281734  1.0000
  Pd  Pd5       1.0  0.00018211000000012412  0.12384231999999999  0.46780173077316134  1.0000
  Pd  Pd6       1.0  0.65047103  0.12386276  0.5257815931671523  1.0000
  Pd  Pd7       1.0  0.23170712000000004  0.12383538  0.5158765801778467  1.0000
  Pd  Pd8       1.0  0.8922146400000002  0.12384231999999999  0.486406086414083  1.0000
  Pd  Pd9       1.0  0.55888131  0.12384231999999999  0.45768701111278215  1.0000
  Pd  Pd10      1.0  0.33351545000000005  0.37384232  0.4534421931225109  1.0000
  Pd  Pd11      1.0  0.0036840400000002216  0.37299296  0.5108775729089491  1.0000
  Pd  Pd12      1.0  0.66684878  0.37384232  0.48216126842381174  1.0000
  V   V7        1.0  0.44619838  0.6238423200000001  0.4771039085936221  1.0000
  V   V8        1.0  0.11286504000000001  0.6238423200000001  0.4483848332923213  1.0000
  V   V9        1.0  0.78384927  0.6238555600000001  0.5057322741284591  1.0000
  V   V10       1.0  0.44126076000000003  0.8761646200000001  0.5182783746333591  1.0000
  V   V11       1.0  0.11286504000000001  0.8738423200000001  0.49146344279798376  1.0000
  V   V12       1.0  0.77953171  0.8738423200000001  0.4627443709429717  1.0000
  Pd  Pd13      1.0  0.55888131  0.8738423200000001  0.5007656206184445  1.0000
  Pd  Pd14      1.0  0.22554798  0.8738423200000001  0.4720465487634326  1.0000
  Pd  Pd15      1.0  0.8746753500000001  0.8724027300000001  0.5290559741516564  1.0000
  Pd  Pd16      1.0  0.33351545000000005  0.6238423200000001  0.4965208026281734  1.0000
  Pd  Pd17      1.0  0.00018211000000012412  0.6238423200000001  0.46780173077316134  1.0000
  Pd  Pd18      1.0  0.64664059  0.6238546500000001  0.5263249695160129  1.0000
  Pd  Pd19      1.0  0.23229025000000003  0.6237995000000001  0.5158943664741394  1.0000
  Pd  Pd20      1.0  0.8922146400000002  0.6238423200000001  0.486406086414083  1.0000
  Pd  Pd21      1.0  0.55888131  0.6238423200000001  0.45768701111278215  1.0000
  Pd  Pd22      1.0  0.33351545000000005  0.8738423200000001  0.4534421931225109  1.0000
  Pd  Pd23      1.0  0.0037108900000000222  0.8746930100000001  0.5108738509170878  1.0000
  Pd  Pd24      1.0  0.66684878  0.8738423200000001  0.4821612684238117  1.0000
