data_image0
_chemical_formula_structural       COGa10Rh6Ga10Rh6
_chemical_formula_sum              "C1 O1 Ga20 Rh12"
_cell_length_a       6.758128018675854
_cell_length_b       8.319988498570753
_cell_length_c       34.6625966
_cell_angle_alpha    111.19644796556638
_cell_angle_beta     78.59886935638286
_cell_angle_gamma    107.62865423118595

_space_group_name_H-M_alt    "P 1"
_space_group_IT_number       1

loop_
  _space_group_symop_operation_xyz
  'x, y, z'

loop_
  _atom_site_type_symbol
  _atom_site_label
  _atom_site_symmetry_multiplicity
  _atom_site_fract_x
  _atom_site_fract_y
  _atom_site_fract_z
  _atom_site_occupancy
  C   C1        1.0  0.8831061499999998  0.03033999499999998  0.6323515441115306  1.0000
  O   O1        1.0  0.7685634600000001  0.041754224999999985  0.6639344853033461  1.0000
  Ga  Ga1       1.0  0.5437890799999999  0.5518373849999999  0.48170378860843316  1.0000
  Ga  Ga2       1.0  0.46437058  0.4839129149999999  0.5557346497783185  1.0000
  Ga  Ga3       1.0  0.16910431  0.06434478499999997  0.5352977138848121  1.0000
  Ga  Ga4       1.0  0.81878794  0.9666686049999998  0.4970489616591236  1.0000
  Ga  Ga5       1.0  0.20967905  0.3293937649999999  0.617377090355781  1.0000
  Ga  Ga6       1.0  0.85241086  0.731405585  0.5575747688878295  1.0000
  Ga  Ga7       1.0  0.46709583  0.894129345  0.5454838799922181  1.0000
  Ga  Ga8       1.0  0.5231950300000001  0.14011611499999999  0.4883827507777828  1.0000
  Ga  Ga9       1.0  0.90944054  0.369785265  0.5650016840467276  1.0000
  Ga  Ga10      1.0  0.12285267  0.685359125  0.617055356491821  1.0000
  Rh  Rh1       1.0  0.5190638100000001  0.225394875  0.5655969921126385  1.0000
  Rh  Rh2       1.0  0.5017759900000001  0.7922673849999999  0.6005897066985176  1.0000
  Rh  Rh3       1.0  0.8257209  0.06867589499999999  0.5776433812358812  1.0000
  Rh  Rh4       1.0  0.13944642000000004  0.9696600049999999  0.5998701968624423  1.0000
  Rh  Rh5       1.0  0.80160005  0.43402647499999997  0.49842387719183484  1.0000
  Rh  Rh6       1.0  0.20055156999999998  0.590808805  0.5333362780991984  1.0000
  Ga  Ga11      1.0  0.5437890799999999  0.5518373849999999  0.3360655146966538  1.0000
  Ga  Ga12      1.0  0.44979826000000006  0.47263814499999995  0.4052039291862849  1.0000
  Ga  Ga13      1.0  0.17479940000000005  0.057806924999999974  0.38985875613559445  1.0000
  Ga  Ga14      1.0  0.81878794  0.9666686049999998  0.351410697942023  1.0000
  Ga  Ga15      1.0  0.13965003  0.28637406499999996  0.47590053914165015  1.0000
  Ga  Ga16      1.0  0.85393731  0.738101465  0.4110071786530678  1.0000
  Ga  Ga17      1.0  0.47039231000000004  0.8843594149999998  0.39852496701693524  1.0000
  Ga  Ga18      1.0  0.5231950300000001  0.14011611499999999  0.34274447686600357  1.0000
  Ga  Ga19      1.0  0.9030278799999999  0.3586840149999999  0.4150980381393221  1.0000
  Ga  Ga20      1.0  0.09055946000000001  0.665791515  0.47180967965539583  1.0000
  Rh  Rh7       1.0  0.51056913  0.23662131499999997  0.4254701959642759  1.0000
  Rh  Rh8       1.0  0.48301821  0.787854215  0.4614375218304422  1.0000
  Rh  Rh9       1.0  0.8237776200000001  0.06202105499999998  0.4310146127344562  1.0000
  Rh  Rh10      1.0  0.16980971999999997  0.9624544749999999  0.45589309486558305  1.0000
  Rh  Rh11      1.0  0.80160005  0.43402647499999997  0.35278560328005554  1.0000
  Rh  Rh12      1.0  0.19198729000000003  0.590449055  0.3884838406028832  1.0000
