data_image0
_chemical_formula_structural       CONi12Sb12
_chemical_formula_sum              "C1 O1 Ni12 Sb12"
_cell_length_a       8.670328246098212
_cell_length_b       6.563430041859562
_cell_length_c       100.68820612
_cell_angle_alpha    83.98305843100759
_cell_angle_beta     89.36288635053327
_cell_angle_gamma    92.98019329524861

_space_group_name_H-M_alt    "P 1"
_space_group_IT_number       1

loop_
  _space_group_symop_operation_xyz
  'x, y, z'

loop_
  _atom_site_type_symbol
  _atom_site_label
  _atom_site_symmetry_multiplicity
  _atom_site_fract_x
  _atom_site_fract_y
  _atom_site_fract_z
  _atom_site_occupancy
  C   C1        1.0  0.9920298049999999  0.8572003499999999  0.5378959846855329  1.0000
  O   O1        1.0  0.005371024999999984  0.8369612399999998  0.5494765954239764  1.0000
  Ni  Ni1       1.0  0.14120983499999998  0.4578601  0.4886214690149535  1.0000
  Ni  Ni2       1.0  0.810198775  0.21059140999999995  0.5122115802142231  1.0000
  Ni  Ni3       1.0  0.471447295  0.8308316299999999  0.5011878351683803  1.0000
  Ni  Ni4       1.0  0.981509835  0.89933445  0.5201380592957615  1.0000
  Ni  Ni5       1.0  0.6467135850000001  0.53265811  0.5071504778940528  1.0000
  Ni  Ni6       1.0  0.31185903499999995  0.1490872699999999  0.49372873399784317  1.0000
  Ni  Ni7       1.0  0.14120983499999998  0.3328601  0.45052340457602374  1.0000
  Ni  Ni8       1.0  0.8078765050000001  0.08286009999999992  0.4759221131860285  1.0000
  Ni  Ni9       1.0  0.474543175  0.7078601000000001  0.46322275735710355  1.0000
  Ni  Ni10      1.0  0.9745431750000001  0.7703601  0.48227178957656847  1.0000
  Ni  Ni11      1.0  0.6412098350000001  0.3953601  0.46957243679548866  1.0000
  Ni  Ni12      1.0  0.30787650499999997  0.020360099999999937  0.4568730809665637  1.0000
  Sb  Sb1       1.0  0.950256995  0.57101954  0.5073514741384972  1.0000
  Sb  Sb2       1.0  0.6125989850000001  0.20156999999999992  0.49428984229089973  1.0000
  Sb  Sb3       1.0  0.284364395  0.9796399  0.5182099497808039  1.0000
  Sb  Sb4       1.0  0.007970194999999958  0.08843198999999992  0.49633429415111835  1.0000
  Sb  Sb5       1.0  0.6716670749999999  0.8597894799999998  0.5208473446767242  1.0000
  Sb  Sb6       1.0  0.33953844499999997  0.4538496799999999  0.5094781477174652  1.0000
  Sb  Sb7       1.0  0.9467653949999999  0.4474434299999999  0.46851415790503953  1.0000
  Sb  Sb8       1.0  0.6134320649999999  0.07244342999999995  0.4558148020761146  1.0000
  Sb  Sb9       1.0  0.28009872499999994  0.8224434299999999  0.48121351068611934  1.0000
  Sb  Sb10      1.0  0.0023209449999999077  0.9682767600000001  0.45793135985701283  1.0000
  Sb  Sb11      1.0  0.6689876149999999  0.71827676  0.4833300715148628  1.0000
  Sb  Sb12      1.0  0.33565428499999994  0.34327675999999996  0.47063071568593773  1.0000
