data_image0
_chemical_formula_structural       COCu6Sn6Cu6Sn6Cu6Sn6Cu6Sn6
_chemical_formula_sum              "C1 O1 Cu24 Sn24"
_cell_length_a       8.456920072284829
_cell_length_b       9.90759983912426
_cell_length_c       110.03439552
_cell_angle_alpha    97.92852709910622
_cell_angle_beta     108.47325991979879
_cell_angle_gamma    64.73601148852907

_space_group_name_H-M_alt    "P 1"
_space_group_IT_number       1

loop_
  _space_group_symop_operation_xyz
  'x, y, z'

loop_
  _atom_site_type_symbol
  _atom_site_label
  _atom_site_symmetry_multiplicity
  _atom_site_fract_x
  _atom_site_fract_y
  _atom_site_fract_z
  _atom_site_occupancy
  C   C1        1.0  0.532694135  0.58030719  0.5616995203333445  1.0000
  O   O1        1.0  0.5658168050000002  0.5973938799999999  0.5727484302094102  1.0000
  Cu  Cu1       1.0  0.006928965000000051  0.68055556  0.4440957972392307  1.0000
  Cu  Cu2       1.0  0.006928965000000058  0.013888889999999968  0.4845219394776156  1.0000
  Cu  Cu3       1.0  0.006928965000000051  0.34722221999999997  0.46430887017759964  1.0000
  Cu  Cu4       1.0  0.006928965000000051  0.8472222199999999  0.4643088701775996  1.0000
  Cu  Cu5       1.0  0.006928965000000051  0.18055555999999995  0.4440957972392307  1.0000
  Cu  Cu6       1.0  0.006928965000000051  0.5138888899999999  0.4845219394776156  1.0000
  Sn  Sn1       1.0  0.3402622950000001  0.65277778  0.46094002468787143  1.0000
  Sn  Sn2       1.0  0.340262295  0.98611111  0.4407269517495025  1.0000
  Sn  Sn3       1.0  0.34026229500000005  0.31944445  0.4811530939878875  1.0000
  Sn  Sn4       1.0  0.17359563500000003  0.70833333  0.42725156979059  1.0000
  Sn  Sn5       1.0  0.17359563500000008  0.04166666999999997  0.46767771202897485  1.0000
  Sn  Sn6       1.0  0.17359563500000003  0.375  0.44746464272895886  1.0000
  Cu  Cu7       1.0  0.006928965000000051  0.68055556  0.5047350124159845  1.0000
  Cu  Cu8       1.0  0.9791500350000001  0.04993895999999996  0.5422207361263552  1.0000
  Cu  Cu9       1.0  0.004540635000000092  0.3447462799999999  0.5242540913806528  1.0000
  Cu  Cu10      1.0  0.008956125000000124  0.8470260799999999  0.5249679034622612  1.0000
  Cu  Cu11      1.0  0.006928965000000051  0.18055555999999995  0.5047350124159845  1.0000
  Cu  Cu12      1.0  0.995459365  0.5152173299999999  0.5431108882549551  1.0000
  Sn  Sn7       1.0  0.3405360150000001  0.6539838199999999  0.5217009464054038  1.0000
  Sn  Sn8       1.0  0.340262295  0.98611111  0.5013661669262564  1.0000
  Sn  Sn9       1.0  0.33009177500000003  0.3357741799999999  0.5427786156820396  1.0000
  Sn  Sn10      1.0  0.17359563500000003  0.70833333  0.48789078496734384  1.0000
  Sn  Sn11      1.0  0.17454740500000007  0.04028621999999997  0.5278369848061838  1.0000
  Sn  Sn12      1.0  0.17359563500000003  0.375  0.5081038579057127  1.0000
  Cu  Cu13      1.0  0.5069289650000001  0.68055556  0.4440957972392307  1.0000
  Cu  Cu14      1.0  0.5069289650000001  0.013888889999999968  0.4845219394776157  1.0000
  Cu  Cu15      1.0  0.5069289650000001  0.34722221999999997  0.4643088701775996  1.0000
  Cu  Cu16      1.0  0.506928965  0.8472222199999999  0.4643088701775996  1.0000
  Cu  Cu17      1.0  0.506928965  0.18055555999999995  0.4440957972392306  1.0000
  Cu  Cu18      1.0  0.506928965  0.5138888899999999  0.4845219394776156  1.0000
  Sn  Sn13      1.0  0.8402622950000002  0.65277778  0.4609400246878714  1.0000
  Sn  Sn14      1.0  0.8402622950000002  0.98611111  0.4407269517495025  1.0000
  Sn  Sn15      1.0  0.840262295  0.31944445  0.48115309398788747  1.0000
  Sn  Sn16      1.0  0.6735956350000001  0.70833333  0.4272515697905899  1.0000
  Sn  Sn17      1.0  0.673595635  0.04166666999999997  0.4676777120289749  1.0000
  Sn  Sn18      1.0  0.6735956350000001  0.375  0.4474646427289588  1.0000
  Cu  Cu19      1.0  0.5069289650000001  0.68055556  0.5047350124159845  1.0000
  Cu  Cu20      1.0  0.480650415  0.046575459999999964  0.5424282896023426  1.0000
  Cu  Cu21      1.0  0.5057934450000001  0.34847131  0.5253188225934706  1.0000
  Cu  Cu22      1.0  0.508060245  0.84627069  0.52496864568624  1.0000
  Cu  Cu23      1.0  0.506928965  0.18055555999999995  0.5047350124159845  1.0000
  Cu  Cu24      1.0  0.49904370499999995  0.51738296  0.5447027913255057  1.0000
  Sn  Sn19      1.0  0.8365782549999999  0.65862172  0.5212059485018159  1.0000
  Sn  Sn20      1.0  0.8402622950000002  0.98611111  0.5013661669262564  1.0000
  Sn  Sn21      1.0  0.834080055  0.33904718  0.5427040949392149  1.0000
  Sn  Sn22      1.0  0.6735956350000001  0.70833333  0.4878907849673437  1.0000
  Sn  Sn23      1.0  0.673442915  0.04003310999999997  0.5278779126372567  1.0000
  Sn  Sn24      1.0  0.6735956350000001  0.375  0.5081038579057127  1.0000
