data_image0
_chemical_formula_structural       CONi6Sb2Ni6Sb2Ni6Sb2Ni6Sb2
_chemical_formula_sum              "C1 O1 Ni24 Sb8"
_cell_length_a       7.53909284
_cell_length_b       5.33094367
_cell_length_c       101.985662
_cell_angle_alpha    90.0
_cell_angle_beta     90.0
_cell_angle_gamma    90.0

_space_group_name_H-M_alt    "P 1"
_space_group_IT_number       1

loop_
  _space_group_symop_operation_xyz
  'x, y, z'

loop_
  _atom_site_type_symbol
  _atom_site_label
  _atom_site_symmetry_multiplicity
  _atom_site_fract_x
  _atom_site_fract_y
  _atom_site_fract_z
  _atom_site_occupancy
  C   C1        1.0  0.38587559000000005  0.620423695  0.5415190517368096  1.0000
  O   O1        1.0  0.38587863  0.6204444450000001  0.5535854040579277  1.0000
  Ni  Ni1       1.0  0.38587499000000003  0.37044329500000006  0.4464145959420724  1.0000
  Ni  Ni2       1.0  0.38587499000000003  0.8704432950000001  0.4725503455606262  1.0000
  Ni  Ni3       1.0  0.38587499000000003  0.8704432950000001  0.4464145959420724  1.0000
  Ni  Ni4       1.0  0.38587499000000003  0.37044329500000006  0.4725503455606262  1.0000
  Ni  Ni5       1.0  0.13587499  0.6204432950000001  0.48561822193804816  1.0000
  Ni  Ni6       1.0  0.13587499  0.12044329500000005  0.45948246918320423  1.0000
  Sb  Sb1       1.0  0.13587499  0.6204432950000001  0.45948246918320423  1.0000
  Sb  Sb2       1.0  0.13587499  0.12044329500000005  0.48561822193804816  1.0000
  Ni  Ni7       1.0  0.38587499000000003  0.37044329500000006  0.49868609517918006  1.0000
  Ni  Ni8       1.0  0.38587427  0.8776747450000002  0.5271904933812198  1.0000
  Ni  Ni9       1.0  0.38587499000000003  0.8704432950000001  0.49868609517918006  1.0000
  Ni  Ni10      1.0  0.38587452  0.3632374550000001  0.5271902863860746  1.0000
  Ni  Ni11      1.0  0.1256397  0.6204438350000001  0.5359602347463668  1.0000
  Ni  Ni12      1.0  0.14686021999999999  0.12043834500000004  0.5125003270520233  1.0000
  Sb  Sb3       1.0  0.13818108  0.6204397450000001  0.5114106606993201  1.0000
  Sb  Sb4       1.0  0.11412442  0.12044533500000004  0.5393298898982936  1.0000
  Ni  Ni13      1.0  0.88587499  0.37044329500000006  0.4464145959420724  1.0000
  Ni  Ni14      1.0  0.88587499  0.8704432950000001  0.4725503455606262  1.0000
  Ni  Ni15      1.0  0.88587499  0.8704432950000001  0.4464145959420724  1.0000
  Ni  Ni16      1.0  0.88587499  0.37044329500000006  0.4725503455606262  1.0000
  Ni  Ni17      1.0  0.63587499  0.6204432950000001  0.48561822193804816  1.0000
  Ni  Ni18      1.0  0.63587499  0.12044329500000005  0.45948246918320423  1.0000
  Sb  Sb5       1.0  0.63587499  0.6204432950000001  0.45948246918320423  1.0000
  Sb  Sb6       1.0  0.63587499  0.12044329500000005  0.48561822193804816  1.0000
  Ni  Ni19      1.0  0.88587499  0.37044329500000006  0.49868609517918006  1.0000
  Ni  Ni20      1.0  0.88587558  0.879561805  0.5241981119718478  1.0000
  Ni  Ni21      1.0  0.88587499  0.8704432950000001  0.49868609517918006  1.0000
  Ni  Ni22      1.0  0.8858754600000001  0.3613142150000001  0.524198080608947  1.0000
  Ni  Ni23      1.0  0.6461118700000001  0.6204442550000001  0.5359599242536489  1.0000
  Ni  Ni24      1.0  0.62488927  0.12043819500000004  0.51250059050039  1.0000
  Sb  Sb7       1.0  0.63356869  0.620439795  0.5114106105186789  1.0000
  Sb  Sb8       1.0  0.65762539  0.12044555500000004  0.5393299588966753  1.0000
