data_image0
_chemical_formula_structural       COV8Pd16V8Pd16
_chemical_formula_sum              "C1 O1 V16 Pd32"
_cell_length_a       4.716216644666232
_cell_length_b       16.963640334312764
_cell_length_c       103.01351653
_cell_angle_alpha    95.45062897661843
_cell_angle_beta     71.53772704998501
_cell_angle_gamma    84.54937101920414

_space_group_name_H-M_alt    "P 1"
_space_group_IT_number       1

loop_
  _space_group_symop_operation_xyz
  'x, y, z'

loop_
  _atom_site_type_symbol
  _atom_site_label
  _atom_site_symmetry_multiplicity
  _atom_site_fract_x
  _atom_site_fract_y
  _atom_site_fract_z
  _atom_site_occupancy
  C   C1        1.0  0.45375086  0.5003640800000001  0.5423896531966621  1.0000
  O   O1        1.0  0.41924880999999997  0.5014088600000001  0.5544421590322239  1.0000
  V   V1        1.0  0.7695815300000002  0.5008411500000001  0.4588570973031532  1.0000
  V   V2        1.0  0.019581530000000007  0.0008411500000000611  0.4474114733418192  1.0000
  V   V3        1.0  0.5195815300000001  0.0008411500000000611  0.4703027244692624  1.0000
  V   V4        1.0  0.26958153  0.5008411500000001  0.4817483516353718  1.0000
  V   V5        1.0  0.6445815300000002  0.7508411500000001  0.48747116361603876  1.0000
  V   V6        1.0  0.8945815300000001  0.25084115000000007  0.47602553644992945  1.0000
  V   V7        1.0  0.39458153000000007  0.25084115000000007  0.45313428532248623  1.0000
  V   V8        1.0  0.14458153000000004  0.7508411500000001  0.4645799124885955  1.0000
  Pd  Pd1       1.0  0.7290937300000001  0.5818167500000001  0.4836019840094148  1.0000
  Pd  Pd2       1.0  0.9790937300000001  0.08181675000000005  0.4721563568433054  1.0000
  Pd  Pd3       1.0  0.47909373000000005  0.08181675000000005  0.44926510571586215  1.0000
  Pd  Pd4       1.0  0.22909373000000008  0.5818167500000001  0.46071073288197145  1.0000
  Pd  Pd5       1.0  0.68506933  0.66986555  0.4627262801145524  1.0000
  Pd  Pd6       1.0  0.9350693300000001  0.16986555000000006  0.4512806529484433  1.0000
  Pd  Pd7       1.0  0.4350693300000001  0.16986555000000006  0.47417190407588655  1.0000
  Pd  Pd8       1.0  0.18506933000000003  0.66986555  0.4856175312419957  1.0000
  Pd  Pd9       1.0  0.6040937300000001  0.8318167500000001  0.46643354486263844  1.0000
  Pd  Pd10      1.0  0.8540937300000001  0.33181675  0.4549879176965292  1.0000
  Pd  Pd11      1.0  0.3540937300000001  0.33181675  0.4778791688239726  1.0000
  Pd  Pd12      1.0  0.10409373000000009  0.8318167500000001  0.4893247959900817  1.0000
  Pd  Pd13      1.0  0.56006933  0.9198655499999999  0.4455578409677761  1.0000
  Pd  Pd14      1.0  0.81006933  0.4198655500000001  0.47989471605655354  1.0000
  Pd  Pd15      1.0  0.31006933000000003  0.4198655500000001  0.4570034649291102  1.0000
  Pd  Pd16      1.0  0.06006933000000011  0.9198655499999999  0.4684490920952194  1.0000
  V   V9        1.0  0.7695815300000002  0.5008411500000001  0.504639602762815  1.0000
  V   V10       1.0  0.019581530000000007  0.0008411500000000611  0.49319397559670586  1.0000
  V   V11       1.0  0.5569004799999999  0.9991588499999999  0.5136855359048155  1.0000
  V   V12       1.0  0.28742427  0.5004308900000001  0.5261326489182296  1.0000
  V   V13       1.0  0.6840693900000001  0.74442814  0.5303985059874995  1.0000
  V   V14       1.0  0.9301284600000002  0.25011183000000003  0.5193838986553142  1.0000
  V   V15       1.0  0.39458153000000007  0.25084115000000007  0.49891678757737284  1.0000
  V   V16       1.0  0.1394945200000001  0.75186198  0.5112273579376813  1.0000
  Pd  Pd17      1.0  0.73127107  0.5822055600000001  0.5296147621830984  1.0000
  Pd  Pd18      1.0  0.98041847  0.08319616000000006  0.5179081765802173  1.0000
  Pd  Pd19      1.0  0.47909373000000005  0.08181675000000005  0.49504760797074876  1.0000
  Pd  Pd20      1.0  0.22935839000000008  0.58274362  0.5065485143046612  1.0000
  Pd  Pd21      1.0  0.6853182700000001  0.6705417100000001  0.5083414546455512  1.0000
  Pd  Pd22      1.0  0.9350693300000001  0.16986555000000006  0.49706315520332983  1.0000
  Pd  Pd23      1.0  0.43626852000000005  0.16863738000000006  0.5200708838862144  1.0000
  Pd  Pd24      1.0  0.18648206000000003  0.66767936  0.5316580339261244  1.0000
  Pd  Pd25      1.0  0.6097178000000002  0.8359814200000001  0.5130525094743268  1.0000
  Pd  Pd26      1.0  0.8540937300000001  0.33181675  0.500770423156191  1.0000
  Pd  Pd27      1.0  0.35415337000000013  0.33115717000000006  0.523617323399338  1.0000
  Pd  Pd28      1.0  0.09018069000000005  0.82988986  0.5350365400128432  1.0000
  Pd  Pd29      1.0  0.56006933  0.9198655499999999  0.4913403432226628  1.0000
  Pd  Pd30      1.0  0.8114404100000001  0.41832508000000007  0.5260655152868805  1.0000
  Pd  Pd31      1.0  0.31006933000000003  0.4198655500000001  0.502785970388772  1.0000
  Pd  Pd32      1.0  0.0634445800000001  0.9205350000000001  0.5146738693546096  1.0000
