data_image0
_chemical_formula_structural       V6Co2V6Co2CO
_chemical_formula_sum              "V12 Co4 C1 O1"
_cell_length_a       4.65570473
_cell_length_b       4.65570473
_cell_length_c       102.58993311
_cell_angle_alpha    90.0
_cell_angle_beta     90.0
_cell_angle_gamma    90.0

_space_group_name_H-M_alt    "P 1"
_space_group_IT_number       1

loop_
  _space_group_symop_operation_xyz
  'x, y, z'

loop_
  _atom_site_type_symbol
  _atom_site_label
  _atom_site_symmetry_multiplicity
  _atom_site_fract_x
  _atom_site_fract_y
  _atom_site_fract_z
  _atom_site_occupancy
  V   V1        1.0  0.375  0.13094092000000002  0.4590777768703263  1.0000
  V   V2        1.0  0.8750000000000001  0.13094092000000002  0.4590777768703263  1.0000
  V   V3        1.0  0.125  0.63094092  0.44773235572628667  1.0000
  V   V4        1.0  0.125  0.63094092  0.47042320119108444  1.0000
  V   V5        1.0  0.625  0.38094092  0.4817686255118426  1.0000
  V   V6        1.0  0.625  0.8809409199999999  0.4817686255118426  1.0000
  Co  Co1       1.0  0.625  0.63094092  0.4590777768703263  1.0000
  Co  Co2       1.0  0.125  0.13094092000000002  0.4817686255118426  1.0000
  V   V7        1.0  0.37096009  0.13104663000000003  0.504040763604158  1.0000
  V   V8        1.0  0.8703707500000001  0.13278316  0.5041333903600992  1.0000
  V   V9        1.0  0.125  0.63094092  0.4931140466558822  1.0000
  V   V10       1.0  0.12747509  0.63348874  0.5168970574465901  1.0000
  V   V11       1.0  0.6251593600000002  0.34884937  0.5261512226120494  1.0000
  V   V12       1.0  0.6338072500000002  0.8696742300000001  0.5263464573732347  1.0000
  Co  Co3       1.0  0.62285377  0.63393988  0.5043162009755102  1.0000
  Co  Co4       1.0  0.12864788  0.13262699  0.5257043695142894  1.0000
  C   C1        1.0  0.41115608000000003  0.17806404  0.5415951569245606  1.0000
  O   O1        1.0  0.32638176  0.11905908000000001  0.5522676442737134  1.0000
