data_image0
_chemical_formula_structural       COSb4Pd4Sb4Pd4Sb4Pd4Sb4Pd4
_chemical_formula_sum              "C1 O1 Sb16 Pd16"
_cell_length_a       7.086713524725504
_cell_length_b       8.351771886234742
_cell_length_c       112.52028117
_cell_angle_alpha    72.8647787069037
_cell_angle_beta     107.79159152306622
_cell_angle_gamma    72.86477868436711

_space_group_name_H-M_alt    "P 1"
_space_group_IT_number       1

loop_
  _space_group_symop_operation_xyz
  'x, y, z'

loop_
  _atom_site_type_symbol
  _atom_site_label
  _atom_site_symmetry_multiplicity
  _atom_site_fract_x
  _atom_site_fract_y
  _atom_site_fract_z
  _atom_site_occupancy
  C   C1        1.0  0.5004836349999999  0.15802775000000005  0.5593622283926858  1.0000
  O   O1        1.0  0.5551335049999999  0.10770069000000002  0.5711631791859247  1.0000
  Sb  Sb1       1.0  0.10625320499999995  0.08227214000000002  0.53541659434702  1.0000
  Sb  Sb2       1.0  0.605945075  0.08439453000000004  0.5049396543501623  1.0000
  Sb  Sb3       1.0  0.18927840499999996  0.41772786  0.5101881260194336  1.0000
  Sb  Sb4       1.0  0.676886035  0.4324693700000001  0.5407295113649463  1.0000
  Pd  Pd1       1.0  0.14761174499999996  0.25106119000000005  0.4918184770664333  1.0000
  Pd  Pd2       1.0  0.646877185  0.24798364999999994  0.523746646655799  1.0000
  Pd  Pd3       1.0  0.383067695  0.25808938000000003  0.5393414800843244  1.0000
  Pd  Pd4       1.0  0.8976117450000002  0.25106119  0.5075638920742477  1.0000
  Sb  Sb5       1.0  0.10594507499999997  0.08439453000000002  0.47344882811343286  1.0000
  Sb  Sb6       1.0  0.605945075  0.08439453000000004  0.44195799809780434  1.0000
  Sb  Sb7       1.0  0.18927840499999996  0.41772786  0.44720646976707573  1.0000
  Sb  Sb8       1.0  0.689278405  0.41772786  0.47869729978270437  1.0000
  Pd  Pd5       1.0  0.14761174499999996  0.25106119000000005  0.4288368208140753  1.0000
  Pd  Pd6       1.0  0.6476117450000001  0.25106119000000005  0.460327650829704  1.0000
  Pd  Pd7       1.0  0.39761174499999996  0.25106119000000005  0.47607306205861893  1.0000
  Pd  Pd8       1.0  0.8976117450000002  0.25106119  0.44458223582188966  1.0000
  Sb  Sb9       1.0  0.10238825499999996  0.6008703599999999  0.5356579526452832  1.0000
  Sb  Sb10      1.0  0.605945075  0.5843945300000001  0.5049396543501623  1.0000
  Sb  Sb11      1.0  0.18927840499999996  0.9177278600000001  0.5101881260194336  1.0000
  Sb  Sb12      1.0  0.678284775  0.9153176800000001  0.5409410201376422  1.0000
  Pd  Pd9       1.0  0.14761174499999996  0.75106119  0.49181847706643333  1.0000
  Pd  Pd10      1.0  0.643723295  0.7549928600000001  0.5226049958306094  1.0000
  Pd  Pd11      1.0  0.377600755  0.7622898000000001  0.5375207723917009  1.0000
  Pd  Pd12      1.0  0.8976117450000002  0.7510611900000002  0.5075638920742476  1.0000
  Sb  Sb13      1.0  0.10594507499999997  0.58439453  0.4734488281134329  1.0000
  Sb  Sb14      1.0  0.605945075  0.5843945300000001  0.44195799809780434  1.0000
  Sb  Sb15      1.0  0.18927840499999996  0.9177278600000001  0.44720646976707573  1.0000
  Sb  Sb16      1.0  0.689278405  0.91772786  0.4786972997827043  1.0000
  Pd  Pd13      1.0  0.14761174499999996  0.75106119  0.4288368208140753  1.0000
  Pd  Pd14      1.0  0.6476117450000001  0.7510611900000002  0.46032765082970406  1.0000
  Pd  Pd15      1.0  0.39761174499999996  0.75106119  0.476073062058619  1.0000
  Pd  Pd16      1.0  0.8976117450000002  0.7510611900000002  0.4445822358218897  1.0000
