data_image0
_chemical_formula_structural       COGa2Cu2Pt4Ga2Cu2Pt4Ga2Cu2Pt4Ga2Cu2Pt4
_chemical_formula_sum              "C1 O1 Ga8 Cu8 Pt16"
_cell_length_a       7.18318202
_cell_length_b       5.71416224
_cell_length_c       104.28497345
_cell_angle_alpha    90.0
_cell_angle_beta     90.0
_cell_angle_gamma    90.0

_space_group_name_H-M_alt    "P 1"
_space_group_IT_number       1

loop_
  _space_group_symop_operation_xyz
  'x, y, z'

loop_
  _atom_site_type_symbol
  _atom_site_label
  _atom_site_symmetry_multiplicity
  _atom_site_fract_x
  _atom_site_fract_y
  _atom_site_fract_z
  _atom_site_occupancy
  C   C1        1.0  2.0499999997339596e-07  1.8700000000148028e-06  0.5522905303391206  1.0000
  O   O1        1.0  4.1499999997339596e-07  3.330000000014803e-06  0.5634300674001017  1.0000
  Ga  Ga1       1.0  1.4499999997339598e-07  0.50000179  0.4776652269598739  1.0000
  Ga  Ga2       1.0  1.4499999997339598e-07  1.790000000014803e-06  0.4502683618614744  1.0000
  Cu  Cu1       1.0  1.4499999997339598e-07  0.50000179  0.4502683618614744  1.0000
  Cu  Cu2       1.0  1.4499999997339598e-07  1.790000000014803e-06  0.4776652269598739  1.0000
  Pt  Pt1       1.0  0.250000145  0.25000179000000006  0.4365699325998982  1.0000
  Pt  Pt2       1.0  0.250000145  0.75000179  0.4639667944106741  1.0000
  Pt  Pt3       1.0  0.250000145  0.75000179  0.4365699325998982  1.0000
  Pt  Pt4       1.0  0.250000145  0.25000179000000006  0.4639667944106741  1.0000
  Ga  Ga3       1.0  0.999999745  0.49999925000000006  0.5305583096553947  1.0000
  Ga  Ga4       1.0  0.9999999450000001  4.899999999086191e-07  0.5051634757932713  1.0000
  Cu  Cu3       1.0  8.499999997339599e-08  0.50000047  0.504703007951403  1.0000
  Cu  Cu4       1.0  5.4999999973395975e-08  1.0700000000148029e-06  0.5344793399075984  1.0000
  Pt  Pt5       1.0  0.250000145  0.25000179000000006  0.4913636562214501  1.0000
  Pt  Pt6       1.0  0.24510916500000002  0.75272924  0.51922855069588  1.0000
  Pt  Pt7       1.0  0.250000145  0.75000179  0.4913636562214501  1.0000
  Pt  Pt8       1.0  0.245109115  0.24727137000000002  0.5192284915186561  1.0000
  Ga  Ga5       1.0  0.500000145  0.50000179  0.4776652269598739  1.0000
  Ga  Ga6       1.0  0.500000145  1.790000000014803e-06  0.4502683618614744  1.0000
  Cu  Cu5       1.0  0.500000145  0.50000179  0.4502683618614744  1.0000
  Cu  Cu6       1.0  0.500000145  1.790000000014803e-06  0.4776652269598739  1.0000
  Pt  Pt9       1.0  0.750000145  0.25000179000000006  0.4365699325998982  1.0000
  Pt  Pt10      1.0  0.750000145  0.75000179  0.4639667944106741  1.0000
  Pt  Pt11      1.0  0.750000145  0.75000179  0.4365699325998982  1.0000
  Pt  Pt12      1.0  0.750000145  0.25000179000000006  0.4639667944106741  1.0000
  Ga  Ga7       1.0  0.499999745  0.49999938  0.5302481881260366  1.0000
  Ga  Ga8       1.0  0.49999995499999994  3.0999999989234084e-07  0.5047929967831807  1.0000
  Cu  Cu7       1.0  0.5000000950000001  0.5000011300000001  0.5049014752097969  1.0000
  Cu  Cu8       1.0  0.499999995  0.99999951  0.5312770926547391  1.0000
  Pt  Pt13      1.0  0.750000145  0.25000179000000006  0.4913636562214501  1.0000
  Pt  Pt14      1.0  0.754890645  0.75272924  0.5192285539835035  1.0000
  Pt  Pt15      1.0  0.750000145  0.75000179  0.4913636562214501  1.0000
  Pt  Pt16      1.0  0.754890705  0.24727137000000002  0.5192284915186561  1.0000
