data_image0
_chemical_formula_structural       COGa18Ni12
_chemical_formula_sum              "C1 O1 Ga18 Ni12"
_cell_length_a       6.445804997638372
_cell_length_b       8.676903344163739
_cell_length_c       101.24035209
_cell_angle_alpha    89.73497997846471
_cell_angle_beta     85.55221166320281
_cell_angle_gamma    89.35776350739842

_space_group_name_H-M_alt    "P 1"
_space_group_IT_number       1

loop_
  _space_group_symop_operation_xyz
  'x, y, z'

loop_
  _atom_site_type_symbol
  _atom_site_label
  _atom_site_symmetry_multiplicity
  _atom_site_fract_x
  _atom_site_fract_y
  _atom_site_fract_z
  _atom_site_occupancy
  C   C1        1.0  0.39931273500000003  0.49841508500000004  0.5355219851085344  1.0000
  O   O1        1.0  0.347374005  0.49434815499999996  0.5468513902295621  1.0000
  Ga  Ga1       1.0  0.49270204500000003  0.9953982250000002  0.47310533335757216  1.0000
  Ga  Ga2       1.0  0.07603537500000002  0.662064885  0.4859626715072921  1.0000
  Ga  Ga3       1.0  0.909368715  0.328731555  0.4602479952078521  1.0000
  Ga  Ga4       1.0  0.4611167750000001  0.6801136149999999  0.47240915792463734  1.0000
  Ga  Ga5       1.0  0.04445011500000002  0.34678028499999997  0.4852664929885964  1.0000
  Ga  Ga6       1.0  0.877783445  0.01344694500000001  0.4595518197749174  1.0000
  Ga  Ga7       1.0  0.06024274500000002  0.004422585000000009  0.4856145822479443  1.0000
  Ga  Ga8       1.0  0.893576075  0.671089255  0.45989990903426514  1.0000
  Ga  Ga9       1.0  0.476909415  0.337755915  0.47275724409822434  1.0000
  Ga  Ga10      1.0  0.243998165  0.9955774150000001  0.5117880093644531  1.0000
  Ga  Ga11      1.0  0.8189056050000001  0.654646065  0.5227206134044224  1.0000
  Ga  Ga12      1.0  0.6542633549999999  0.32774100500000003  0.49879290124742587  1.0000
  Ga  Ga13      1.0  0.21479993500000003  0.683518005  0.5113749648379695  1.0000
  Ga  Ga14      1.0  0.804365205  0.343058685  0.5228681096901151  1.0000
  Ga  Ga15      1.0  0.6289259250000001  0.01155515500000001  0.49769733578002995  1.0000
  Ga  Ga16      1.0  0.719471835  0.04121249500000001  0.524896617939238  1.0000
  Ga  Ga17      1.0  0.639815325  0.671794345  0.4981528187762962  1.0000
  Ga  Ga18      1.0  0.21517393499999998  0.342049265  0.5116240536300716  1.0000
  Ni  Ni1       1.0  0.783213685  0.829391565  0.4795085433620519  1.0000
  Ni  Ni2       1.0  0.616547025  0.496058235  0.4537938701483727  1.0000
  Ni  Ni3       1.0  0.19988035500000004  0.162724905  0.46665120521233194  1.0000
  Ni  Ni4       1.0  0.17060513500000002  0.846120265  0.46600594792015765  1.0000
  Ni  Ni5       1.0  0.7539384650000001  0.512786935  0.47886328298411673  1.0000
  Ni  Ni6       1.0  0.5872718049999999  0.17945360500000002  0.4531486097704377  1.0000
  Ni  Ni7       1.0  0.531898515  0.829563265  0.517060087421299  1.0000
  Ni  Ni8       1.0  0.366547025  0.496058235  0.4923658815117718  1.0000
  Ni  Ni9       1.0  0.9555498849999999  0.16012500500000001  0.5055887249554104  1.0000
  Ni  Ni10      1.0  0.9226272150000001  0.852043195  0.5055295153750873  1.0000
  Ni  Ni11      1.0  0.48657206500000005  0.510313335  0.5184869586944584  1.0000
  Ni  Ni12      1.0  0.33727180500000004  0.17945360500000002  0.4917206211338367  1.0000
