data_image0
_chemical_formula_structural       COAl8Cu8Pt16
_chemical_formula_sum              "C1 O1 Al8 Cu8 Pt16"
_cell_length_a       6.710475393732171
_cell_length_b       5.368371983753188
_cell_length_c       108.71196754
_cell_angle_alpha    93.97561992341977
_cell_angle_beta     93.97623152208698
_cell_angle_gamma    84.26039180123638

_space_group_name_H-M_alt    "P 1"
_space_group_IT_number       1

loop_
  _space_group_symop_operation_xyz
  'x, y, z'

loop_
  _atom_site_type_symbol
  _atom_site_label
  _atom_site_symmetry_multiplicity
  _atom_site_fract_x
  _atom_site_fract_y
  _atom_site_fract_z
  _atom_site_occupancy
  C   C1        1.0  0.015712009999999953  0.5445284350000001  0.5591365167707385  1.0000
  O   O1        1.0  0.04330248999999995  0.583396825  0.5697851241864764  1.0000
  Al  Al1       1.0  0.2934707399999999  0.6041207350000002  0.48956431879610895  1.0000
  Al  Al2       1.0  0.30133892999999995  0.2233601250000001  0.5334922698797768  1.0000
  Al  Al3       1.0  0.9561300499999998  0.6986841950000001  0.5193929470403492  1.0000
  Al  Al4       1.0  0.6268040699999999  0.1457874050000001  0.5044016768710303  1.0000
  Al  Al5       1.0  0.9601373999999999  0.43745406500000006  0.43021487581352374  1.0000
  Al  Al6       1.0  0.9601373999999999  0.06245406500000008  0.47472695716022106  1.0000
  Al  Al7       1.0  0.6268040699999999  0.5207874050000001  0.4598895955243331  1.0000
  Al  Al8       1.0  0.2934707399999999  0.9791207350000002  0.44505223744941164  1.0000
  Cu  Cu1       1.0  0.62818696  0.4725348350000001  0.5281649535942424  1.0000
  Cu  Cu2       1.0  0.2934707399999999  0.9166207350000003  0.5118203594694577  1.0000
  Cu  Cu3       1.0  0.9601373999999999  0.374954065  0.49698299783356975  1.0000
  Cu  Cu4       1.0  0.9510034199999998  0.979212595  0.5406925156706865  1.0000
  Cu  Cu5       1.0  0.2934707399999999  0.29162073500000013  0.4673082781227603  1.0000
  Cu  Cu6       1.0  0.9601373999999999  0.7499540650000002  0.4524709164868724  1.0000
  Cu  Cu7       1.0  0.6268040699999999  0.20828740500000015  0.4376335548509844  1.0000
  Cu  Cu8       1.0  0.6268040699999999  0.8332874050000001  0.48214563619768175  1.0000
  Pt  Pt1       1.0  0.62018597  0.9765340450000002  0.5263878603804899  1.0000
  Pt  Pt2       1.0  0.2934707399999999  0.4166207350000001  0.5118203594694577  1.0000
  Pt  Pt3       1.0  0.9601373999999999  0.8749540650000002  0.4969829978335697  1.0000
  Pt  Pt4       1.0  0.98428799  0.4626609250000001  0.5420582389115325  1.0000
  Pt  Pt5       1.0  0.28713410999999994  0.7390908250000001  0.5334548298779146  1.0000
  Pt  Pt6       1.0  0.9571884899999998  0.2058614050000001  0.5194351266886333  1.0000
  Pt  Pt7       1.0  0.6268040699999999  0.6457874050000002  0.5044016768710304  1.0000
  Pt  Pt8       1.0  0.2934707399999999  0.10412073500000009  0.489564318796109  1.0000
  Pt  Pt9       1.0  0.2934707399999999  0.7916207350000002  0.46730827812276027  1.0000
  Pt  Pt10      1.0  0.9601373999999999  0.24995406500000006  0.4524709164868724  1.0000
  Pt  Pt11      1.0  0.6268040699999999  0.7082874050000001  0.43763355485098443  1.0000
  Pt  Pt12      1.0  0.6268040699999999  0.33328740500000004  0.4821456361976818  1.0000
  Pt  Pt13      1.0  0.9601373999999999  0.5624540650000002  0.47472695716022106  1.0000
  Pt  Pt14      1.0  0.6268040699999999  0.020787405000000096  0.45988959552433306  1.0000
  Pt  Pt15      1.0  0.2934707399999999  0.47912073500000013  0.44505223744941164  1.0000
  Pt  Pt16      1.0  0.9601373999999999  0.9374540650000003  0.43021487581352363  1.0000
