data_image0
_chemical_formula_structural       COAu8Ti2Au8Ti2
_chemical_formula_sum              "C1 O1 Au16 Ti4"
_cell_length_a       5.1043957540702145
_cell_length_b       8.06569238
_cell_length_c       107.51385358
_cell_angle_alpha    90.0
_cell_angle_beta     90.0
_cell_angle_gamma    113.26825607233386

_space_group_name_H-M_alt    "P 1"
_space_group_IT_number       1

loop_
  _space_group_symop_operation_xyz
  'x, y, z'

loop_
  _atom_site_type_symbol
  _atom_site_label
  _atom_site_symmetry_multiplicity
  _atom_site_fract_x
  _atom_site_fract_y
  _atom_site_fract_z
  _atom_site_occupancy
  C   C1        1.0  0.10743265999999999  0.504296385  0.539800913345683  1.0000
  O   O1        1.0  0.13665521  0.5139280549999999  0.5506754132144285  1.0000
  Au  Au1       1.0  0.8936992399999999  0.476483185  0.46668427056154216  1.0000
  Au  Au2       1.0  0.9181662399999999  0.235103535  0.5092640666785262  1.0000
  Au  Au3       1.0  0.30009321  0.08117022500000001  0.5187846374803187  1.0000
  Au  Au4       1.0  0.26996828  0.320550455  0.47558004228103246  1.0000
  Au  Au5       1.0  0.47985342000000003  0.12302173500000003  0.457530101821741  1.0000
  Au  Au6       1.0  0.49072349  0.38222478499999996  0.5014994832543351  1.0000
  Au  Au7       1.0  0.7391618099999999  0.401634615  0.5285394215799989  1.0000
  Au  Au8       1.0  0.6838141  0.174011905  0.48473421451004467  1.0000
  Ti  Ti1       1.0  0.08183375999999999  0.02351681500000002  0.4929397260570031  1.0000
  Ti  Ti2       1.0  0.08183375999999999  0.27351681499999997  0.44932458678557147  1.0000
  Au  Au9       1.0  0.8936992399999999  0.976483185  0.46668427056154216  1.0000
  Au  Au10      1.0  0.90522037  0.7233465649999999  0.5108787758969997  1.0000
  Au  Au11      1.0  0.36990459  0.580347245  0.5236795610715403  1.0000
  Au  Au12      1.0  0.26996828  0.820550455  0.47558004228103246  1.0000
  Au  Au13      1.0  0.47985342000000003  0.623021735  0.457530101821741  1.0000
  Au  Au14      1.0  0.4637388999999999  0.8605864049999999  0.5012139436605529  1.0000
  Au  Au15      1.0  0.71728154  0.9503119749999999  0.5263946453617206  1.0000
  Au  Au16      1.0  0.6838141  0.6740119049999999  0.48473421451004467  1.0000
  Ti  Ti3       1.0  0.08183375999999999  0.523516815  0.4929397260570031  1.0000
  Ti  Ti4       1.0  0.08183375999999999  0.773516815  0.44932458678557147  1.0000
