data_image0
_chemical_formula_structural       COFe3Pt3Fe3Pt3Fe3Pt3Fe3Pt3
_chemical_formula_sum              "C1 O1 Fe12 Pt12"
_cell_length_a       5.979632676845066
_cell_length_b       7.40845168
_cell_length_c       100.25481414000001
_cell_angle_alpha    90.0
_cell_angle_beta     108.43494879262163
_cell_angle_gamma    90.0

_space_group_name_H-M_alt    "P 1"
_space_group_IT_number       1

loop_
  _space_group_symop_operation_xyz
  'x, y, z'

loop_
  _atom_site_type_symbol
  _atom_site_label
  _atom_site_symmetry_multiplicity
  _atom_site_fract_x
  _atom_site_fract_y
  _atom_site_fract_z
  _atom_site_occupancy
  C   C1        1.0  0.84963317  0.14193109000000004  0.5343288587838609  1.0000
  O   O1        1.0  0.86779561  0.15168328  0.54632904090517  1.0000
  Fe  Fe1       1.0  0.13890571999999995  0.12372979000000002  0.5039152949632602  1.0000
  Fe  Fe2       1.0  0.81460829  0.12354321000000003  0.5161888135636438  1.0000
  Fe  Fe3       1.0  0.4711624499999999  0.12339007000000003  0.49139335477169854  1.0000
  Pt  Pt1       1.0  0.13593980999999997  0.3813010600000001  0.5219959560793069  1.0000
  Pt  Pt2       1.0  0.80188069  0.37095076000000005  0.49738101554852965  1.0000
  Pt  Pt3       1.0  0.48522501999999995  0.37742448  0.510659371253787  1.0000
  Fe  Fe4       1.0  0.13782911999999994  0.12339007000000003  0.46624509199305003  1.0000
  Fe  Fe5       1.0  0.8044957899999999  0.12339007000000003  0.47881922489127016  1.0000
  Fe  Fe6       1.0  0.4711624499999999  0.12339007000000003  0.45367095909482996  1.0000
  Pt  Pt4       1.0  0.13782911999999994  0.3733900700000001  0.48510628983148435  1.0000
  Pt  Pt5       1.0  0.8044957899999999  0.3733900700000001  0.45995802705283584  1.0000
  Pt  Pt6       1.0  0.4711624499999999  0.3733900700000001  0.4725321569332642  1.0000
  Fe  Fe7       1.0  0.13220438999999995  0.62349818  0.5035827343229728  1.0000
  Fe  Fe8       1.0  0.8094188199999999  0.6239059  0.5145023448400555  1.0000
  Fe  Fe9       1.0  0.4711624499999999  0.62339007  0.49139335477169854  1.0000
  Pt  Pt7       1.0  0.13513879999999995  0.86606746  0.5220354559542681  1.0000
  Pt  Pt8       1.0  0.80200585  0.87660993  0.49740617487755023  1.0000
  Pt  Pt9       1.0  0.48540975  0.8712599100000001  0.510698376210917  1.0000
  Fe  Fe10      1.0  0.13782911999999994  0.62339007  0.46624509199305003  1.0000
  Fe  Fe11      1.0  0.8044957899999999  0.62339007  0.47881922489127016  1.0000
  Fe  Fe12      1.0  0.4711624499999999  0.62339007  0.45367095909482996  1.0000
  Pt  Pt10      1.0  0.13782911999999994  0.8733900700000001  0.48510628983148435  1.0000
  Pt  Pt11      1.0  0.8044957899999999  0.8733900700000001  0.45995802705283584  1.0000
  Pt  Pt12      1.0  0.4711624499999999  0.8733900700000001  0.4725321569332642  1.0000
