data_image0
_chemical_formula_structural       CONi8Sb16
_chemical_formula_sum              "C1 O1 Ni8 Sb16"
_cell_length_a       6.557482173990294
_cell_length_b       10.172520142003146
_cell_length_c       106.72752299999999
_cell_angle_alpha    83.71853883709845
_cell_angle_beta     78.5876537743815
_cell_angle_gamma    62.22324398967578

_space_group_name_H-M_alt    "P 1"
_space_group_IT_number       1

loop_
  _space_group_symop_operation_xyz
  'x, y, z'

loop_
  _atom_site_type_symbol
  _atom_site_label
  _atom_site_symmetry_multiplicity
  _atom_site_fract_x
  _atom_site_fract_y
  _atom_site_fract_z
  _atom_site_occupancy
  C   C1        1.0  0.9916315350000001  0.0026849349999999777  0.5403984685447358  1.0000
  O   O1        1.0  0.9718116150000004  0.998939355  0.55151876965924  1.0000
  Ni  Ni1       1.0  0.756359645  0.751822085  0.45935778140504174  1.0000
  Ni  Ni2       1.0  0.5063596449999999  0.501822085  0.4808655436295992  1.0000
  Ni  Ni3       1.0  0.03717114500000002  0.001060644999999978  0.5233251044695565  1.0000
  Ni  Ni4       1.0  0.25178706500000003  0.250330725  0.5024462705073485  1.0000
  Ni  Ni5       1.0  0.7592027950000002  0.752307875  0.5023430848673  1.0000
  Ni  Ni6       1.0  0.5071013050000001  0.492712135  0.5215871293084081  1.0000
  Ni  Ni7       1.0  0.006359645000000017  0.0018220849999999779  0.48086554362959927  1.0000
  Ni  Ni8       1.0  0.256359645  0.251822085  0.45935778140504174  1.0000
  Sb  Sb1       1.0  0.743640355  0.875396205  0.47952595072596294  1.0000
  Sb  Sb2       1.0  0.4868206950000001  0.635841045  0.5009617393750123  1.0000
  Sb  Sb3       1.0  0.9936403549999999  0.12539620499999996  0.4580181885014054  1.0000
  Sb  Sb4       1.0  0.20347688500000002  0.41449607499999996  0.5205540994444158  1.0000
  Sb  Sb5       1.0  0.013943484999999926  0.8895675149999999  0.5040181300368002  1.0000
  Sb  Sb6       1.0  0.713375755  0.6321428450000001  0.5258448265658332  1.0000
  Sb  Sb7       1.0  0.2690789350000001  0.12824796499999996  0.4822051365332356  1.0000
  Sb  Sb8       1.0  0.5190789350000001  0.37824796499999996  0.460697374308678  1.0000
  Sb  Sb9       1.0  0.10164343499999999  0.517393125  0.4917420946938811  1.0000
  Sb  Sb10      1.0  0.852762155  0.260922275  0.5137850629561184  1.0000
  Sb  Sb11      1.0  0.35164343499999995  0.767393125  0.4702343324693235  1.0000
  Sb  Sb12      1.0  0.6016434350000001  0.017393124999999978  0.4487265702447659  1.0000
  Sb  Sb13      1.0  0.4429828049999999  0.9890442850000001  0.5142237111857569  1.0000
  Sb  Sb14      1.0  0.1610758549999999  0.736251045  0.4484812303407598  1.0000
  Sb  Sb15      1.0  0.6610758550000001  0.236251045  0.49149675478987503  1.0000
  Sb  Sb16      1.0  0.9110758550000003  0.48625104500000005  0.46998899256531756  1.0000
