data_image0
_chemical_formula_structural       COPd6V3Pd6V3
_chemical_formula_sum              "C1 O1 Pd12 V6"
_cell_length_a       4.8032310205963356
_cell_length_b       5.513415993606656
_cell_length_c       101.35564449
_cell_angle_alpha    92.5194610999042
_cell_angle_beta     91.62884522597528
_cell_angle_gamma    73.32372267619816

_space_group_name_H-M_alt    "P 1"
_space_group_IT_number       1

loop_
  _space_group_symop_operation_xyz
  'x, y, z'

loop_
  _atom_site_type_symbol
  _atom_site_label
  _atom_site_symmetry_multiplicity
  _atom_site_fract_x
  _atom_site_fract_y
  _atom_site_fract_z
  _atom_site_occupancy
  C   C1        1.0  0.345647215  0.32510069  0.5475450359078727  1.0000
  O   O1        1.0  0.31671559499999996  0.34458787999999996  0.5590945003427333  1.0000
  Pd  Pd1       1.0  0.40472504499999995  0.04723210999999999  0.5333123088785572  1.0000
  Pd  Pd2       1.0  0.8614036650000001  0.17073104999999997  0.5213210777616281  1.0000
  Pd  Pd3       1.0  0.718292675  0.43791695999999997  0.4980327787709016  1.0000
  Pd  Pd4       1.0  0.17845532500000003  0.06387900999999999  0.48689908218621236  1.0000
  Pd  Pd5       1.0  0.05162600499999999  0.3268058499999999  0.4636591582233748  1.0000
  Pd  Pd6       1.0  0.511788655  0.45276788999999995  0.4525254616386855  1.0000
  V   V1        1.0  0.290341045  0.30591482  0.510391845098614  1.0000
  V   V2        1.0  0.6150406650000001  0.19534242  0.47527912020479357  1.0000
  V   V3        1.0  0.948373995  0.08423132000000003  0.44090549965726683  1.0000
  Pd  Pd7       1.0  0.39516663499999993  0.54757704  0.5328718260512288  1.0000
  Pd  Pd8       1.0  0.8417070150000001  0.6755028399999998  0.5209236953300629  1.0000
  Pd  Pd9       1.0  0.718292675  0.9379169599999998  0.4980327787709016  1.0000
  Pd  Pd10      1.0  0.17845532500000003  0.56387901  0.48689908218621236  1.0000
  Pd  Pd11      1.0  0.05162600499999999  0.8268058499999998  0.4636591582233748  1.0000
  Pd  Pd12      1.0  0.511788655  0.9527678899999997  0.4525254616386856  1.0000
  V   V4        1.0  0.274162205  0.8060273099999998  0.5090327688450479  1.0000
  V   V5        1.0  0.6150406650000001  0.6953424199999999  0.47527912020479357  1.0000
  V   V6        1.0  0.948373995  0.5842313199999999  0.4409054996572668  1.0000
