data_image0
_chemical_formula_structural       COAl2Re4Al2Re4Al2Re4Al2Re4
_chemical_formula_sum              "C1 O1 Al8 Re16"
_cell_length_a       6.0191419
_cell_length_b       6.0191419
_cell_length_c       31.296529030000002
_cell_angle_alpha    90.0
_cell_angle_beta     90.0
_cell_angle_gamma    90.0

_space_group_name_H-M_alt    "P 1"
_space_group_IT_number       1

loop_
  _space_group_symop_operation_xyz
  'x, y, z'

loop_
  _atom_site_type_symbol
  _atom_site_label
  _atom_site_symmetry_multiplicity
  _atom_site_fract_x
  _atom_site_fract_y
  _atom_site_fract_z
  _atom_site_occupancy
  C   C1        1.0  0.375556205  0.3755573849999999  0.6409837841277038  1.0000
  O   O1        1.0  0.375556425  0.37555720499999995  0.6786804092474065  1.0000
  Al  Al1       1.0  0.125556045  0.12555752499999995  0.32131959075259336  1.0000
  Al  Al2       1.0  0.37555604499999995  0.37555752499999995  0.475903310455583  1.0000
  Re  Re1       1.0  0.124443955  0.12444244499999996  0.5307544619516535  1.0000
  Re  Re2       1.0  0.37555604499999995  0.37555748499999997  0.578328702326333  1.0000
  Re  Re3       1.0  0.37555604499999995  0.37555752499999995  0.37352726170816214  1.0000
  Re  Re4       1.0  0.125556045  0.12555752499999995  0.4236956518667117  1.0000
  Al  Al3       1.0  0.125556045  0.625557525  0.32131959075259336  1.0000
  Al  Al4       1.0  0.37555604499999995  0.8755575249999998  0.475903310455583  1.0000
  Re  Re5       1.0  0.124444025  0.6266725949999999  0.5307544495849561  1.0000
  Re  Re6       1.0  0.375555985  0.875557555  0.5765867540391392  1.0000
  Re  Re7       1.0  0.37555604499999995  0.8755575249999998  0.37352726170816214  1.0000
  Re  Re8       1.0  0.125556045  0.625557525  0.4236956518667117  1.0000
  Al  Al5       1.0  0.625556045  0.12555752499999995  0.32131959075259336  1.0000
  Al  Al6       1.0  0.875556045  0.37555752499999995  0.475903310455583  1.0000
  Re  Re9       1.0  0.626668055  0.12444248499999995  0.5307544495849561  1.0000
  Re  Re10      1.0  0.8755560349999999  0.37555753499999994  0.576588856377727  1.0000
  Re  Re11      1.0  0.875556045  0.37555752499999995  0.37352726170816214  1.0000
  Re  Re12      1.0  0.625556045  0.12555752499999995  0.4236956518667117  1.0000
  Al  Al7       1.0  0.625556045  0.625557525  0.32131959075259336  1.0000
  Al  Al8       1.0  0.875556045  0.8755575249999998  0.475903310455583  1.0000
  Re  Re13      1.0  0.626668075  0.6266725649999999  0.5307544495849561  1.0000
  Re  Re14      1.0  0.875556025  0.8755574949999999  0.5767480652423236  1.0000
  Re  Re15      1.0  0.875556045  0.8755575249999998  0.37352726170816214  1.0000
  Re  Re16      1.0  0.625556045  0.625557525  0.4236956518667117  1.0000
