data_image0
_chemical_formula_structural       COGa4Ni8Ga4Ni8
_chemical_formula_sum              "C1 O1 Ga8 Ni16"
_cell_length_a       6.51578108048873
_cell_length_b       7.07870316
_cell_length_c       102.69512942
_cell_angle_alpha    90.0
_cell_angle_beta     71.72278728369069
_cell_angle_gamma    57.09847327068875

_space_group_name_H-M_alt    "P 1"
_space_group_IT_number       1

loop_
  _space_group_symop_operation_xyz
  'x, y, z'

loop_
  _atom_site_type_symbol
  _atom_site_label
  _atom_site_symmetry_multiplicity
  _atom_site_fract_x
  _atom_site_fract_y
  _atom_site_fract_z
  _atom_site_occupancy
  C   C1        1.0  0.394994475  0.3695645400000001  0.5371176962409212  1.0000
  O   O1        1.0  0.31809817500000004  0.37626736000000016  0.5493226792302963  1.0000
  Ga  Ga1       1.0  0.32615127499999996  0.43514092000000015  0.5062896871514333  1.0000
  Ga  Ga2       1.0  0.35417607500000003  0.9129615400000001  0.5245993313324255  1.0000
  Ga  Ga3       1.0  0.8504071349999999  0.8338999900000001  0.4954482130277362  1.0000
  Ga  Ga4       1.0  0.8995928649999999  0.30019940000000017  0.5153568171916997  1.0000
  Ni  Ni1       1.0  0.10040713499999998  0.3755666500000001  0.49047366944351023  1.0000
  Ni  Ni2       1.0  0.102361575  0.8702800100000002  0.5105259925492205  1.0000
  Ni  Ni3       1.0  0.363988755  0.08276668000000006  0.504778556118131  1.0000
  Ni  Ni4       1.0  0.436097595  0.5410255400000001  0.5237456996533724  1.0000
  Ni  Ni5       1.0  0.8504071349999999  0.1672333200000002  0.4954482130277362  1.0000
  Ni  Ni6       1.0  0.8292431749999999  0.67813459  0.5157924312079911  1.0000
  Ni  Ni7       1.0  0.586743195  0.13340493999999997  0.5201579664928998  1.0000
  Ni  Ni8       1.0  0.6047071949999999  0.6204395600000002  0.4997486924255407  1.0000
  Ga  Ga5       1.0  0.35040713500000004  0.41723332000000013  0.46560095152238123  1.0000
  Ga  Ga6       1.0  0.35040713500000004  0.9172333200000001  0.48549912585928445  1.0000
  Ga  Ga7       1.0  0.8504071349999999  0.8338999900000001  0.4556518643539296  1.0000
  Ga  Ga8       1.0  0.8504071349999999  0.3338999900000002  0.4755500386908329  1.0000
  Ni  Ni9       1.0  0.10040713499999998  0.3755666500000001  0.4506773207697038  1.0000
  Ni  Ni10      1.0  0.10040713499999998  0.8755666500000001  0.47057549510660696  1.0000
  Ni  Ni11      1.0  0.35040713500000004  0.08389999000000004  0.46560095152238123  1.0000
  Ni  Ni12      1.0  0.35040713500000004  0.58389999  0.48549912585928445  1.0000
  Ni  Ni13      1.0  0.8504071349999999  0.1672333200000002  0.4556518643539296  1.0000
  Ni  Ni14      1.0  0.8504071349999999  0.6672333200000001  0.4755500386908329  1.0000
  Ni  Ni15      1.0  0.600407135  0.12556665000000014  0.4805245822750587  1.0000
  Ni  Ni16      1.0  0.600407135  0.6255666500000002  0.46062640793815546  1.0000
