data_image0
_chemical_formula_structural       COGa12Pt36
_chemical_formula_sum              "C1 O1 Ga12 Pt36"
_cell_length_a       5.58408885
_cell_length_b       13.73047798038391
_cell_length_c       108.98304877999999
_cell_angle_alpha    89.38609853436914
_cell_angle_beta     90.0
_cell_angle_gamma    90.0

_space_group_name_H-M_alt    "P 1"
_space_group_IT_number       1

loop_
  _space_group_symop_operation_xyz
  'x, y, z'

loop_
  _atom_site_type_symbol
  _atom_site_label
  _atom_site_symmetry_multiplicity
  _atom_site_fract_x
  _atom_site_fract_y
  _atom_site_fract_z
  _atom_site_occupancy
  C   C1        1.0  0.514606815  0.55419187  0.5396202260998191  1.0000
  O   O1        1.0  0.500367535  0.52857577  0.5500868389625655  1.0000
  Ga  Ga1       1.0  0.10615624499999995  0.58333333  0.5031973379159682  1.0000
  Ga  Ga2       1.0  0.10615624499999995  0.91666667  0.47338914935127097  1.0000
  Ga  Ga3       1.0  0.09507018499999996  0.25079255999999994  0.531519275831449  1.0000
  Ga  Ga4       1.0  0.6061562449999999  0.7500000000000001  0.4882932418451281  1.0000
  Ga  Ga5       1.0  0.6061562449999999  0.08333332999999998  0.458485053280431  1.0000
  Ga  Ga6       1.0  0.597082885  0.41368472000000006  0.5187137311665727  1.0000
  Ga  Ga7       1.0  0.631495665  0.92478368  0.5201680608215421  1.0000
  Ga  Ga8       1.0  0.6061562449999999  0.24999999999999997  0.4882932418451282  1.0000
  Ga  Ga9       1.0  0.6061562449999999  0.58333333  0.45848505328043093  1.0000
  Ga  Ga10      1.0  0.09978113499999995  0.7638451200000002  0.5326976269577168  1.0000
  Ga  Ga11      1.0  0.10615624499999995  0.08333332999999998  0.5031973379159682  1.0000
  Ga  Ga12      1.0  0.10615624499999995  0.41666667  0.47338914935127097  1.0000
  Pt  Pt1       1.0  0.28638040499999995  0.6029616900000001  0.5263749879818025  1.0000
  Pt  Pt2       1.0  0.3185878549999999  0.92918946  0.49462544567297184  1.0000
  Pt  Pt3       1.0  0.3185878549999999  0.2625228  0.4648172535312918  1.0000
  Pt  Pt4       1.0  0.7930829149999998  0.56627636  0.5278430925974223  1.0000
  Pt  Pt5       1.0  0.818587855  0.9041438700000001  0.49686513766510737  1.0000
  Pt  Pt6       1.0  0.818587855  0.23747719999999997  0.4670569455234274  1.0000
  Pt  Pt7       1.0  0.401329885  0.76641246  0.5092604238680646  1.0000
  Pt  Pt8       1.0  0.393724635  0.09585612999999998  0.4797213496021318  1.0000
  Pt  Pt9       1.0  0.393724635  0.4291894600000001  0.4499131610374345  1.0000
  Pt  Pt10      1.0  0.904929815  0.73373651  0.5113434046680269  1.0000
  Pt  Pt11      1.0  0.893724635  0.07081053999999998  0.48196104159426734  1.0000
  Pt  Pt12      1.0  0.893724635  0.40414387  0.45215285302957015  1.0000
  Pt  Pt13      1.0  0.6061562449999999  0.58333333  0.5031973379159682  1.0000
  Pt  Pt14      1.0  0.6061562449999999  0.91666667  0.47338914935127097  1.0000
  Pt  Pt15      1.0  0.6030871649999999  0.24913259999999998  0.5314151820558348  1.0000
  Pt  Pt16      1.0  0.10615624499999995  0.7500000000000001  0.4882932418451281  1.0000
  Pt  Pt17      1.0  0.10615624499999995  0.08333332999999998  0.458485053280431  1.0000
  Pt  Pt18      1.0  0.11092408499999995  0.42008653  0.5191194933611489  1.0000
  Pt  Pt19      1.0  0.818587855  0.59585613  0.4797213496021318  1.0000
  Pt  Pt20      1.0  0.818587855  0.92918946  0.44991316103743456  1.0000
  Pt  Pt21      1.0  0.830197945  0.26450909  0.5093762143773396  1.0000
  Pt  Pt22      1.0  0.3185878549999999  0.57081054  0.48196104159426745  1.0000
  Pt  Pt23      1.0  0.3185878549999999  0.9041438700000001  0.45215285302957015  1.0000
  Pt  Pt24      1.0  0.32520469499999993  0.23935417999999997  0.5109098993950801  1.0000
  Pt  Pt25      1.0  0.893724635  0.4291894600000001  0.49462544567297173  1.0000
  Pt  Pt26      1.0  0.893724635  0.7625228  0.4648172535312918  1.0000
  Pt  Pt27      1.0  0.890821785  0.08833376999999999  0.5243456046916786  1.0000
  Pt  Pt28      1.0  0.393724635  0.40414387  0.49686513766510737  1.0000
  Pt  Pt29      1.0  0.393724635  0.7374772  0.4670569455234274  1.0000
  Pt  Pt30      1.0  0.3792396449999999  0.07343768999999999  0.5258450186374916  1.0000
  Pt  Pt31      1.0  0.11055682499999996  0.9144953400000001  0.5188794241624838  1.0000
  Pt  Pt32      1.0  0.10615624499999995  0.24999999999999997  0.4882932418451282  1.0000
  Pt  Pt33      1.0  0.10615624499999995  0.58333333  0.45848505328043093  1.0000
  Pt  Pt34      1.0  0.6219634549999998  0.76235704  0.5315034870294986  1.0000
  Pt  Pt35      1.0  0.6061562449999999  0.08333332999999998  0.5031973379159682  1.0000
  Pt  Pt36      1.0  0.6061562449999999  0.41666667  0.47338914935127097  1.0000
