data_image0
_chemical_formula_structural       Al13Os4Al13Os4CO
_chemical_formula_sum              "Al26 Os8 C1 O1"
_cell_length_a       8.52393714
_cell_length_b       9.150015480844349
_cell_length_c       41.41724445
_cell_angle_alpha    81.96622405865114
_cell_angle_beta     90.0
_cell_angle_gamma    103.4675174922745

_space_group_name_H-M_alt    "P 1"
_space_group_IT_number       1

loop_
  _space_group_symop_operation_xyz
  'x, y, z'

loop_
  _atom_site_type_symbol
  _atom_site_label
  _atom_site_symmetry_multiplicity
  _atom_site_fract_x
  _atom_site_fract_y
  _atom_site_fract_z
  _atom_site_occupancy
  Al  Al1       1.0  0.25165093499999996  0.9101991149999998  0.4157644071502014  1.0000
  Al  Al2       1.0  0.18244768499999994  0.6333861349999999  0.45728330428308633  1.0000
  Al  Al3       1.0  0.11627710499999996  0.36870377499999996  0.40830063708088493  1.0000
  Al  Al4       1.0  0.02183118499999996  0.08310396499999996  0.5088997281222158  1.0000
  Al  Al5       1.0  0.342794975  0.2747752949999999  0.46950932517033594  1.0000
  Al  Al6       1.0  0.11518170499999995  0.38450703499999994  0.5079372767791946  1.0000
  Al  Al7       1.0  0.27802425499999994  0.021937344999999945  0.5373472728262269  1.0000
  Al  Al8       1.0  0.39577756500000005  0.5905539449999999  0.5569644979521589  1.0000
  Al  Al9       1.0  0.047222964999999964  0.09248720499999995  0.4426368627096823  1.0000
  Al  Al10      1.0  0.47816881499999997  0.8162706349999999  0.47697309523965237  1.0000
  Al  Al11      1.0  0.35678821499999996  0.31167529499999996  0.5484027513109113  1.0000
  Al  Al12      1.0  0.41199822500000005  0.5515882849999999  0.4279904280374511  1.0000
  Al  Al13      1.0  0.19374187499999995  0.7050088449999998  0.5176268406630024  1.0000
  Os  Os1       1.0  0.325829095  0.20691175499999995  0.4088664504258221  1.0000
  Os  Os2       1.0  0.409764695  0.5307184049999999  0.4911547566360203  1.0000
  Os  Os3       1.0  0.26861682500000006  0.9780626550000001  0.47640728189471526  1.0000
  Os  Os4       1.0  0.186568465  0.6498692449999999  0.3923345394670169  1.0000
  Al  Al14      1.0  0.751650935  0.9101991149999998  0.4157644071502014  1.0000
  Al  Al15      1.0  0.6824476850000001  0.6333861349999999  0.45728330428308633  1.0000
  Al  Al16      1.0  0.6162771049999999  0.36870377499999996  0.40830063708088493  1.0000
  Al  Al17      1.0  0.5596333549999999  0.08197190499999996  0.5080588271334462  1.0000
  Al  Al18      1.0  0.8427949749999998  0.2747752949999999  0.46950932517033594  1.0000
  Al  Al19      1.0  0.628870405  0.378773675  0.5075550829355107  1.0000
  Al  Al20      1.0  0.738532685  0.919574415  0.5439340418725325  1.0000
  Al  Al21      1.0  0.929926705  0.4956116949999999  0.5525786923010749  1.0000
  Al  Al22      1.0  0.5472229649999999  0.09248720499999995  0.4426368627096823  1.0000
  Al  Al23      1.0  0.9781688150000001  0.8162706349999999  0.47697309523965237  1.0000
  Al  Al24      1.0  0.8208965949999999  0.20902828499999992  0.5510626495899166  1.0000
  Al  Al25      1.0  0.9119982249999998  0.5515882849999999  0.4279904280374511  1.0000
  Al  Al26      1.0  0.6944663149999998  0.6736548849999999  0.5190250734554966  1.0000
  Os  Os5       1.0  0.825829095  0.20691175499999995  0.4088664504258221  1.0000
  Os  Os6       1.0  0.909557485  0.5434071949999999  0.48976662025914347  1.0000
  Os  Os7       1.0  0.768616825  0.9780626550000001  0.47640728189471526  1.0000
  Os  Os8       1.0  0.686568465  0.6498692449999999  0.3923345394670169  1.0000
  C   C1        1.0  0.22077288499999997  0.8876339349999999  0.5801992556815934  1.0000
  O   O1        1.0  0.19034285499999998  0.8435800749999999  0.607665460532983  1.0000
