data_image0
_chemical_formula_structural       COZn5Ag5Zn5Ag5
_chemical_formula_sum              "C1 O1 Zn10 Ag10"
_cell_length_a       7.223372437978532
_cell_length_b       4.56846186
_cell_length_c       103.57120139
_cell_angle_alpha    90.0
_cell_angle_beta     104.96321740279481
_cell_angle_gamma    71.56505117013457

_space_group_name_H-M_alt    "P 1"
_space_group_IT_number       1

loop_
  _space_group_symop_operation_xyz
  'x, y, z'

loop_
  _atom_site_type_symbol
  _atom_site_label
  _atom_site_symmetry_multiplicity
  _atom_site_fract_x
  _atom_site_fract_y
  _atom_site_fract_z
  _atom_site_occupancy
  C   C1        1.0  0.8480548550000001  0.17954212999999983  0.5550544655788223  1.0000
  O   O1        1.0  0.995523625  0.10623752999999986  0.5637524953831855  1.0000
  Zn  Zn1       1.0  0.6139188249999998  0.29837912  0.5064770663071259  1.0000
  Zn  Zn2       1.0  0.013918824999999966  0.09837911999999994  0.49567251910277754  1.0000
  Zn  Zn3       1.0  0.223499735  0.49435470999999986  0.5235225464158357  1.0000
  Zn  Zn4       1.0  0.41478101500000003  0.89707208  0.5357768619549519  1.0000
  Zn  Zn5       1.0  0.817446285  0.6977838399999999  0.5275885983018496  1.0000
  Ag  Ag1       1.0  0.6408059450000001  0.28498045999999994  0.5346292989966198  1.0000
  Ag  Ag2       1.0  0.0044763749999999665  0.10239108999999995  0.5224216526233652  1.0000
  Ag  Ag3       1.0  0.213918825  0.4983791199999999  0.49027024387992113  1.0000
  Ag  Ag4       1.0  0.40672637500000003  0.90162088  0.5101778034501726  1.0000
  Ag  Ag5       1.0  0.8139188250000001  0.6983791199999999  0.501074794325634  1.0000
  Zn  Zn6       1.0  0.6139188249999998  0.29837912  0.45245432704401956  1.0000
  Zn  Zn7       1.0  0.013918824999999966  0.09837911999999994  0.4416497765983066  1.0000
  Zn  Zn8       1.0  0.213918825  0.4983791199999999  0.46325887424836787  1.0000
  Zn  Zn9       1.0  0.41391882500000005  0.8983791200000001  0.4848679718984292  1.0000
  Zn  Zn10      1.0  0.8139188250000001  0.6983791199999999  0.4740634214527163  1.0000
  Ag  Ag6       1.0  0.6139188249999998  0.29837912  0.4794656966755727  1.0000
  Ag  Ag7       1.0  0.013918824999999966  0.09837911999999994  0.4686611494712243  1.0000
  Ag  Ag8       1.0  0.213918825  0.4983791199999999  0.43624750461681466  1.0000
  Ag  Ag9       1.0  0.41391882500000005  0.8983791200000001  0.45785659902551146  1.0000
  Ag  Ag10      1.0  0.8139188250000001  0.6983791199999999  0.4470520518211631  1.0000
