data_image0
_chemical_formula_structural       COSb24Rh12
_chemical_formula_sum              "C1 O1 Sb24 Rh12"
_cell_length_a       7.150531980216726
_cell_length_b       15.049843232602726
_cell_length_c       107.97851824
_cell_angle_alpha    108.86455974636024
_cell_angle_beta     111.63096353906747
_cell_angle_gamma    62.282141074730475

_space_group_name_H-M_alt    "P 1"
_space_group_IT_number       1

loop_
  _space_group_symop_operation_xyz
  'x, y, z'

loop_
  _atom_site_type_symbol
  _atom_site_label
  _atom_site_symmetry_multiplicity
  _atom_site_fract_x
  _atom_site_fract_y
  _atom_site_fract_z
  _atom_site_occupancy
  C   C1        1.0  0.8259204299999999  0.881770055  0.5410670135256985  1.0000
  O   O1        1.0  0.8579237700000001  0.9018926049999999  0.552852882319849  1.0000
  Sb  Sb1       1.0  0.80547554  0.013588245000000011  0.5196216906284974  1.0000
  Sb  Sb2       1.0  0.80346519  0.675266525  0.4606643319282678  1.0000
  Sb  Sb3       1.0  0.80346519  0.3419331949999999  0.4899745729372293  1.0000
  Sb  Sb4       1.0  0.65417173  0.7881657950000001  0.4947023794836173  1.0000
  Sb  Sb5       1.0  0.6484226700000001  0.459154295  0.5248309038337982  1.0000
  Sb  Sb6       1.0  0.65417173  0.121499135  0.46539213847465577  1.0000
  Sb  Sb7       1.0  0.15417173  0.029136345000000004  0.49311444552741523  1.0000
  Sb  Sb8       1.0  0.17407928999999994  0.690066615  0.5233584334732357  1.0000
  Sb  Sb9       1.0  0.15417173  0.36246967499999994  0.46380420451845383  1.0000
  Sb  Sb10      1.0  0.28209069  0.24753810499999998  0.5181096057170124  1.0000
  Sb  Sb11      1.0  0.30346518999999994  0.9162370750000001  0.45907639797206584  1.0000
  Sb  Sb12      1.0  0.30346518999999994  0.582903735  0.4883866424982563  1.0000
  Sb  Sb13      1.0  0.6057013899999999  0.047411355  0.4916634232296715  1.0000
  Sb  Sb14      1.0  0.58315559  0.716779145  0.5193183542425237  1.0000
  Sb  Sb15      1.0  0.6057013899999999  0.3807446849999999  0.46235318222071004  1.0000
  Sb  Sb16      1.0  0.8519355299999999  0.899144155  0.46073530257627615  1.0000
  Sb  Sb17      1.0  0.8519355299999999  0.5658108149999997  0.4900455471024666  1.0000
  Sb  Sb18      1.0  0.8942986100000001  0.2311530649999999  0.5190198927360296  1.0000
  Sb  Sb19      1.0  0.3340938299999999  0.9864117549999998  0.5210787062845625  1.0000
  Sb  Sb20      1.0  0.35193552999999994  0.656991515  0.46211535422601163  1.0000
  Sb  Sb21      1.0  0.35193552999999994  0.323658185  0.4914255952349731  1.0000
  Sb  Sb22      1.0  0.10570138999999999  0.138592055  0.4637332303532164  1.0000
  Sb  Sb23      1.0  0.10570138999999999  0.805258715  0.4930434748794069  1.0000
  Sb  Sb24      1.0  0.10619089999999998  0.4759587249999999  0.5225538321530665  1.0000
  Rh  Rh1       1.0  0.69152324  0.8576408849999999  0.4764573586891123  1.0000
  Rh  Rh2       1.0  0.68781634  0.522705265  0.505616478434206  1.0000
  Rh  Rh3       1.0  0.69152324  0.19097422499999994  0.4471471176801509  1.0000
  Rh  Rh4       1.0  0.7670271999999999  0.8473001749999999  0.521889529582942  1.0000
  Rh  Rh5       1.0  0.76611368  0.5137794149999999  0.46272798518398983  1.0000
  Rh  Rh6       1.0  0.76611368  0.18044608499999995  0.49203822619295123  1.0000
  Rh  Rh7       1.0  0.26611368  0.18009531500000003  0.4480111777576093  1.0000
  Rh  Rh8       1.0  0.26611368  0.846761985  0.4773214187665707  1.0000
  Rh  Rh9       1.0  0.27178073  0.5095732249999999  0.505901152402778  1.0000
  Rh  Rh10      1.0  0.19152323999999998  0.19062345500000002  0.49105079227169335  1.0000
  Rh  Rh11      1.0  0.17162049999999998  0.851996325  0.5189501671871092  1.0000
  Rh  Rh12      1.0  0.19152323999999998  0.523956785  0.4617405512627319  1.0000
