data_image0
_chemical_formula_structural       COSi2Ag2Pt10Si2Ag2Pt10
_chemical_formula_sum              "C1 O1 Si4 Ag4 Pt20"
_cell_length_a       5.64241958
_cell_length_b       8.19758610782248
_cell_length_c       103.8545175
_cell_angle_alpha    110.12999564231616
_cell_angle_beta     90.0
_cell_angle_gamma    69.87000435768385

_space_group_name_H-M_alt    "P 1"
_space_group_IT_number       1

loop_
  _space_group_symop_operation_xyz
  'x, y, z'

loop_
  _atom_site_type_symbol
  _atom_site_label
  _atom_site_symmetry_multiplicity
  _atom_site_fract_x
  _atom_site_fract_y
  _atom_site_fract_z
  _atom_site_occupancy
  C   C1        1.0  0.959808915  0.159092575  0.5550531157324446  1.0000
  O   O1        1.0  0.909196055  0.24584909500000002  0.5669253997621168  1.0000
  Si  Si1       1.0  0.7998896750000002  0.5087012649999999  0.4411269014671165  1.0000
  Si  Si2       1.0  0.2998896750000001  0.5087012649999999  0.46829191794141933  1.0000
  Ag  Ag1       1.0  0.04988967500000003  0.00870126500000001  0.4547094080743669  1.0000
  Ag  Ag2       1.0  0.549889675  0.00870126500000001  0.48187442780847184  1.0000
  Pt  Pt1       1.0  0.15167881500000005  0.30512298499999996  0.44917920269634964  1.0000
  Pt  Pt2       1.0  0.6516788149999999  0.30512298499999996  0.47634421917065256  1.0000
  Pt  Pt3       1.0  0.948100535  0.7122795449999999  0.46023961671218605  1.0000
  Pt  Pt4       1.0  0.44810053500000013  0.7122795449999999  0.43307460023788324  1.0000
  Pt  Pt5       1.0  0.6516788149999999  0.30512298499999996  0.44917920269634964  1.0000
  Pt  Pt6       1.0  0.15167881500000005  0.30512298499999996  0.47634421917065256  1.0000
  Pt  Pt7       1.0  0.44810053500000013  0.7122795449999999  0.46023961671218605  1.0000
  Pt  Pt8       1.0  0.948100535  0.7122795449999999  0.43307460023788324  1.0000
  Pt  Pt9       1.0  0.04988967500000003  0.00870126500000001  0.48187442780847184  1.0000
  Pt  Pt10      1.0  0.549889675  0.00870126500000001  0.4547094080743669  1.0000
  Si  Si3       1.0  0.7998896750000002  0.5087012649999999  0.4954569344157222  1.0000
  Si  Si4       1.0  0.2997202850000001  0.504629965  0.5226369720581355  1.0000
  Ag  Ag3       1.0  0.05272974500000003  0.999314085  0.5088418611574465  1.0000
  Ag  Ag4       1.0  0.537752885  0.01940903500000001  0.536828650924387  1.0000
  Pt  Pt11      1.0  0.15167881500000005  0.30512298499999996  0.5035092356449554  1.0000
  Pt  Pt12      1.0  0.6544848449999998  0.302104215  0.529502294585243  1.0000
  Pt  Pt13      1.0  0.945117505  0.712495385  0.5159282862820864  1.0000
  Pt  Pt14      1.0  0.44810053500000013  0.7122795449999999  0.48740463318648897  1.0000
  Pt  Pt15      1.0  0.6516788149999999  0.30512298499999996  0.5035092356449554  1.0000
  Pt  Pt16      1.0  0.14433849500000007  0.30278684499999997  0.5294935941734186  1.0000
  Pt  Pt17      1.0  0.442865625  0.713031225  0.5159684992008822  1.0000
  Pt  Pt18      1.0  0.948100535  0.7122795449999999  0.48740463318648897  1.0000
  Pt  Pt19      1.0  0.04019108500000002  0.015333385000000008  0.5363001196499165  1.0000
  Pt  Pt20      1.0  0.551982445  0.0006859149999998149  0.5089956684002757  1.0000
