data_image0
_chemical_formula_structural       COIr24Si24
_chemical_formula_sum              "C1 O1 Ir24 Si24"
_cell_length_a       8.505348740438208
_cell_length_b       9.101369915430846
_cell_length_c       100.3702669
_cell_angle_alpha    94.58689279552749
_cell_angle_beta     92.07642592133129
_cell_angle_gamma    96.94427649695213

_space_group_name_H-M_alt    "P 1"
_space_group_IT_number       1

loop_
  _space_group_symop_operation_xyz
  'x, y, z'

loop_
  _atom_site_type_symbol
  _atom_site_label
  _atom_site_symmetry_multiplicity
  _atom_site_fract_x
  _atom_site_fract_y
  _atom_site_fract_z
  _atom_site_occupancy
  C   C1        1.0  0.9064710199999999  0.019440354999999975  0.5444719906781358  1.0000
  O   O1        1.0  0.90803185  0.04489999499999998  0.5561202475766646  1.0000
  Ir  Ir1       1.0  0.89112174  0.169703375  0.46785515198738425  1.0000
  Ir  Ir2       1.0  0.39112173999999994  0.7197033749999999  0.4527260366437645  1.0000
  Ir  Ir3       1.0  0.0949459  0.033284774999999975  0.44645859485670136  1.0000
  Ir  Ir4       1.0  0.5949458999999999  0.4832847749999999  0.46158771020032113  1.0000
  Ir  Ir5       1.0  0.59659971  0.984773205  0.4616377512622317  1.0000
  Ir  Ir6       1.0  0.09659970999999999  0.5347732049999999  0.44650863591861195  1.0000
  Ir  Ir7       1.0  0.38946793  0.218214945  0.452675995581854  1.0000
  Ir  Ir8       1.0  0.88946793  0.6682149449999999  0.4678051109254737  1.0000
  Ir  Ir9       1.0  0.89112174  0.06970337499999997  0.4981133826746238  1.0000
  Ir  Ir10      1.0  0.39112174  0.6197033749999998  0.48298426733100414  1.0000
  Ir  Ir11      1.0  0.0949459  0.933284775  0.47671682554394085  1.0000
  Ir  Ir12      1.0  0.5949458999999999  0.38328477499999997  0.49184594088756073  1.0000
  Ir  Ir13      1.0  0.5965997100000001  0.8847732049999999  0.4918959819494712  1.0000
  Ir  Ir14      1.0  0.09659971000000002  0.434773205  0.4767668666058515  1.0000
  Ir  Ir15      1.0  0.38946792999999996  0.11821494499999996  0.48293422626909355  1.0000
  Ir  Ir16      1.0  0.8894679299999999  0.5682149449999999  0.4980633416127132  1.0000
  Ir  Ir17      1.0  0.9070566  0.976568385  0.525869626834443  1.0000
  Ir  Ir18      1.0  0.37500967999999996  0.524666395  0.51634090453074  1.0000
  Ir  Ir19      1.0  0.09196815  0.8339872049999999  0.506451540427122  1.0000
  Ir  Ir20      1.0  0.5860540999999999  0.28816279499999997  0.5195741780290557  1.0000
  Ir  Ir21      1.0  0.60183756  0.7802421349999998  0.5210089597859602  1.0000
  Ir  Ir22      1.0  0.09763959000000003  0.334821005  0.5071766214349034  1.0000
  Ir  Ir23      1.0  0.38754025999999997  0.015226794999999977  0.5120366893704186  1.0000
  Ir  Ir24      1.0  0.8847182  0.4730278849999999  0.5261976048743312  1.0000
  Si  Si1       1.0  0.30424014  0.961018905  0.460839127624765  1.0000
  Si  Si2       1.0  0.80424014  0.5110188949999999  0.4457100092553221  1.0000
  Si  Si3       1.0  0.6818274999999999  0.24196925500000002  0.45347462224514373  1.0000
  Si  Si4       1.0  0.1818275  0.6919692549999998  0.4686037345629405  1.0000
  Si  Si5       1.0  0.86472807  0.9065797650000001  0.4590088677669552  1.0000
  Si  Si6       1.0  0.36472807  0.4565797649999999  0.4438797524233355  1.0000
  Si  Si7       1.0  0.12133957  0.296408385  0.45530487907713046  1.0000
  Si  Si8       1.0  0.62133957  0.7464083849999998  0.4704339944207502  1.0000
  Si  Si9       1.0  0.30424014  0.8610189049999999  0.4910973583120045  1.0000
  Si  Si10      1.0  0.80424014  0.411018895  0.4759682399425617  1.0000
  Si  Si11      1.0  0.6818274999999999  0.141969245  0.4837328499065601  1.0000
  Si  Si12      1.0  0.1818275  0.5919692549999999  0.498861968276003  1.0000
  Si  Si13      1.0  0.86472807  0.8065797649999998  0.4892670984541947  1.0000
  Si  Si14      1.0  0.36472807  0.356579765  0.474137983110575  1.0000
  Si  Si15      1.0  0.12133957  0.19640838499999996  0.48556310976436995  1.0000
  Si  Si16      1.0  0.62262054  0.6466344049999999  0.5003787135281931  1.0000
  Si  Si17      1.0  0.31468036999999993  0.7745288449999999  0.5191462903372613  1.0000
  Si  Si18      1.0  0.8060051300000001  0.306788635  0.5062634734201086  1.0000
  Si  Si19      1.0  0.67729066  0.048914214999999976  0.5158195310094144  1.0000
  Si  Si20      1.0  0.15525661000000002  0.48652249499999994  0.5288279407646806  1.0000
  Si  Si21      1.0  0.8792576299999999  0.715077475  0.5202414779195168  1.0000
  Si  Si22      1.0  0.36074766999999996  0.261552825  0.5047696487776641  1.0000
  Si  Si23      1.0  0.13163118000000001  0.09970764499999997  0.5165140996173708  1.0000
  Si  Si24      1.0  0.63144106  0.5457738349999999  0.5294603166052824  1.0000
