data_image0
_chemical_formula_structural       CONi2Sb2Ni2Sb2Ni2Sb2Ni2Sb2Ni2Sb2Ni2Sb2Ni2Sb2Ni2Sb2
_chemical_formula_sum              "C1 O1 Ni16 Sb16"
_cell_length_a       8.011988248086794
_cell_length_b       8.01198826
_cell_length_c       101.19459087999999
_cell_angle_alpha    90.0
_cell_angle_beta     90.0
_cell_angle_gamma    119.99999996661141

_space_group_name_H-M_alt    "P 1"
_space_group_IT_number       1

loop_
  _space_group_symop_operation_xyz
  'x, y, z'

loop_
  _atom_site_type_symbol
  _atom_site_label
  _atom_site_symmetry_multiplicity
  _atom_site_fract_x
  _atom_site_fract_y
  _atom_site_fract_z
  _atom_site_occupancy
  C   C1        1.0  0.08385654000000001  0.25044063499999997  0.543243860238784  1.0000
  O   O1        1.0  0.08407373000000001  0.25050543499999994  0.5549256259236295  1.0000
  Ni  Ni1       1.0  0.08340016000000001  0.24958529499999998  0.49645160903353663  1.0000
  Ni  Ni2       1.0  0.08327640000000001  0.248990645  0.5254944685514098  1.0000
  Sb  Sb1       1.0  0.48057669999999997  0.448682985  0.5359963282445608  1.0000
  Sb  Sb2       1.0  0.24854065  0.08526947499999993  0.5107925413109465  1.0000
  Ni  Ni3       1.0  0.08340016000000001  0.24958529499999998  0.44507437407637046  1.0000
  Ni  Ni4       1.0  0.08340016000000001  0.24958529499999998  0.4707629915549536  1.0000
  Sb  Sb3       1.0  0.41673348999999993  0.41625195499999995  0.4836073018355622  1.0000
  Sb  Sb4       1.0  0.25006683  0.08291863499999995  0.45791868127434493  1.0000
  Ni  Ni5       1.0  0.08340016000000001  0.7495852949999999  0.49645160903353663  1.0000
  Ni  Ni6       1.0  0.08326651000000002  0.7493747149999999  0.5214630056828006  1.0000
  Sb  Sb5       1.0  0.41854605  0.917081365  0.5340496909736797  1.0000
  Sb  Sb6       1.0  0.24794389999999997  0.5783690149999999  0.5108492463674369  1.0000
  Ni  Ni7       1.0  0.08340016000000001  0.7495852949999999  0.44507437407637046  1.0000
  Ni  Ni8       1.0  0.08340016000000001  0.7495852949999999  0.4707629915549536  1.0000
  Sb  Sb7       1.0  0.41673348999999993  0.916251955  0.4836073018355622  1.0000
  Sb  Sb8       1.0  0.25006683  0.5829186349999999  0.45791868127434493  1.0000
  Ni  Ni9       1.0  0.58340016  0.24958529499999993  0.49645160903353663  1.0000
  Ni  Ni10      1.0  0.58455779  0.25140178499999993  0.5214514982092546  1.0000
  Sb  Sb9       1.0  0.88489181  0.4488189249999999  0.536048171986885  1.0000
  Sb  Sb10      1.0  0.75442057  0.0853175649999999  0.5107701583038697  1.0000
  Ni  Ni11      1.0  0.58340016  0.24958529499999993  0.44507437407637046  1.0000
  Ni  Ni12      1.0  0.58340016  0.24958529499999993  0.4707629915549536  1.0000
  Sb  Sb11      1.0  0.9167334899999999  0.41625195499999995  0.4836073018355622  1.0000
  Sb  Sb12      1.0  0.75006683  0.08291863499999998  0.45791868127434493  1.0000
  Ni  Ni13      1.0  0.58340016  0.7495852949999999  0.49645160903353663  1.0000
  Ni  Ni14      1.0  0.5844049299999999  0.7488341749999998  0.521397388730778  1.0000
  Sb  Sb13      1.0  0.88541324  0.853385485  0.5359937789060603  1.0000
  Sb  Sb14      1.0  0.7510884200000001  0.5831787649999999  0.5093801245505188  1.0000
  Ni  Ni15      1.0  0.58340016  0.7495852949999999  0.44507437407637046  1.0000
  Ni  Ni16      1.0  0.58340016  0.7495852949999999  0.4707629915549536  1.0000
  Sb  Sb15      1.0  0.9167334899999999  0.916251955  0.4836073018355622  1.0000
  Sb  Sb16      1.0  0.75006683  0.5829186349999999  0.45791868127434493  1.0000
