data_image0
_chemical_formula_structural       InRhInRhInRhInRhInRhInRhInRhInRhInRhInRhInRhInRhCO
_chemical_formula_sum              "In12 Rh12 C1 O1"
_cell_length_a       6.51831578
_cell_length_b       6.51831578
_cell_length_c       37.4084211
_cell_angle_alpha    90.0
_cell_angle_beta     90.0
_cell_angle_gamma    90.0

_space_group_name_H-M_alt    "P 1"
_space_group_IT_number       1

loop_
  _space_group_symop_operation_xyz
  'x, y, z'

loop_
  _atom_site_type_symbol
  _atom_site_label
  _atom_site_symmetry_multiplicity
  _atom_site_fract_x
  _atom_site_fract_y
  _atom_site_fract_z
  _atom_site_occupancy
  In  In1       1.0  0.12412733999999997  0.12494999500000002  0.5282430757876156  1.0000
  Rh  Rh1       1.0  0.37463075999999995  0.37608681499999996  0.5664892917441544  1.0000
  In  In2       1.0  0.12548979  0.12526113500000002  0.43960746390474925  1.0000
  Rh  Rh2       1.0  0.37548978999999993  0.37526113499999997  0.48316928493546907  1.0000
  In  In3       1.0  0.12548979  0.12526113500000002  0.3524838218433098  1.0000
  Rh  Rh3       1.0  0.37548978999999993  0.37526113499999997  0.39604564287402955  1.0000
  In  In4       1.0  0.12456995999999998  0.626182645  0.5280156046705573  1.0000
  Rh  Rh4       1.0  0.37421720999999997  0.875296855  0.564690502180697  1.0000
  In  In5       1.0  0.12548979  0.625261135  0.43960746390474925  1.0000
  Rh  Rh5       1.0  0.37548978999999993  0.8752611349999999  0.48316928493546907  1.0000
  In  In6       1.0  0.12548979  0.625261135  0.3524838218433098  1.0000
  Rh  Rh6       1.0  0.37548978999999993  0.8752611349999999  0.39604564287402955  1.0000
  In  In7       1.0  0.6260906999999999  0.12470314500000002  0.5284358804074976  1.0000
  Rh  Rh7       1.0  0.87552268  0.376511465  0.5647024816814805  1.0000
  In  In8       1.0  0.6254897899999999  0.12526113500000002  0.43960746390474925  1.0000
  Rh  Rh8       1.0  0.8754897899999998  0.37526113499999997  0.48316928493546907  1.0000
  In  In9       1.0  0.6254897899999999  0.12526113500000002  0.3524838218433098  1.0000
  Rh  Rh9       1.0  0.8754897899999998  0.37526113499999997  0.39604564287402955  1.0000
  In  In10      1.0  0.62583095  0.6265704950000001  0.5282548549040222  1.0000
  Rh  Rh10      1.0  0.87587266  0.874902155  0.5645711863528939  1.0000
  In  In11      1.0  0.6254897899999999  0.625261135  0.43960746390474925  1.0000
  Rh  Rh11      1.0  0.8754897899999998  0.8752611349999999  0.48316928493546907  1.0000
  In  In12      1.0  0.6254897899999999  0.625261135  0.3524838218433098  1.0000
  Rh  Rh12      1.0  0.8754897899999998  0.8752611349999999  0.39604564287402955  1.0000
  C   C1        1.0  0.37239218999999996  0.37835724499999995  0.6161907071185795  1.0000
  O   O1        1.0  0.37018964  0.380596555  0.6475161781566902  1.0000
