data_image0
_chemical_formula_structural       COCo6Sb12Co6Sb12
_chemical_formula_sum              "C1 O1 Co12 Sb24"
_cell_length_a       13.044573011012393
_cell_length_b       6.84389158
_cell_length_c       104.38587118000001
_cell_angle_alpha    90.0
_cell_angle_beta     78.49697805253045
_cell_angle_gamma    90.0

_space_group_name_H-M_alt    "P 1"
_space_group_IT_number       1

loop_
  _space_group_symop_operation_xyz
  'x, y, z'

loop_
  _atom_site_type_symbol
  _atom_site_label
  _atom_site_symmetry_multiplicity
  _atom_site_fract_x
  _atom_site_fract_y
  _atom_site_fract_z
  _atom_site_occupancy
  C   C1        1.0  0.7402713449999999  0.13033508500000002  0.5320229913458221  1.0000
  O   O1        1.0  0.721369995  0.14221401500000003  0.5434670843089081  1.0000
  Co  Co1       1.0  0.43298207499999997  0.137936745  0.48632437370428777  1.0000
  Co  Co2       1.0  0.09964874499999998  0.137936745  0.45887344458918494  1.0000
  Co  Co3       1.0  0.769542765  0.111392025  0.5149176052019034  1.0000
  Co  Co4       1.0  0.4447969249999999  0.38509123500000003  0.524803105719906  1.0000
  Co  Co5       1.0  0.10016223499999999  0.407518015  0.5002729599716301  1.0000
  Co  Co6       1.0  0.7663154149999999  0.387936745  0.4725989074996806  1.0000
  Sb  Sb1       1.0  0.37610728499999996  0.13932233500000002  0.511462543282301  1.0000
  Sb  Sb2       1.0  0.04771933499999998  0.137936745  0.4839838448061945  1.0000
  Sb  Sb3       1.0  0.7143860049999999  0.137936745  0.4565329156910918  1.0000
  Sb  Sb4       1.0  0.48491148500000003  0.137936745  0.46121397019316657  1.0000
  Sb  Sb5       1.0  0.13331624499999997  0.139044215  0.5167345844687855  1.0000
  Sb  Sb6       1.0  0.8182448249999998  0.137936745  0.48866489930826945  1.0000
  Sb  Sb7       1.0  0.6313233449999999  0.39640296500000005  0.5138848814426153  1.0000
  Sb  Sb8       1.0  0.28561400499999995  0.387936745  0.48597766186747254  1.0000
  Sb  Sb9       1.0  0.952280665  0.387936745  0.4585267327523698  1.0000
  Sb  Sb10      1.0  0.24701682499999994  0.387936745  0.4592201531318886  1.0000
  Sb  Sb11      1.0  0.9038715549999998  0.39749968500000005  0.512307443384922  1.0000
  Sb  Sb12      1.0  0.5803501549999999  0.387936745  0.48667108554110294  1.0000
  Co  Co7       1.0  0.43298207499999997  0.6379367450000001  0.48632437370428777  1.0000
  Co  Co8       1.0  0.09964874499999998  0.6379367450000001  0.45887344458918494  1.0000
  Co  Co9       1.0  0.7721726549999999  0.670960255  0.5126653321424827  1.0000
  Co  Co10      1.0  0.43380313499999995  0.888607975  0.5252103073285017  1.0000
  Co  Co11      1.0  0.10430485499999997  0.8665428550000001  0.49994834832971097  1.0000
  Co  Co12      1.0  0.7663154149999999  0.887936745  0.4725989074996806  1.0000
  Sb  Sb13      1.0  0.3781798649999999  0.634000315  0.5114161918376173  1.0000
  Sb  Sb14      1.0  0.04771933499999998  0.6379367450000001  0.4839838448061945  1.0000
  Sb  Sb15      1.0  0.7143860049999999  0.6379367450000001  0.4565329156910918  1.0000
  Sb  Sb16      1.0  0.48491148500000003  0.6379367450000001  0.46121397019316657  1.0000
  Sb  Sb17      1.0  0.141499625  0.636472725  0.5181139871237725  1.0000
  Sb  Sb18      1.0  0.8182448249999998  0.6379367450000001  0.48866489930826945  1.0000
  Sb  Sb19      1.0  0.615263215  0.887020605  0.5137915559661511  1.0000
  Sb  Sb20      1.0  0.28561400499999995  0.887936745  0.48597766186747254  1.0000
  Sb  Sb21      1.0  0.952280665  0.887936745  0.4585267327523698  1.0000
  Sb  Sb22      1.0  0.24701682499999994  0.887936745  0.4592201531318886  1.0000
  Sb  Sb23      1.0  0.9242228949999999  0.8739124349999999  0.5157060409371503  1.0000
  Sb  Sb24      1.0  0.5803501549999999  0.887936745  0.48667108554110294  1.0000
