data_image0
_chemical_formula_structural       Ga8Sn16V16CO
_chemical_formula_sum              "Ga8 Sn16 V16 C1 O1"
_cell_length_a       8.851871883516385
_cell_length_b       9.885633587027144
_cell_length_c       103.98572157000001
_cell_angle_alpha    86.97966820840448
_cell_angle_beta     89.04707831832152
_cell_angle_gamma    100.53856181086869

_space_group_name_H-M_alt    "P 1"
_space_group_IT_number       1

loop_
  _space_group_symop_operation_xyz
  'x, y, z'

loop_
  _atom_site_type_symbol
  _atom_site_label
  _atom_site_symmetry_multiplicity
  _atom_site_fract_x
  _atom_site_fract_y
  _atom_site_fract_z
  _atom_site_occupancy
  Ga  Ga1       1.0  0.271320625  0.535455555  0.48584864277823153  1.0000
  Ga  Ga2       1.0  0.7290127850000001  0.412432045  0.5256796255274964  1.0000
  Ga  Ga3       1.0  0.757120545  0.464455175  0.48430163562550155  1.0000
  Ga  Ga4       1.0  0.12167947499999995  0.355400855  0.5247839003591047  1.0000
  Ga  Ga5       1.0  0.9454762350000001  0.40886514500000004  0.5048833941700388  1.0000
  Ga  Ga6       1.0  0.569620545  0.526955175  0.4638747196407419  1.0000
  Ga  Ga7       1.0  0.45476165499999993  0.46867938499999995  0.5092258787023413  1.0000
  Ga  Ga8       1.0  0.08382062499999997  0.597955555  0.46542172679347177  1.0000
  Sn  Sn1       1.0  0.567139375  0.012985175000000012  0.5011848967618382  1.0000
  Sn  Sn2       1.0  0.196657425  0.137895905  0.4586769127457124  1.0000
  Sn  Sn3       1.0  0.6344666550000001  0.824308115  0.45180597801620315  1.0000
  Sn  Sn4       1.0  0.00946665499999997  0.699308115  0.49265980998572256  1.0000
  Sn  Sn5       1.0  0.16572256499999996  0.031708935000000014  0.4933820697835715  1.0000
  Sn  Sn6       1.0  0.790722565  0.156708935  0.45252823781405216  1.0000
  Sn  Sn7       1.0  0.45678374499999996  0.987014825  0.47061953368850135  1.0000
  Sn  Sn8       1.0  0.824993185  0.8608682550000001  0.5127885681681555  1.0000
  Sn  Sn9       1.0  0.426006845  0.282009085  0.4835674040207322  1.0000
  Sn  Sn10      1.0  0.7897202950000001  0.143815385  0.5272391012697434  1.0000
  Sn  Sn11      1.0  0.393895705  0.181216175  0.5190748257326628  1.0000
  Sn  Sn12      1.0  0.018974514999999973  0.30060261499999996  0.47749046841801046  1.0000
  Sn  Sn13      1.0  0.6024343249999999  0.717901645  0.4865828743830008  1.0000
  Sn  Sn14      1.0  0.9905333450000001  0.600359635  0.5318545449608139  1.0000
  Sn  Sn15      1.0  0.8627186050000001  0.9682017950000001  0.47676820862016156  1.0000
  Sn  Sn16      1.0  0.23251631500000003  0.854022695  0.5188355497412772  1.0000
  V   V1        1.0  0.18913698499999998  0.29614491499999995  0.5012722553278153  1.0000
  V   V2        1.0  0.8168284149999999  0.42842980500000005  0.4604996080931858  1.0000
  V   V3        1.0  0.371848055  0.7035279850000001  0.4664936431000749  1.0000
  V   V4        1.0  0.745617775  0.584285075  0.5064792330910453  1.0000
  V   V5        1.0  0.4737063449999999  0.731011485  0.5098761377067272  1.0000
  V   V6        1.0  0.136381655  0.8607607450000001  0.4711479110047426  1.0000
  V   V7        1.0  0.323881655  0.798260745  0.4915748269895023  1.0000
  V   V8        1.0  0.9488816550000002  0.9232607450000002  0.4507209950199829  1.0000
  V   V9        1.0  0.888254275  0.14553876500000001  0.4996655623607311  1.0000
  V   V10       1.0  0.517059515  0.26414998500000003  0.4581485354294711  1.0000
  V   V11       1.0  0.8366127449999999  0.696480925  0.468796838341028  1.0000
  V   V12       1.0  0.21113919499999997  0.584297345  0.5091972581418168  1.0000
  V   V13       1.0  0.655682795  0.294618845  0.5036911061329207  1.0000
  V   V14       1.0  0.281593115  0.421382745  0.46280280333413876  1.0000
  V   V15       1.0  0.7045595149999999  0.201649985  0.4785754514142307  1.0000
  V   V16       1.0  0.08581665499999996  0.098982165  0.5188213881689633  1.0000
  C   C1        1.0  0.09193701499999997  0.082441475  0.5379965002541918  1.0000
  O   O1        1.0  0.09993473499999997  0.07051534500000002  0.549279004980017  1.0000
