data_image0
_chemical_formula_structural       COAu16Ti4
_chemical_formula_sum              "C1 O1 Au16 Ti4"
_cell_length_a       5.104395756233982
_cell_length_b       9.37846339
_cell_length_c       99.74700229
_cell_angle_alpha    90.0
_cell_angle_beta     94.89088623426065
_cell_angle_gamma    90.0

_space_group_name_H-M_alt    "P 1"
_space_group_IT_number       1

loop_
  _space_group_symop_operation_xyz
  'x, y, z'

loop_
  _atom_site_type_symbol
  _atom_site_label
  _atom_site_symmetry_multiplicity
  _atom_site_fract_x
  _atom_site_fract_y
  _atom_site_fract_z
  _atom_site_occupancy
  C   C1        1.0  0.991202675  0.46179534499999997  0.5314426973044575  1.0000
  O   O1        1.0  0.01485822500000002  0.43795660499999994  0.5430642058025149  1.0000
  Au  Au1       1.0  0.646682235  0.600193435  0.4608478498244333  1.0000
  Au  Au2       1.0  0.521682235  0.10019343500000001  0.47948688258172534  1.0000
  Au  Au3       1.0  0.700147835  0.412058915  0.4832885116318836  1.0000
  Au  Au4       1.0  0.825147835  0.9120589150000001  0.4646494788745915  1.0000
  Au  Au5       1.0  0.33803274499999997  0.807116345  0.47557482695477715  1.0000
  Au  Au6       1.0  0.46303274499999997  0.307116345  0.4569357941974851  1.0000
  Au  Au7       1.0  0.008797325000000189  0.20513600499999998  0.4685615345015397  1.0000
  Au  Au8       1.0  0.8837973250000002  0.7051360050000001  0.48720056725883176  1.0000
  Au  Au9       1.0  0.38698907499999996  0.596598365  0.4978791166518394  1.0000
  Au  Au10      1.0  0.28667574500000004  0.10089172500000002  0.5189285163206069  1.0000
  Au  Au11      1.0  0.44437505499999996  0.404802855  0.5204582619993087  1.0000
  Au  Au12      1.0  0.5772297150000001  0.9110539050000002  0.5010780399032484  1.0000
  Au  Au13      1.0  0.12253028500000003  0.8008060549999999  0.514644151233261  1.0000
  Au  Au14      1.0  0.214932115  0.304551365  0.4942648054075241  1.0000
  Au  Au15      1.0  0.772155145  0.21050006500000001  0.5070918358461541  1.0000
  Au  Au16      1.0  0.6417253350000001  0.703602555  0.5236413823331847  1.0000
  Ti  Ti1       1.0  0.17341503500000005  0.506126175  0.4720681807281584  1.0000
  Ti  Ti2       1.0  0.048415035000000016  0.0061261750000000115  0.4907072134854506  1.0000
  Ti  Ti3       1.0  0.9270453050000002  0.5037529550000001  0.5105614306578966  1.0000
  Ti  Ti4       1.0  0.801345085  0.9938738250000001  0.5240921218611798  1.0000
