data_image0
_chemical_formula_structural       CONi6Sn8Ni6Sn8Ni6Sn8
_chemical_formula_sum              "C1 O1 Ni18 Sn24"
_cell_length_a       5.32121615
_cell_length_b       14.902014643663554
_cell_length_c       107.20016571
_cell_angle_alpha    56.30737687077043
_cell_angle_beta     90.0
_cell_angle_gamma    77.40628450882676

_space_group_name_H-M_alt    "P 1"
_space_group_IT_number       1

loop_
  _space_group_symop_operation_xyz
  'x, y, z'

loop_
  _atom_site_type_symbol
  _atom_site_label
  _atom_site_symmetry_multiplicity
  _atom_site_fract_x
  _atom_site_fract_y
  _atom_site_fract_z
  _atom_site_occupancy
  C   C1        1.0  0.9274965199999999  0.02808642500000003  0.5538704917147025  1.0000
  O   O1        1.0  0.8792728599999999  0.992555775  0.5661655300152664  1.0000
  Ni  Ni1       1.0  0.014233449999999951  0.07917291500000002  0.4591413253498994  1.0000
  Ni  Ni2       1.0  0.35073334999999994  0.36330863500000005  0.45650895963329186  1.0000
  Ni  Ni3       1.0  0.6777335499999998  0.29503719500000003  0.4424950264821382  1.0000
  Ni  Ni4       1.0  0.014233449999999951  0.579172915  0.4398626607655306  1.0000
  Ni  Ni5       1.0  0.35073334999999983  0.8633086350000001  0.43723029851908224  1.0000
  Ni  Ni6       1.0  0.6777335500000001  0.7950371949999999  0.46177368759634774  1.0000
  Sn  Sn1       1.0  0.7016760199999998  0.15090160500000002  0.4343313274001193  1.0000
  Sn  Sn2       1.0  0.32679087999999984  0.5074442250000001  0.4646726587153107  1.0000
  Sn  Sn3       1.0  0.8264499  0.40734470500000003  0.4531131345691025  1.0000
  Sn  Sn4       1.0  0.20201699999999992  0.25100112500000005  0.44589085154632746  1.0000
  Sn  Sn5       1.0  0.7016760199999998  0.650901605  0.45360999198448815  1.0000
  Sn  Sn6       1.0  0.32679087999999984  0.007444224999999971  0.4453939941309419  1.0000
  Sn  Sn7       1.0  0.8264498999999998  0.907344705  0.4338344699847337  1.0000
  Sn  Sn8       1.0  0.20201699999999992  0.751001125  0.46516951613069635  1.0000
  Ni  Ni7       1.0  0.014233449999999951  0.07917291500000002  0.4976986510484777  1.0000
  Ni  Ni8       1.0  0.35073334999999994  0.36330863500000005  0.4950662853318702  1.0000
  Ni  Ni9       1.0  0.6777335499999998  0.29503719500000003  0.48105235218071657  1.0000
  Ni  Ni10      1.0  0.014233449999999951  0.579172915  0.47841998646410894  1.0000
  Ni  Ni11      1.0  0.35073334999999983  0.8633086350000001  0.4757876242176606  1.0000
  Ni  Ni12      1.0  0.6777335500000001  0.7950371949999999  0.500331013294926  1.0000
  Sn  Sn9       1.0  0.7016760199999998  0.15090160500000002  0.4728886530986976  1.0000
  Sn  Sn10      1.0  0.32679087999999984  0.5074442250000001  0.5032299844138891  1.0000
  Sn  Sn11      1.0  0.8264499  0.40734470500000003  0.49167046026768085  1.0000
  Sn  Sn12      1.0  0.20201699999999992  0.25100112500000005  0.48444817724490585  1.0000
  Sn  Sn13      1.0  0.7016760199999998  0.650901605  0.4921673176830665  1.0000
  Sn  Sn14      1.0  0.32679087999999984  0.007444224999999971  0.4839513198295202  1.0000
  Sn  Sn15      1.0  0.8264498999999998  0.907344705  0.47239179568331197  1.0000
  Sn  Sn16      1.0  0.20201699999999992  0.751001125  0.5037268418292746  1.0000
  Ni  Ni13      1.0  0.99955904  0.08860786500000002  0.5350479414048194  1.0000
  Ni  Ni14      1.0  0.33857929999999997  0.378996865  0.5316267529459587  1.0000
  Ni  Ni15      1.0  0.6783202199999998  0.298105915  0.5191550071910978  1.0000
  Ni  Ni16      1.0  0.00044095999999993474  0.5798835650000002  0.5171488074376444  1.0000
  Ni  Ni17      1.0  0.34409513999999986  0.8699517849999999  0.5135145893665954  1.0000
  Ni  Ni18      1.0  0.66762336  0.800237445  0.5371244778180888  1.0000
  Sn  Sn17      1.0  0.7016760199999998  0.15090160500000002  0.5114459787972759  1.0000
  Sn  Sn18      1.0  0.33641751999999997  0.5081499650000001  0.5404390560414734  1.0000
  Sn  Sn19      1.0  0.8270469799999998  0.3973227650000001  0.5308099364282488  1.0000
  Sn  Sn20      1.0  0.23009660999999998  0.242209425  0.5250645601641198  1.0000
  Sn  Sn21      1.0  0.7003803499999999  0.6556957450000002  0.5310381826891761  1.0000
  Sn  Sn22      1.0  0.32661083999999996  0.004486615000000027  0.5240083755247735  1.0000
  Sn  Sn23      1.0  0.8264498999999998  0.907344705  0.5109491213818903  1.0000
  Sn  Sn24      1.0  0.1803543899999999  0.772771705  0.5425716424685247  1.0000
