data_image0
_chemical_formula_structural       COAl3Ni2Al3Ni2Al3Ni2Al3Ni2
_chemical_formula_sum              "C1 O1 Al12 Ni8"
_cell_length_a       4.95814823
_cell_length_b       8.131833486040685
_cell_length_c       102.52733397
_cell_angle_alpha    119.99999997542692
_cell_angle_beta     90.0
_cell_angle_gamma    90.0

_space_group_name_H-M_alt    "P 1"
_space_group_IT_number       1

loop_
  _space_group_symop_operation_xyz
  'x, y, z'

loop_
  _atom_site_type_symbol
  _atom_site_label
  _atom_site_symmetry_multiplicity
  _atom_site_fract_x
  _atom_site_fract_y
  _atom_site_fract_z
  _atom_site_occupancy
  C   C1        1.0  0.2293347  0.4029207299999999  0.5365874875475769  1.0000
  O   O1        1.0  0.24109088  0.50703915  0.5495757901809788  1.0000
  Al  Al1       1.0  0.08072905000000002  0.08196406999999999  0.48999816212157593  1.0000
  Al  Al2       1.0  0.7211705900000001  0.2335234  0.5142077572219097  1.0000
  Al  Al3       1.0  0.41524559000000005  0.41524537999999994  0.5034188487493507  1.0000
  Ni  Ni1       1.0  0.22057335000000003  0.25094092  0.5166801685522949  1.0000
  Ni  Ni2       1.0  0.9190188499999999  0.41659382  0.5033074858149211  1.0000
  Al  Al4       1.0  0.07340759000000002  0.08348292999999998  0.4504242098190213  1.0000
  Al  Al5       1.0  0.7207233900000001  0.25014959999999997  0.47686214544831756  1.0000
  Al  Al6       1.0  0.42609179000000014  0.4168162599999999  0.4636431760473933  1.0000
  Ni  Ni3       1.0  0.22022277  0.25014959999999997  0.47686214544831756  1.0000
  Ni  Ni4       1.0  0.9265924099999998  0.4168162599999999  0.4636431760473933  1.0000
  Al  Al7       1.0  0.07552680000000003  0.57909296  0.4894225056607096  1.0000
  Al  Al8       1.0  0.7172530800000001  0.7338319999999999  0.5141739631937191  1.0000
  Al  Al9       1.0  0.41518356000000006  0.9180359300000001  0.5034176241441234  1.0000
  Ni  Ni5       1.0  0.21799007999999997  0.7382287000000001  0.5147030687931847  1.0000
  Ni  Ni6       1.0  0.92006705  0.9157371999999999  0.5034598730244665  1.0000
  Al  Al10      1.0  0.07340759000000002  0.58348293  0.4504242098190213  1.0000
  Al  Al11      1.0  0.7207233900000001  0.7501496  0.47686214544831756  1.0000
  Al  Al12      1.0  0.42609179000000014  0.91681626  0.4636431760473933  1.0000
  Ni  Ni7       1.0  0.22022277  0.7501496  0.47686214544831756  1.0000
  Ni  Ni8       1.0  0.9265924099999998  0.91681626  0.4636431760473933  1.0000
