data_image0
_chemical_formula_structural       COAs3Ga3As3Ga3As3Ga3As3Ga3
_chemical_formula_sum              "C1 O1 As12 Ga12"
_cell_length_a       8.22800525705076
_cell_length_b       8.22800526
_cell_length_c       100.23162171
_cell_angle_alpha    90.0
_cell_angle_beta     90.0
_cell_angle_gamma    119.99999993144942

_space_group_name_H-M_alt    "P 1"
_space_group_IT_number       1

loop_
  _space_group_symop_operation_xyz
  'x, y, z'

loop_
  _atom_site_type_symbol
  _atom_site_label
  _atom_site_symmetry_multiplicity
  _atom_site_fract_x
  _atom_site_fract_y
  _atom_site_fract_z
  _atom_site_occupancy
  C   C1        1.0  0.6122311049999999  0.3477313599999999  0.5417819482481399  1.0000
  O   O1        1.0  0.5931195849999998  0.3382042399999999  0.553475825676998  1.0000
  As  As1       1.0  0.25626203499999994  0.4198150499999999  0.48003724123732366  1.0000
  As  As2       1.0  0.41124200499999997  0.24727816000000002  0.5132154914965908  1.0000
  As  As3       1.0  0.08959536499999998  0.08648171999999996  0.44652417432300207  1.0000
  Ga  Ga1       1.0  0.07707130499999998  0.08018494999999998  0.5179725018165303  1.0000
  Ga  Ga2       1.0  0.25626203499999994  0.4198150499999999  0.4549024387894504  1.0000
  Ga  Ga3       1.0  0.42292869499999997  0.25314838999999995  0.4884155087199481  1.0000
  As  As4       1.0  0.25626203499999994  0.9198150499999999  0.48003724123732366  1.0000
  As  As5       1.0  0.456738245  0.7700106899999999  0.5165449607717856  1.0000
  As  As6       1.0  0.08959536499999998  0.5864817199999999  0.44652417432300207  1.0000
  Ga  Ga4       1.0  0.11481338499999998  0.5990935199999998  0.5183860708283142  1.0000
  Ga  Ga5       1.0  0.25626203499999994  0.9198150499999999  0.4549024387894504  1.0000
  Ga  Ga6       1.0  0.42292869499999997  0.7531483899999999  0.4884155087199481  1.0000
  As  As7       1.0  0.7562620349999999  0.4198150499999999  0.48003724123732366  1.0000
  As  As8       1.0  0.9092394949999999  0.25563535  0.5147385126104519  1.0000
  As  As9       1.0  0.589595365  0.08648171999999998  0.44652417432300207  1.0000
  Ga  Ga7       1.0  0.5806277049999999  0.11198762999999994  0.5258327470944985  1.0000
  Ga  Ga8       1.0  0.7562620349999999  0.4198150499999999  0.4549024387894504  1.0000
  Ga  Ga9       1.0  0.9229286949999999  0.25314838999999995  0.4884155087199481  1.0000
  As  As10      1.0  0.7562620349999999  0.9198150499999999  0.48003724123732366  1.0000
  As  As11      1.0  0.9091385249999999  0.7370763299999998  0.5147475611386093  1.0000
  As  As12      1.0  0.589595365  0.58648172  0.44652417432300207  1.0000
  Ga  Ga10      1.0  0.5805650849999999  0.5518681699999999  0.5258389543848143  1.0000
  Ga  Ga11      1.0  0.7562620349999999  0.9198150499999999  0.4549024387894504  1.0000
  Ga  Ga12      1.0  0.9229286949999999  0.7531483899999999  0.4884155087199481  1.0000
