data_image0
_chemical_formula_structural       COIn4Cu4Pt8In4Cu4Pt8
_chemical_formula_sum              "C1 O1 In8 Cu8 Pt16"
_cell_length_a       5.8046463
_cell_length_b       9.069745913838684
_cell_length_c       111.81374658
_cell_angle_alpha    107.32410548742112
_cell_angle_beta     90.0
_cell_angle_gamma    50.20810720400061

_space_group_name_H-M_alt    "P 1"
_space_group_IT_number       1

loop_
  _space_group_symop_operation_xyz
  'x, y, z'

loop_
  _atom_site_type_symbol
  _atom_site_label
  _atom_site_symmetry_multiplicity
  _atom_site_fract_x
  _atom_site_fract_y
  _atom_site_fract_z
  _atom_site_occupancy
  C   C1        1.0  0.7417437499999999  0.61288911  0.5584537263398253  1.0000
  O   O1        1.0  0.7759315000000001  0.6099418400000001  0.5687067334834908  1.0000
  In  In1       1.0  0.06250000000000001  0.50135647  0.45466569827184994  1.0000
  In  In2       1.0  0.8125000000000001  0.25135647  0.47024732068860675  1.0000
  In  In3       1.0  0.31249999999999994  0.75135647  0.43908407585509307  1.0000
  In  In4       1.0  0.5625  0.001356469999999998  0.48582893936577437  1.0000
  Cu  Cu1       1.0  0.8124999999999998  0.75135647  0.43908407585509307  1.0000
  Cu  Cu2       1.0  0.5625  0.50135647  0.45466569827184994  1.0000
  Cu  Cu3       1.0  0.06250000000000006  0.001356469999999998  0.48582893936577437  1.0000
  Cu  Cu4       1.0  0.31250000000000006  0.25135647  0.47024732068860675  1.0000
  Pt  Pt1       1.0  0.4375  0.87635647  0.4624565076104337  1.0000
  Pt  Pt2       1.0  0.18750000000000006  0.62635647  0.47803813002719053  1.0000
  Pt  Pt3       1.0  0.6875000000000001  0.12635647  0.4468748889332661  1.0000
  Pt  Pt4       1.0  0.9375  0.37635647000000005  0.4312932665165093  1.0000
  Pt  Pt5       1.0  0.9375  0.87635647  0.4624565076104337  1.0000
  Pt  Pt6       1.0  0.6875000000000001  0.62635647  0.47803813002719053  1.0000
  Pt  Pt7       1.0  0.18750000000000006  0.12635647  0.4468748889332661  1.0000
  Pt  Pt8       1.0  0.4374999999999999  0.37635647000000005  0.4312932665165093  1.0000
  In  In5       1.0  0.06250000000000001  0.50135647  0.5169921841992878  1.0000
  In  In6       1.0  0.8078519800000001  0.25075765  0.5334409013966334  1.0000
  In  In7       1.0  0.31249999999999994  0.75135647  0.5014105617825312  1.0000
  In  In8       1.0  0.57151418  0.9986435300000001  0.5486781787112359  1.0000
  Cu  Cu5       1.0  0.8124999999999998  0.75135647  0.5014105617825312  1.0000
  Cu  Cu6       1.0  0.5625  0.50135647  0.5169921841992878  1.0000
  Cu  Cu7       1.0  0.10510061000000002  0.94957183  0.5455153726314452  1.0000
  Cu  Cu8       1.0  0.31753303000000005  0.24380155  0.5317876664598784  1.0000
  Pt  Pt9       1.0  0.43769391999999996  0.87750556  0.525114852152085  1.0000
  Pt  Pt10      1.0  0.20391521999999998  0.6081505500000001  0.5392773042522465  1.0000
  Pt  Pt11      1.0  0.6875000000000001  0.12635647  0.509201371121115  1.0000
  Pt  Pt12      1.0  0.9375  0.37635647000000005  0.4936197524439473  1.0000
  Pt  Pt13      1.0  0.9260569  0.8821400500000001  0.5246416333310264  1.0000
  Pt  Pt14      1.0  0.6861928900000002  0.62446537  0.5421603367145422  1.0000
  Pt  Pt15      1.0  0.18750000000000006  0.12635647  0.509201371121115  1.0000
  Pt  Pt16      1.0  0.4374999999999999  0.37635647000000005  0.4936197524439473  1.0000
