data_image0
_chemical_formula_structural       COAu4In4Pd8
_chemical_formula_sum              "C1 O1 Au4 In4 Pd8"
_cell_length_a       4.63560578
_cell_length_b       4.63560578
_cell_length_c       109.33441936
_cell_angle_alpha    90.0
_cell_angle_beta     90.0
_cell_angle_gamma    90.0

_space_group_name_H-M_alt    "P 1"
_space_group_IT_number       1

loop_
  _space_group_symop_operation_xyz
  'x, y, z'

loop_
  _atom_site_type_symbol
  _atom_site_label
  _atom_site_symmetry_multiplicity
  _atom_site_fract_x
  _atom_site_fract_y
  _atom_site_fract_z
  _atom_site_occupancy
  C   C1        1.0  3.500000001982511e-08  0.5000000050000001  0.5572304558503935  1.0000
  O   O1        1.0  0.999999975  0.49999995500000005  0.5678658327563963  1.0000
  Au  Au1       1.0  2.500000001982511e-08  0.500000015  0.47710447438732834  1.0000
  Au  Au2       1.0  0.5000000250000001  1.5000000050214908e-08  0.44712427082405337  1.0000
  Au  Au3       1.0  0.9999998649999999  0.499999935  0.5389342648032217  1.0000
  Au  Au4       1.0  0.5000000250000001  1.5000000050214908e-08  0.5070846815482278  1.0000
  In  In1       1.0  0.5000000250000001  1.5000000050214908e-08  0.47710447438732834  1.0000
  In  In2       1.0  2.500000001982511e-08  0.500000015  0.44712427082405337  1.0000
  In  In3       1.0  0.500000095  2.500000005021491e-08  0.5355443023172397  1.0000
  In  In4       1.0  2.500000001982511e-08  0.500000015  0.5070846815482278  1.0000
  Pd  Pd1       1.0  0.5000000250000001  0.500000015  0.46211437440450315  1.0000
  Pd  Pd2       1.0  0.5000000250000001  0.500000015  0.4321341672436036  1.0000
  Pd  Pd3       1.0  2.500000001982511e-08  1.5000000050214908e-08  0.4321341672436036  1.0000
  Pd  Pd4       1.0  2.500000001982511e-08  1.5000000050214908e-08  0.46211437440450315  1.0000
  Pd  Pd5       1.0  0.499999965  0.5000000350000001  0.5222653944737247  1.0000
  Pd  Pd6       1.0  0.5000000250000001  0.500000015  0.49209457796777806  1.0000
  Pd  Pd7       1.0  2.500000001982511e-08  1.5000000050214908e-08  0.49209457796777806  1.0000
  Pd  Pd8       1.0  8.50000000198251e-08  0.999999985  0.5222653764856019  1.0000
