data_image0
_chemical_formula_structural       COAg5Au15Ag5Au15
_chemical_formula_sum              "C1 O1 Ag10 Au30"
_cell_length_a       5.93226132
_cell_length_b       9.379728718043243
_cell_length_c       106.32753313
_cell_angle_alpha    75.03678257382715
_cell_angle_beta     90.0
_cell_angle_gamma    71.56505116645893

_space_group_name_H-M_alt    "P 1"
_space_group_IT_number       1

loop_
  _space_group_symop_operation_xyz
  'x, y, z'

loop_
  _atom_site_type_symbol
  _atom_site_label
  _atom_site_symmetry_multiplicity
  _atom_site_fract_x
  _atom_site_fract_y
  _atom_site_fract_z
  _atom_site_occupancy
  C   C1        1.0  0.29240169999999993  0.48074341  0.5665141968327837  1.0000
  O   O1        1.0  0.32261196999999986  0.42006356  0.5778456025507911  1.0000
  Ag  Ag1       1.0  0.8077404399999999  0.44999999999999996  0.463153222939406  1.0000
  Ag  Ag2       1.0  0.6077404399999999  0.85  0.4768194981028049  1.0000
  Ag  Ag3       1.0  0.007740439999999971  0.04999999999999996  0.449486947776007  1.0000
  Ag  Ag4       1.0  0.4077404399999999  0.24999999999999994  0.4221543974492091  1.0000
  Ag  Ag5       1.0  0.20774044  0.6499999999999998  0.435820672612608  1.0000
  Au  Au1       1.0  0.6077404399999999  0.3499999999999999  0.44265381019430744  1.0000
  Au  Au2       1.0  0.4077404399999999  0.7499999999999999  0.45632008535770646  1.0000
  Au  Au3       1.0  0.8077404399999999  0.95  0.42898753503090853  1.0000
  Au  Au4       1.0  0.20774043999999997  0.14999999999999997  0.46998636052110543  1.0000
  Au  Au5       1.0  0.007740440000000004  0.5499999999999999  0.48365263568450445  1.0000
  Au  Au6       1.0  0.10774044  0.3499999999999999  0.44265381019430744  1.0000
  Au  Au7       1.0  0.9077404400000001  0.7499999999999999  0.45632008535770646  1.0000
  Au  Au8       1.0  0.3077404399999999  0.95  0.42898753503090853  1.0000
  Au  Au9       1.0  0.7077404399999998  0.14999999999999997  0.46998636052110543  1.0000
  Au  Au10      1.0  0.5077404399999998  0.5499999999999999  0.48365263568450445  1.0000
  Au  Au11      1.0  0.70774044  0.6499999999999998  0.435820672612608  1.0000
  Au  Au12      1.0  0.5077404399999998  0.04999999999999996  0.449486947776007  1.0000
  Au  Au13      1.0  0.9077404399999999  0.24999999999999994  0.4221543974492091  1.0000
  Au  Au14      1.0  0.30774043999999995  0.44999999999999996  0.463153222939406  1.0000
  Au  Au15      1.0  0.1077404399999999  0.85  0.4768194981028049  1.0000
  Ag  Ag6       1.0  0.8132080100000001  0.43965575999999995  0.5327846612629885  1.0000
  Ag  Ag7       1.0  0.6055683499999999  0.85672374  0.5454702513537996  1.0000
  Ag  Ag8       1.0  0.007740439999999971  0.04999999999999996  0.5178183235930018  1.0000
  Ag  Ag9       1.0  0.4077404399999999  0.24999999999999994  0.4904857732662039  1.0000
  Ag  Ag10      1.0  0.20774044  0.6499999999999998  0.5041520484296029  1.0000
  Au  Au16      1.0  0.6077404399999999  0.3499999999999999  0.5109851860113024  1.0000
  Au  Au17      1.0  0.41320357  0.74354892  0.5246865425030457  1.0000
  Au  Au18      1.0  0.8077404399999999  0.95  0.49731891084790336  1.0000
  Au  Au19      1.0  0.20970245999999992  0.14900996999999996  0.5384503402060107  1.0000
  Au  Au20      1.0  0.99225956  0.56262032  0.5520435964612116  1.0000
  Au  Au21      1.0  0.10774044  0.3499999999999999  0.5109851860113024  1.0000
  Au  Au22      1.0  0.9092980999999999  0.7435788799999999  0.5246853022885747  1.0000
  Au  Au23      1.0  0.3077404399999999  0.95  0.49731891084790336  1.0000
  Au  Au24      1.0  0.7073351  0.14896587999999997  0.538459076372409  1.0000
  Au  Au25      1.0  0.5109266100000001  0.5628967599999999  0.5520672903657763  1.0000
  Au  Au26      1.0  0.70774044  0.6499999999999998  0.5041520484296029  1.0000
  Au  Au27      1.0  0.5077404399999998  0.04999999999999996  0.5178183235930018  1.0000
  Au  Au28      1.0  0.9077404399999999  0.24999999999999994  0.4904857732662039  1.0000
  Au  Au29      1.0  0.3129820499999999  0.44004234999999997  0.5320998886299448  1.0000
  Au  Au30      1.0  0.10039530999999992  0.8661119599999999  0.5443849133625791  1.0000
