data_image0
_chemical_formula_structural       COCu10In10Pd20
_chemical_formula_sum              "C1 O1 Cu10 In10 Pd20"
_cell_length_a       13.528141199832772
_cell_length_b       4.5093804
_cell_length_c       102.20341739
_cell_angle_alpha    90.0
_cell_angle_beta     81.95053302277972
_cell_angle_gamma    90.0

_space_group_name_H-M_alt    "P 1"
_space_group_IT_number       1

loop_
  _space_group_symop_operation_xyz
  'x, y, z'

loop_
  _atom_site_type_symbol
  _atom_site_label
  _atom_site_symmetry_multiplicity
  _atom_site_fract_x
  _atom_site_fract_y
  _atom_site_fract_z
  _atom_site_occupancy
  C   C1        1.0  0.946605045  9.999999998342181e-08  0.5513194523026489  1.0000
  O   O1        1.0  0.9453231449999999  2.0999999998342182e-07  0.5627416162115759  1.0000
  Cu  Cu1       1.0  0.983333335  1.399999999834218e-07  0.46351599901324714  1.0000
  Cu  Cu2       1.0  0.5166666649999999  1.399999999834218e-07  0.48452209308365396  1.0000
  Cu  Cu3       1.0  0.44999999499999993  1.399999999834218e-07  0.4425099049428404  1.0000
  Cu  Cu4       1.0  0.049999994999999936  1.399999999834218e-07  0.5055281840031468  1.0000
  Cu  Cu5       1.0  0.5824498149999999  2.399999999834218e-07  0.5261119075108938  1.0000
  Cu  Cu6       1.0  0.24999999499999995  0.5000001399999999  0.47401904447299353  1.0000
  Cu  Cu7       1.0  0.7833333349999999  0.5000001399999999  0.49502513854340036  1.0000
  Cu  Cu8       1.0  0.716666665  0.5000001399999999  0.45301295355350074  1.0000
  Cu  Cu9       1.0  0.31641221499999994  0.50000006  0.5165305674006835  1.0000
  Cu  Cu10      1.0  0.8572168149999999  0.5000000299999999  0.5343966622840082  1.0000
  In  In1       1.0  0.21666666499999993  1.399999999834218e-07  0.45301295355350074  1.0000
  In  In2       1.0  0.7499999949999998  1.399999999834218e-07  0.47401904447299353  1.0000
  In  In3       1.0  0.3557560449999999  2.299999999834218e-07  0.5369054703880222  1.0000
  In  In4       1.0  0.2833333349999999  1.399999999834218e-07  0.49502513854340036  1.0000
  In  In5       1.0  0.811800935  2.399999999834218e-07  0.5173569134903454  1.0000
  In  In6       1.0  0.01666666499999995  0.5000001399999999  0.48452209308365396  1.0000
  In  In7       1.0  0.549999995  0.5000001399999999  0.5055281840031468  1.0000
  In  In8       1.0  0.4833333349999999  0.5000001399999999  0.46351599901324714  1.0000
  In  In9       1.0  0.09256712499999994  0.49999991999999993  0.5269687859567606  1.0000
  In  In10      1.0  0.9499999949999999  0.5000001399999999  0.4425099049428403  1.0000
  Pd  Pd1       1.0  0.9736183749999998  0.99999989  0.5322123006388221  1.0000
  Pd  Pd2       1.0  0.833333335  1.399999999834218e-07  0.4477614292481706  1.0000
  Pd  Pd3       1.0  0.432572175  1.0999999999761201e-07  0.5104712684925303  1.0000
  Pd  Pd4       1.0  0.36666666499999995  1.399999999834218e-07  0.46876752331857735  1.0000
  Pd  Pd5       1.0  0.8999999949999998  1.399999999834218e-07  0.4897736142380702  1.0000
  Pd  Pd6       1.0  0.9328902349999999  0.5000002399999999  0.5102322307073126  1.0000
  Pd  Pd7       1.0  0.47179890499999994  0.5000002399999999  0.5310203855123313  1.0000
  Pd  Pd8       1.0  0.39999999499999994  0.5000001399999999  0.48977361423807014  1.0000
  Pd  Pd9       1.0  0.33333333499999995  0.5000001399999999  0.44776142924817053  1.0000
  Pd  Pd10      1.0  0.8666666649999999  0.5000001399999999  0.46876752331857735  1.0000
  Pd  Pd11      1.0  0.16666666499999996  0.5000001399999999  0.5002766628487306  1.0000
  Pd  Pd12      1.0  0.6954880349999999  0.50000027  0.5213341703821087  1.0000
  Pd  Pd13      1.0  0.6333333349999999  0.5000001399999999  0.4792705687783238  1.0000
  Pd  Pd14      1.0  0.566666665  0.5000001399999999  0.43725838378842413  1.0000
  Pd  Pd15      1.0  0.09999999499999994  0.5000001399999999  0.458264474707917  1.0000
  Pd  Pd16      1.0  0.13333333499999991  1.399999999834218e-07  0.4792705687783238  1.0000
  Pd  Pd17      1.0  0.6666666649999999  1.399999999834218e-07  0.5002766628487305  1.0000
  Pd  Pd18      1.0  0.599999995  1.399999999834218e-07  0.458264474707917  1.0000
  Pd  Pd19      1.0  0.20296335499999996  0.99999994  0.5211157490268857  1.0000
  Pd  Pd20      1.0  0.06666666499999996  1.399999999834218e-07  0.437258383788424  1.0000
