data_image0
_chemical_formula_structural       COSiSbPt5SiSbPt5SiSbPt5SiSbPt5
_chemical_formula_sum              "C1 O1 Si4 Sb4 Pt20"
_cell_length_a       7.24382701
_cell_length_b       8.05227822
_cell_length_c       98.18297377
_cell_angle_alpha    90.0
_cell_angle_beta     90.0
_cell_angle_gamma    90.0

_space_group_name_H-M_alt    "P 1"
_space_group_IT_number       1

loop_
  _space_group_symop_operation_xyz
  'x, y, z'

loop_
  _atom_site_type_symbol
  _atom_site_label
  _atom_site_symmetry_multiplicity
  _atom_site_fract_x
  _atom_site_fract_y
  _atom_site_fract_z
  _atom_site_occupancy
  C   C1        1.0  0.607632485  0.12024503000000003  0.5346970180246561  1.0000
  O   O1        1.0  0.656813285  0.12024533000000001  0.5460284750253988  1.0000
  Si  Si1       1.0  0.774732615  0.12024454000000001  0.49556654604204664  1.0000
  Sb  Sb1       1.0  0.256443275  0.38280312000000005  0.516250261721351  1.0000
  Pt  Pt1       1.0  0.5744842850000001  0.36073516  0.49536510330128547  1.0000
  Pt  Pt2       1.0  0.965568435  0.37319332000000005  0.4946629184219971  1.0000
  Pt  Pt3       1.0  0.517407025  0.12024493000000001  0.5167755117985573  1.0000
  Pt  Pt4       1.0  0.013672705000000028  0.12024521000000002  0.5135181174063188  1.0000
  Pt  Pt5       1.0  0.28284844500000006  0.12024534000000002  0.49431951736460755  1.0000
  Si  Si2       1.0  0.7728562250000002  0.12024490000000002  0.45397152497460125  1.0000
  Sb  Sb2       1.0  0.27285622500000006  0.3702449  0.4744747694521453  1.0000
  Pt  Pt6       1.0  0.571994695  0.3702449  0.45397152497460125  1.0000
  Pt  Pt7       1.0  0.9737177550000001  0.3702449  0.45397152497460125  1.0000
  Pt  Pt8       1.0  0.571994695  0.12024490000000002  0.4744747694521453  1.0000
  Pt  Pt9       1.0  0.9737177550000001  0.12024490000000002  0.4744747694521453  1.0000
  Pt  Pt10      1.0  0.27285622500000006  0.12024490000000002  0.45397152497460125  1.0000
  Si  Si3       1.0  0.7645754650000002  0.6202445700000001  0.49517121846665474  1.0000
  Sb  Sb3       1.0  0.25644024500000007  0.85768478  0.5162502157940825  1.0000
  Pt  Pt11      1.0  0.574484635  0.87975546  0.4953651147831026  1.0000
  Pt  Pt12      1.0  0.9655689550000002  0.86729408  0.49466323991287686  1.0000
  Pt  Pt13      1.0  0.5350831650000001  0.62024532  0.5139402636360886  1.0000
  Pt  Pt14      1.0  0.986327295  0.62024082  0.514451135607785  1.0000
  Pt  Pt15      1.0  0.27104964500000006  0.6202455500000001  0.4936165086649396  1.0000
  Si  Si4       1.0  0.7728562250000002  0.6202449  0.45397152497460125  1.0000
  Sb  Sb4       1.0  0.27285622500000006  0.8702449000000001  0.4744747694521453  1.0000
  Pt  Pt16      1.0  0.571994695  0.8702449000000001  0.45397152497460125  1.0000
  Pt  Pt17      1.0  0.9737177550000001  0.8702449000000001  0.45397152497460125  1.0000
  Pt  Pt18      1.0  0.571994695  0.6202449  0.4744747694521453  1.0000
  Pt  Pt19      1.0  0.9737177550000001  0.6202449  0.4744747694521453  1.0000
  Pt  Pt20      1.0  0.27285622500000006  0.6202449  0.45397152497460125  1.0000
