data_image0
_chemical_formula_structural       COPt4Rh12
_chemical_formula_sum              "C1 O1 Pt4 Rh12"
_cell_length_a       4.750413246789386
_cell_length_b       5.49615841
_cell_length_c       105.90469082999999
_cell_angle_alpha    90.0
_cell_angle_beta     92.68800189779716
_cell_angle_gamma    90.0

_space_group_name_H-M_alt    "P 1"
_space_group_IT_number       1

loop_
  _space_group_symop_operation_xyz
  'x, y, z'

loop_
  _atom_site_type_symbol
  _atom_site_label
  _atom_site_symmetry_multiplicity
  _atom_site_fract_x
  _atom_site_fract_y
  _atom_site_fract_z
  _atom_site_occupancy
  C   C1        1.0  0.79268884  0.85661164  0.5335732588104265  1.0000
  O   O1        1.0  0.7995756399999999  0.86451075  0.5448003719264162  1.0000
  Pt  Pt1       1.0  0.7200641099999999  0.62223052  0.45519962807358383  1.0000
  Pt  Pt2       1.0  0.4075641099999999  0.12223052000000001  0.4763888989102947  1.0000
  Pt  Pt3       1.0  0.7861409199999999  0.13180039000000002  0.5199265818458513  1.0000
  Pt  Pt4       1.0  0.09437813999999996  0.62313944  0.4971244955924  1.0000
  Rh  Rh1       1.0  0.90756411  0.8722305200000001  0.47638889891029473  1.0000
  Rh  Rh2       1.0  0.59480441  0.37146203  0.49744636231155126  1.0000
  Rh  Rh3       1.0  0.22006410999999995  0.37223052  0.45519962807358394  1.0000
  Rh  Rh4       1.0  0.2823398899999999  0.8777694799999999  0.5178869026351095  1.0000
  Rh  Rh5       1.0  0.90756411  0.37223052  0.47638889891029473  1.0000
  Rh  Rh6       1.0  0.59323752  0.8744439199999999  0.4972537738764872  1.0000
  Rh  Rh7       1.0  0.22006410999999995  0.8722305200000001  0.45519962807358394  1.0000
  Rh  Rh8       1.0  0.28220906999999995  0.37703849999999994  0.5179147233001472  1.0000
  Rh  Rh9       1.0  0.4075641099999999  0.62223052  0.4763888989102947  1.0000
  Rh  Rh10      1.0  0.09243588999999997  0.12472362000000001  0.4971260619033002  1.0000
  Rh  Rh11      1.0  0.7200641099999999  0.12223052000000001  0.45519962807358383  1.0000
  Rh  Rh12      1.0  0.7840147499999999  0.63053668  0.5189274721279253  1.0000
