data_image0
_chemical_formula_structural       COAs16Cu16Zn16
_chemical_formula_sum              "C1 O1 As16 Cu16 Zn16"
_cell_length_a       10.434905098361973
_cell_length_b       11.245679245379778
_cell_length_c       101.14822708
_cell_angle_alpha    92.31664414202626
_cell_angle_beta     96.5518282415241
_cell_angle_gamma    108.42354584766879

_space_group_name_H-M_alt    "P 1"
_space_group_IT_number       1

loop_
  _space_group_symop_operation_xyz
  'x, y, z'

loop_
  _atom_site_type_symbol
  _atom_site_label
  _atom_site_symmetry_multiplicity
  _atom_site_fract_x
  _atom_site_fract_y
  _atom_site_fract_z
  _atom_site_occupancy
  C   C1        1.0  0.6175761850000001  0.35784601999999993  0.5378245094110439  1.0000
  O   O1        1.0  0.630051775  0.35495473999999994  0.5493209934136863  1.0000
  As  As1       1.0  0.9464187450000002  0.43057753  0.4558746219300924  1.0000
  As  As2       1.0  0.446418745  0.8680775299999999  0.475121268645514  1.0000
  As  As3       1.0  0.8328760350000001  0.029927399999999986  0.46024525516798853  1.0000
  As  As4       1.0  0.33287603500000007  0.46742739999999994  0.4794919018834101  1.0000
  As  As5       1.0  0.1964187450000001  0.09355245999999999  0.4826736743728897  1.0000
  As  As6       1.0  0.6964187450000001  0.65605246  0.4634270276574682  1.0000
  As  As7       1.0  0.082876035  0.69290233  0.4870443076107858  1.0000
  As  As8       1.0  0.582876035  0.25540232999999996  0.46779766089536434  1.0000
  As  As9       1.0  0.9464187450000002  0.30557752999999993  0.49436791536093566  1.0000
  As  As10      1.0  0.4548690349999999  0.7536766499999998  0.5124027531661292  1.0000
  As  As11      1.0  0.8536685150000001  0.9158687799999998  0.500447838674433  1.0000
  As  As12      1.0  0.313056175  0.3437566799999999  0.5175381465222013  1.0000
  As  As13      1.0  0.21896474499999996  0.9700725999999998  0.5236363957228354  1.0000
  As  As14      1.0  0.6758684050000001  0.51428338  0.5028214306107466  1.0000
  As  As15      1.0  0.09322362500000005  0.55414453  0.529259314338868  1.0000
  As  As16      1.0  0.5979621850000002  0.14795292  0.507329454111556  1.0000
  Cu  Cu1       1.0  0.692636385  0.8648196899999998  0.47520957226064436  1.0000
  Cu  Cu2       1.0  0.19263638500000005  0.42731969  0.45596292554522283  1.0000
  Cu  Cu3       1.0  0.07990494500000005  0.03400090999999998  0.45782606869547204  1.0000
  Cu  Cu4       1.0  0.5799049450000001  0.47150091  0.4770727154108937  1.0000
  Cu  Cu5       1.0  0.9426363850000004  0.6541109  0.4631099876543813  1.0000
  Cu  Cu6       1.0  0.44263638500000013  0.0916109  0.482356634369803  1.0000
  Cu  Cu7       1.0  0.8299049450000001  0.24470969999999992  0.4699256533017351  1.0000
  Cu  Cu8       1.0  0.32990494500000006  0.8072096999999999  0.4506790065863135  1.0000
  Cu  Cu9       1.0  0.6600436250000001  0.72843864  0.5034927752044248  1.0000
  Cu  Cu10      1.0  0.19263638500000005  0.3023196899999999  0.4944562189760659  1.0000
  Cu  Cu11      1.0  0.09735455499999997  0.8945001399999999  0.500838564079537  1.0000
  Cu  Cu12      1.0  0.5631060950000001  0.34935483999999994  0.519450989133465  1.0000
  Cu  Cu13      1.0  0.07455662500000003  0.52551417  0.5044907584888397  1.0000
  Cu  Cu14      1.0  0.4063283850000001  0.95357746  0.5108358944351488  1.0000
  Cu  Cu15      1.0  0.843329265  0.13329182  0.509779161146568  1.0000
  Cu  Cu16      1.0  0.32990494500000006  0.6822097  0.48917230001715667  1.0000
  Zn  Zn1       1.0  0.583910195  0.03299963999999998  0.4605797095370235  1.0000
  Zn  Zn2       1.0  0.08391019500000005  0.47049964  0.4798263562524451  1.0000
  Zn  Zn3       1.0  0.950577075  0.08716612999999998  0.4849587902441183  1.0000
  Zn  Zn4       1.0  0.4505770750000001  0.64966613  0.4657121435286968  1.0000
  Zn  Zn5       1.0  0.8339101950000001  0.69710716  0.48702998502616607  1.0000
  Zn  Zn6       1.0  0.333910195  0.25960715999999995  0.46778333831074453  1.0000
  Zn  Zn7       1.0  0.20057707499999997  0.8762736499999998  0.47291576922295425  1.0000
  Zn  Zn8       1.0  0.7005770750000001  0.43877365  0.4536691225075327  1.0000
  Zn  Zn9       1.0  0.610017955  0.9331832599999997  0.4992450957046738  1.0000
  Zn  Zn10      1.0  0.062247545000000036  0.32742279999999996  0.5204751478574131  1.0000
  Zn  Zn11      1.0  0.049422925000000034  0.08690801999999997  0.5205395887100797  1.0000
  Zn  Zn12      1.0  0.4373885050000001  0.52939893  0.5067374118612723  1.0000
  Zn  Zn13      1.0  0.873507955  0.54192534  0.5188199270014964  1.0000
  Zn  Zn14      1.0  0.33615547500000004  0.14435599999999998  0.5086532877440583  1.0000
  Zn  Zn15      1.0  0.201725755  0.7449966299999999  0.5163909971065467  1.0000
  Zn  Zn16      1.0  0.7005770750000001  0.31377364999999996  0.4921624159383759  1.0000
