data_image0
_chemical_formula_structural       COCu5Ni5Sb10Cu5Ni5Sb10
_chemical_formula_sum              "C1 O1 Cu10 Ni10 Sb20"
_cell_length_a       10.96146003461292
_cell_length_b       6.6445243314821285
_cell_length_c       109.86714597
_cell_angle_alpha    65.36598452975159
_cell_angle_beta     83.23279537422292
_cell_angle_gamma    61.87853316927315

_space_group_name_H-M_alt    "P 1"
_space_group_IT_number       1

loop_
  _space_group_symop_operation_xyz
  'x, y, z'

loop_
  _atom_site_type_symbol
  _atom_site_label
  _atom_site_symmetry_multiplicity
  _atom_site_fract_x
  _atom_site_fract_y
  _atom_site_fract_z
  _atom_site_occupancy
  C   C1        1.0  0.594095635  0.30948419  0.5579569257022863  1.0000
  O   O1        1.0  0.6360278850000001  0.15428059  0.5688754660613415  1.0000
  Cu  Cu1       1.0  0.4274203150000001  0.84517378  0.43255495871849314  1.0000
  Cu  Cu2       1.0  0.827420315  0.64517378  0.4446505194163113  1.0000
  Cu  Cu3       1.0  0.027420315000000074  0.04517377999999999  0.48093720513843424  1.0000
  Cu  Cu4       1.0  0.22742031500000012  0.44517378  0.45674608374279796  1.0000
  Cu  Cu5       1.0  0.6274203150000001  0.24517378  0.4688416444406161  1.0000
  Ni  Ni1       1.0  0.3274203150000001  0.14517378  0.4446505194163113  1.0000
  Ni  Ni2       1.0  0.727420315  0.9451737800000001  0.456746083742798  1.0000
  Ni  Ni3       1.0  0.927420315  0.34517378  0.4325549587184931  1.0000
  Ni  Ni4       1.0  0.12742031500000006  0.74517378  0.46884164444061616  1.0000
  Ni  Ni5       1.0  0.527420315  0.54517378  0.48093720513843424  1.0000
  Sb  Sb1       1.0  0.5725796850000001  0.7430290100000001  0.4553156589629633  1.0000
  Sb  Sb2       1.0  0.9725796850000001  0.54302901  0.4674112196607814  1.0000
  Sb  Sb3       1.0  0.1725796850000001  0.94302901  0.4432200946364766  1.0000
  Sb  Sb4       1.0  0.37257968500000005  0.34302901  0.4795067803585996  1.0000
  Sb  Sb5       1.0  0.7725796850000001  0.14302901  0.43112453393865846  1.0000
  Sb  Sb6       1.0  0.282260945  0.9473185500000002  0.47027206922045084  1.0000
  Sb  Sb7       1.0  0.6822609450000001  0.74731855  0.48236762991826887  1.0000
  Sb  Sb8       1.0  0.882260945  0.14731855  0.4581765085226327  1.0000
  Sb  Sb9       1.0  0.08226094500000006  0.5473185500000001  0.43398538349832777  1.0000
  Sb  Sb10      1.0  0.4822609450000001  0.34731855  0.4460809441961459  1.0000
  Cu  Cu6       1.0  0.4274203150000001  0.84517378  0.493032769464921  1.0000
  Cu  Cu7       1.0  0.827420315  0.64517378  0.5051283301627391  1.0000
  Cu  Cu8       1.0  0.032902265000000076  0.12793792999999998  0.5348238152022499  1.0000
  Cu  Cu9       1.0  0.2261407350000001  0.44635368  0.517219888439122  1.0000
  Cu  Cu10      1.0  0.6059576050000001  0.24790787  0.5292704173599591  1.0000
  Ni  Ni6       1.0  0.3274203150000001  0.14517378  0.5051283301627392  1.0000
  Ni  Ni7       1.0  0.724201155  0.95482622  0.5164782284983163  1.0000
  Ni  Ni8       1.0  0.927420315  0.34517378  0.493032769464921  1.0000
  Ni  Ni9       1.0  0.12014044500000011  0.7677379999999999  0.5280322249264059  1.0000
  Ni  Ni10      1.0  0.5335405750000001  0.54019916  0.5411928542801969  1.0000
  Sb  Sb11      1.0  0.5765180449999999  0.7384723700000001  0.5161999676775246  1.0000
  Sb  Sb12      1.0  0.9557872949999999  0.5718676300000001  0.5316483745920441  1.0000
  Sb  Sb13      1.0  0.1725796850000001  0.94302901  0.5036979053829045  1.0000
  Sb  Sb14      1.0  0.35515802500000004  0.37573702  0.5397510354810455  1.0000
  Sb  Sb15      1.0  0.7725796850000001  0.14302901  0.4916023446850863  1.0000
  Sb  Sb16      1.0  0.292272735  0.93743978  0.5313065104685188  1.0000
  Sb  Sb17      1.0  0.676711585  0.7601007900000002  0.5421246455681811  1.0000
  Sb  Sb18      1.0  0.8672794750000001  0.16517465  0.5184754041364389  1.0000
  Sb  Sb19      1.0  0.08226094500000006  0.5473185500000001  0.49446319424475554  1.0000
  Sb  Sb20      1.0  0.4822609450000001  0.34731855  0.5065587549425737  1.0000
