data_image0
_chemical_formula_structural       V16Ga8Sn16CO
_chemical_formula_sum              "V16 Ga8 Sn16 C1 O1"
_cell_length_a       5.65768019
_cell_length_b       6.80781102
_cell_length_c       126.83346675
_cell_angle_alpha    90.0
_cell_angle_beta     90.0
_cell_angle_gamma    90.0

_space_group_name_H-M_alt    "P 1"
_space_group_IT_number       1

loop_
  _space_group_symop_operation_xyz
  'x, y, z'

loop_
  _atom_site_type_symbol
  _atom_site_label
  _atom_site_symmetry_multiplicity
  _atom_site_fract_x
  _atom_site_fract_y
  _atom_site_fract_z
  _atom_site_occupancy
  V   V1        1.0  0.028971104999999962  0.028188249999999998  0.4864947604001296  1.0000
  V   V2        1.0  0.028971104999999962  0.52818825  0.5392625981878958  1.0000
  V   V3        1.0  0.27897110499999994  0.25  0.5264565304794171  1.0000
  V   V4        1.0  0.7789711049999999  0.25  0.5264565304794171  1.0000
  V   V5        1.0  0.27897110499999994  0.75  0.4993008281086083  1.0000
  V   V6        1.0  0.528971105  0.97181175  0.5392625981878958  1.0000
  V   V7        1.0  0.528971105  0.47181175  0.4864947604001296  1.0000
  V   V8        1.0  0.7789711049999999  0.75  0.4993008281086083  1.0000
  V   V9        1.0  0.535260155  0.03568552  0.5595233074731281  1.0000
  V   V10       1.0  0.528971105  0.52818825  0.4645800645436104  1.0000
  V   V11       1.0  0.7789711049999999  0.25  0.45177399683513175  1.0000
  V   V12       1.0  0.27897110499999994  0.25  0.45177399683513175  1.0000
  V   V13       1.0  0.7789711049999999  0.75  0.424618294464323  1.0000
  V   V14       1.0  0.028971104999999962  0.97181175  0.4645800645436104  1.0000
  V   V15       1.0  0.029323784999999963  0.45218655  0.561110675732086  1.0000
  V   V16       1.0  0.27897110499999994  0.75  0.424618294464323  1.0000
  Ga  Ga1       1.0  0.7759939049999999  0.25595457  0.5472824715219303  1.0000
  Ga  Ga2       1.0  0.7789711049999999  0.75  0.4783654084485649  1.0000
  Ga  Ga3       1.0  0.27897110499999994  0.75  0.4783654084485649  1.0000
  Ga  Ga4       1.0  0.276539155  0.25014932  0.5471948868355253  1.0000
  Ga  Ga5       1.0  0.27897110499999994  0.25  0.47270941649517517  1.0000
  Ga  Ga6       1.0  0.285623315  0.73505468  0.5537283029480438  1.0000
  Ga  Ga7       1.0  0.7841200949999999  0.74257697  0.5533461449627757  1.0000
  Ga  Ga8       1.0  0.7789711049999999  0.25  0.47270941649517517  1.0000
  Sn  Sn1       1.0  0.528971105  0.42474788999999996  0.5086090647412799  1.0000
  Sn  Sn2       1.0  0.028971104999999962  0.9256258699999999  0.5335986391019761  1.0000
  Sn  Sn3       1.0  0.028971104999999962  0.07525211  0.5086090647412799  1.0000
  Sn  Sn4       1.0  0.028971104999999962  0.57525211  0.5171482938467457  1.0000
  Sn  Sn5       1.0  0.028971104999999962  0.42562586999999996  0.49215871948604917  1.0000
  Sn  Sn6       1.0  0.528971105  0.07437412999999998  0.49215871948604917  1.0000
  Sn  Sn7       1.0  0.528971105  0.5743741299999999  0.5335986391019761  1.0000
  Sn  Sn8       1.0  0.528971105  0.9247478899999999  0.5171482938467457  1.0000
  Sn  Sn9       1.0  0.028971104999999962  0.42474788999999996  0.43392653109699447  1.0000
  Sn  Sn10      1.0  0.528971105  0.9256258699999999  0.45891610545769085  1.0000
  Sn  Sn11      1.0  0.528971105  0.07525211  0.43392653109699447  1.0000
  Sn  Sn12      1.0  0.528971105  0.57525211  0.44246576020246026  1.0000
  Sn  Sn13      1.0  0.47839360499999994  0.40219329  0.5690062250548493  1.0000
  Sn  Sn14      1.0  0.02873722499999996  0.04892335  0.5660952776960441  1.0000
  Sn  Sn15      1.0  0.028971104999999962  0.5743741299999999  0.45891610545769085  1.0000
  Sn  Sn16      1.0  0.028971104999999962  0.9247478899999999  0.44246576020246026  1.0000
  C   C1        1.0  0.780821465  0.6034286899999999  0.5699421032318923  1.0000
  O   O1        1.0  0.971262775  0.60475111  0.575381705535677  1.0000
