data_image0
_chemical_formula_structural       COSi6Ni6Si6Ni6
_chemical_formula_sum              "C1 O1 Si12 Ni12"
_cell_length_a       4.75205233
_cell_length_b       6.922946722716838
_cell_length_c       101.4052016
_cell_angle_alpha    104.2979529769191
_cell_angle_beta     90.0
_cell_angle_gamma    90.0

_space_group_name_H-M_alt    "P 1"
_space_group_IT_number       1

loop_
  _space_group_symop_operation_xyz
  'x, y, z'

loop_
  _atom_site_type_symbol
  _atom_site_label
  _atom_site_symmetry_multiplicity
  _atom_site_fract_x
  _atom_site_fract_y
  _atom_site_fract_z
  _atom_site_occupancy
  C   C1        1.0  0.64430083  0.17005363499999998  0.5436717115084031  1.0000
  O   O1        1.0  0.64792449  0.292653935  0.5538693462362839  1.0000
  Si  Si1       1.0  0.15711271000000002  0.3346935749999999  0.4682520894046439  1.0000
  Si  Si2       1.0  0.15711271000000002  0.0013602449999999707  0.48299971419759624  1.0000
  Si  Si3       1.0  0.15711271000000002  0.6680269149999999  0.4535044646116917  1.0000
  Si  Si4       1.0  0.84462613  0.3346935749999999  0.4461306537637161  1.0000
  Si  Si5       1.0  0.84462613  0.0013602449999999707  0.46087827855666835  1.0000
  Si  Si6       1.0  0.84462613  0.6680269149999999  0.4756259002526195  1.0000
  Ni  Ni1       1.0  0.6577414500000001  0.3346935749999999  0.4682520894046439  1.0000
  Ni  Ni2       1.0  0.6577414500000001  0.0013602449999999707  0.48299971419759624  1.0000
  Ni  Ni3       1.0  0.6577414500000001  0.6680269149999999  0.4535044646116917  1.0000
  Ni  Ni4       1.0  0.34399739  0.3346935749999999  0.4461306537637161  1.0000
  Ni  Ni5       1.0  0.34399739  0.0013602449999999707  0.46087827855666835  1.0000
  Ni  Ni6       1.0  0.34399739  0.6680269149999999  0.4756259002526195  1.0000
  Si  Si7       1.0  0.15840571000000003  0.323471645  0.5122341746159427  1.0000
  Si  Si8       1.0  0.15537387000000003  0.942247065  0.5258641660573725  1.0000
  Si  Si9       1.0  0.15800882000000005  0.665648395  0.497893263486101  1.0000
  Si  Si10      1.0  0.84462613  0.3346935749999999  0.4903735250455717  1.0000
  Si  Si11      1.0  0.84352257  0.998639755  0.5059103214525084  1.0000
  Si  Si12      1.0  0.84184957  0.6389983249999999  0.5198508956444049  1.0000
  Ni  Ni7       1.0  0.66128829  0.31875315499999995  0.5116943239746219  1.0000
  Ni  Ni8       1.0  0.6562292  0.977241845  0.5281457855751577  1.0000
  Ni  Ni9       1.0  0.6649212800000001  0.664778935  0.4972225893263556  1.0000
  Ni  Ni10      1.0  0.34399739  0.3346935749999999  0.4903735250455717  1.0000
  Ni  Ni11      1.0  0.34294555  0.996104215  0.5053530439862699  1.0000
  Ni  Ni12      1.0  0.35168137  0.637376115  0.5186541494010177  1.0000
