data_image0
_chemical_formula_structural       COIn9Ni9In9Ni9In9Ni9In9Ni9
_chemical_formula_sum              "C1 O1 In36 Ni36"
_cell_length_a       14.112347448690409
_cell_length_b       8.8594184
_cell_length_c       102.00379579
_cell_angle_alpha    90.0
_cell_angle_beta     100.89339463596801
_cell_angle_gamma    90.0

_space_group_name_H-M_alt    "P 1"
_space_group_IT_number       1

loop_
  _space_group_symop_operation_xyz
  'x, y, z'

loop_
  _atom_site_type_symbol
  _atom_site_label
  _atom_site_symmetry_multiplicity
  _atom_site_fract_x
  _atom_site_fract_y
  _atom_site_fract_z
  _atom_site_occupancy
  C   C1        1.0  0.17738203999999996  0.124648295  0.5440125471139802  1.0000
  O   O1        1.0  0.16399102999999995  0.124648295  0.5552585542491809  1.0000
  In  In1       1.0  0.91362151  0.374659425  0.543213639733849  1.0000
  In  In2       1.0  0.5833333399999998  0.374648295  0.5086536941727007  1.0000
  In  In3       1.0  0.24973811999999995  0.376651825  0.526007006256072  1.0000
  In  In4       1.0  0.69337437  0.37394487500000007  0.5378471009628091  1.0000
  In  In5       1.0  0.36111110999999996  0.374648295  0.5028434894854833  1.0000
  In  In6       1.0  0.028493499999999967  0.3758396850000001  0.5206113545271432  1.0000
  In  In7       1.0  0.80261999  0.12464828500000001  0.513955079405264  1.0000
  In  In8       1.0  0.4711445299999999  0.12464831500000001  0.531932536408655  1.0000
  In  In9       1.0  0.13888888999999996  0.124648295  0.49703328479826575  1.0000
  Ni  Ni1       1.0  0.6349210599999998  0.12464828500000001  0.5240719342407814  1.0000
  Ni  Ni2       1.0  0.29876621  0.124648345  0.5382497690321566  1.0000
  Ni  Ni3       1.0  0.97222222  0.124648295  0.5057485918290919  1.0000
  Ni  Ni4       1.0  0.80397561  0.124648295  0.5392403971154636  1.0000
  Ni  Ni5       1.0  0.47222221999999997  0.124648295  0.5057485918290919  1.0000
  Ni  Ni6       1.0  0.13471729999999996  0.124648295  0.5254666140354693  1.0000
  Ni  Ni7       1.0  0.9642710899999999  0.124648295  0.5313364565180909  1.0000
  Ni  Ni8       1.0  0.6388888899999999  0.124648295  0.49703328479826575  1.0000
  Ni  Ni9       1.0  0.3051733499999999  0.12464828500000001  0.5139509661292868  1.0000
  In  In10      1.0  0.91666667  0.374648295  0.49122308011104837  1.0000
  In  In11      1.0  0.5833333399999998  0.374648295  0.4563618551252538  1.0000
  In  In12      1.0  0.24999999999999994  0.374648295  0.4737924691869062  1.0000
  In  In13      1.0  0.69444445  0.374648295  0.4854128754238308  1.0000
  In  In14      1.0  0.36111110999999996  0.374648295  0.45055165043803636  1.0000
  In  In15      1.0  0.027777779999999967  0.374648295  0.46798226449968877  1.0000
  In  In16      1.0  0.80555556  0.124648295  0.4621720598124712  1.0000
  In  In17      1.0  0.47222221999999997  0.124648295  0.4796026707366134  1.0000
  In  In18      1.0  0.13888888999999996  0.124648295  0.4447414457508189  1.0000
  Ni  Ni10      1.0  0.6388888899999999  0.124648295  0.47088736684329746  1.0000
  Ni  Ni11      1.0  0.3055555599999999  0.124648295  0.48831797776743957  1.0000
  Ni  Ni12      1.0  0.97222222  0.124648295  0.4534567527816451  1.0000
  Ni  Ni13      1.0  0.80555556  0.124648295  0.48831797776743957  1.0000
  Ni  Ni14      1.0  0.47222221999999997  0.124648295  0.4534567527816451  1.0000
  Ni  Ni15      1.0  0.13888888999999996  0.124648295  0.47088736684329746  1.0000
  Ni  Ni16      1.0  0.97222222  0.124648295  0.4796026707366134  1.0000
  Ni  Ni17      1.0  0.6388888899999999  0.124648295  0.4447414457508189  1.0000
  Ni  Ni18      1.0  0.3055555599999999  0.124648295  0.4621720598124712  1.0000
  In  In19      1.0  0.91362153  0.874637175  0.5432136303213181  1.0000
  In  In20      1.0  0.5833333399999998  0.8746482950000001  0.5086536941727007  1.0000
  In  In21      1.0  0.24973825999999993  0.8726447350000001  0.5260070313561542  1.0000
  In  In22      1.0  0.69337438  0.875351715  0.5378471135128502  1.0000
  In  In23      1.0  0.36111110999999996  0.8746482950000001  0.5028434894854833  1.0000
  In  In24      1.0  0.028493589999999968  0.873456905  0.5206113419771021  1.0000
  In  In25      1.0  0.80357709  0.6246483150000001  0.513854286887516  1.0000
  In  In26      1.0  0.47835116  0.6246482750000001  0.5323513940310479  1.0000
  In  In27      1.0  0.13888888999999996  0.6246482950000001  0.49703328479826575  1.0000
  Ni  Ni19      1.0  0.6391466799999999  0.6246483050000001  0.5239109015256554  1.0000
  Ni  Ni20      1.0  0.3088993  0.624648215  0.5374599039566526  1.0000
  Ni  Ni21      1.0  0.97222222  0.6246482950000001  0.5057485918290919  1.0000
  Ni  Ni22      1.0  0.8052242299999999  0.6246483050000001  0.5392155072464115  1.0000
  Ni  Ni23      1.0  0.47222221999999997  0.6246482950000001  0.5057485918290919  1.0000
  Ni  Ni24      1.0  0.13911188999999996  0.6246482950000001  0.5227933203638849  1.0000
  Ni  Ni25      1.0  0.9658142099999999  0.6246483150000001  0.5312223076190804  1.0000
  Ni  Ni26      1.0  0.6388888899999999  0.6246482950000001  0.49703328479826575  1.0000
  Ni  Ni27      1.0  0.3056462999999999  0.6246482950000001  0.5140094963835621  1.0000
  In  In28      1.0  0.91666667  0.8746482950000001  0.49122308011104837  1.0000
  In  In29      1.0  0.5833333399999998  0.8746482950000001  0.4563618551252538  1.0000
  In  In30      1.0  0.24999999999999994  0.8746482950000001  0.4737924691869062  1.0000
  In  In31      1.0  0.69444445  0.8746482950000001  0.4854128754238308  1.0000
  In  In32      1.0  0.36111110999999996  0.8746482950000001  0.45055165043803636  1.0000
  In  In33      1.0  0.027777779999999967  0.8746482950000001  0.46798226449968877  1.0000
  In  In34      1.0  0.80555556  0.6246482950000001  0.4621720598124712  1.0000
  In  In35      1.0  0.47222221999999997  0.6246482950000001  0.4796026707366134  1.0000
  In  In36      1.0  0.13888888999999996  0.6246482950000001  0.4447414457508189  1.0000
  Ni  Ni28      1.0  0.6388888899999999  0.6246482950000001  0.47088736684329746  1.0000
  Ni  Ni29      1.0  0.3055555599999999  0.6246482950000001  0.48831797776743957  1.0000
  Ni  Ni30      1.0  0.97222222  0.6246482950000001  0.4534567527816451  1.0000
  Ni  Ni31      1.0  0.80555556  0.6246482950000001  0.48831797776743957  1.0000
  Ni  Ni32      1.0  0.47222221999999997  0.6246482950000001  0.4534567527816451  1.0000
  Ni  Ni33      1.0  0.13888888999999996  0.6246482950000001  0.47088736684329746  1.0000
  Ni  Ni34      1.0  0.97222222  0.6246482950000001  0.4796026707366134  1.0000
  Ni  Ni35      1.0  0.6388888899999999  0.6246482950000001  0.4447414457508189  1.0000
  Ni  Ni36      1.0  0.3055555599999999  0.6246482950000001  0.4621720598124712  1.0000
