data_image0
_chemical_formula_structural       COV4Rh12V4Rh12
_chemical_formula_sum              "C1 O1 V8 Rh24"
_cell_length_a       6.951817226298417
_cell_length_b       5.439069445315535
_cell_length_c       111.71090333000001
_cell_angle_alpha    66.97095734428781
_cell_angle_beta     77.03916534437607
_cell_angle_gamma    66.97095729991558

_space_group_name_H-M_alt    "P 1"
_space_group_IT_number       1

loop_
  _space_group_symop_operation_xyz
  'x, y, z'

loop_
  _atom_site_type_symbol
  _atom_site_label
  _atom_site_symmetry_multiplicity
  _atom_site_fract_x
  _atom_site_fract_y
  _atom_site_fract_z
  _atom_site_occupancy
  C   C1        1.0  0.50153127  0.1315182399999999  0.5582193773314605  1.0000
  O   O1        1.0  0.5167052  0.0561051499999999  0.5694663732707329  1.0000
  V   V1        1.0  0.21879662  0.2535077899999999  0.5244471299255218  1.0000
  V   V2        1.0  0.71637779  0.2631203199999999  0.49282867262175195  1.0000
  V   V3        1.0  0.81243265  0.9247512299999999  0.5288669675972362  1.0000
  V   V4        1.0  0.29971113000000005  0.9297869799999998  0.49801454195842415  1.0000
  Rh  Rh1       1.0  0.03310302000000004  0.9438948500000001  0.5433796197005535  1.0000
  Rh  Rh2       1.0  0.54919195  0.93186371  0.5135398374414935  1.0000
  Rh  Rh3       1.0  0.80357542  0.43563797  0.5289649543830789  1.0000
  Rh  Rh4       1.0  0.30074949  0.4287486199999998  0.4980791595446679  1.0000
  Rh  Rh5       1.0  0.04743624000000003  0.43832011999999987  0.5433896935620862  1.0000
  Rh  Rh6       1.0  0.54919195  0.42874861999999997  0.5135398374414935  1.0000
  Rh  Rh7       1.0  0.9668969799999999  0.2610435899999999  0.5084185894248906  1.0000
  Rh  Rh8       1.0  0.48264556  0.2556488899999999  0.540413199789643  1.0000
  Rh  Rh9       1.0  0.21845311000000003  0.7629811799999999  0.5240808939053957  1.0000
  Rh  Rh10      1.0  0.71533943  0.7641586800000001  0.49276405503550824  1.0000
  Rh  Rh11      1.0  0.9668969799999999  0.7641586800000001  0.5084185894248905  1.0000
  Rh  Rh12      1.0  0.46783241000000003  0.7832727799999998  0.5388867969393727  1.0000
  V   V5        1.0  0.21637779000000004  0.26312031999999985  0.4617134603355441  1.0000
  V   V6        1.0  0.71637779  0.2631203199999999  0.43059824431551064  1.0000
  V   V7        1.0  0.7997111299999999  0.9297869799999998  0.4668993259383908  1.0000
  V   V8        1.0  0.29971113000000005  0.9297869799999998  0.43578411365218295  1.0000
  Rh  Rh13      1.0  0.04919195000000004  0.93186371  0.4824246251552856  1.0000
  Rh  Rh14      1.0  0.54919195  0.93186371  0.4513094128690778  1.0000
  Rh  Rh15      1.0  0.8007494900000001  0.4287486199999998  0.4669639435246345  1.0000
  Rh  Rh16      1.0  0.30074949  0.4287486199999998  0.4358487312384266  1.0000
  Rh  Rh17      1.0  0.04919195000000004  0.4287486199999999  0.4824246251552856  1.0000
  Rh  Rh18      1.0  0.54919195  0.42874861999999997  0.4513094128690778  1.0000
  Rh  Rh19      1.0  0.9668969799999999  0.2610435899999999  0.4461881611186493  1.0000
  Rh  Rh20      1.0  0.46689698  0.2610435899999999  0.4773033734048571  1.0000
  Rh  Rh21      1.0  0.21533943000000003  0.76415868  0.4616488390154749  1.0000
  Rh  Rh22      1.0  0.71533943  0.7641586800000001  0.43053362672926704  1.0000
  Rh  Rh23      1.0  0.9668969799999999  0.7641586800000001  0.44618816111864934  1.0000
  Rh  Rh24      1.0  0.46689698  0.7641586800000001  0.4773033734048571  1.0000
