data_image0
_chemical_formula_structural       COSi3Pd6Si3Pd6Si3Pd6Si3Pd6
_chemical_formula_sum              "C1 O1 Si12 Pd24"
_cell_length_a       6.576270992923798
_cell_length_b       7.07115504
_cell_length_c       109.45762595
_cell_angle_alpha    90.0
_cell_angle_beta     120.00000003559447
_cell_angle_gamma    90.0

_space_group_name_H-M_alt    "P 1"
_space_group_IT_number       1

loop_
  _space_group_symop_operation_xyz
  'x, y, z'

loop_
  _atom_site_type_symbol
  _atom_site_label
  _atom_site_symmetry_multiplicity
  _atom_site_fract_x
  _atom_site_fract_y
  _atom_site_fract_z
  _atom_site_occupancy
  C   C1        1.0  0.561624675  0.37936410499999995  0.5531722687977562  1.0000
  O   O1        1.0  0.678406375  0.379363615  0.5656354678184264  1.0000
  Si  Si1       1.0  0.37330662500000006  0.12936378499999995  0.4584756003281682  1.0000
  Si  Si2       1.0  0.706639965  0.12936378499999995  0.4384487590103771  1.0000
  Si  Si3       1.0  0.03997329500000004  0.37936378499999995  0.47850243804112813  1.0000
  Pd  Pd1       1.0  0.7746191749999999  0.12936378499999995  0.46255982715697164  1.0000
  Pd  Pd2       1.0  0.03997329500000004  0.12936378499999995  0.4343645321815736  1.0000
  Pd  Pd3       1.0  0.30532741500000005  0.12936378499999995  0.47850243804112813  1.0000
  Pd  Pd4       1.0  0.43385310499999996  0.37936378499999995  0.44208642296129635  1.0000
  Pd  Pd5       1.0  0.03997329500000004  0.37936378499999995  0.45483793637724884  1.0000
  Pd  Pd6       1.0  0.646093485  0.37936378499999995  0.4785024380411281  1.0000
  Si  Si4       1.0  0.36212735500000004  0.12369252499999996  0.5186441037905594  1.0000
  Si  Si5       1.0  0.706639965  0.12936378499999995  0.4985292793589192  1.0000
  Si  Si6       1.0  0.9916829749999999  0.37936379499999995  0.5373924232496311  1.0000
  Pd  Pd7       1.0  0.775580905  0.12063620499999995  0.5228550188052569  1.0000
  Pd  Pd8       1.0  0.03997329500000004  0.12936378499999995  0.4944450525301157  1.0000
  Pd  Pd9       1.0  0.29001564500000004  0.15384851499999996  0.5397958254586763  1.0000
  Pd  Pd10      1.0  0.43385310499999996  0.37936378499999995  0.5021669433098385  1.0000
  Pd  Pd11      1.0  0.008317025000000037  0.379363845  0.5139518320677294  1.0000
  Pd  Pd12      1.0  0.607354235  0.379363845  0.5355804548726788  1.0000
  Si  Si7       1.0  0.37330662500000006  0.6293637849999999  0.4584756003281682  1.0000
  Si  Si8       1.0  0.706639965  0.6293637849999999  0.4384487590103771  1.0000
  Si  Si9       1.0  0.03997329500000004  0.879363785  0.47850243804112813  1.0000
  Pd  Pd13      1.0  0.7746191749999999  0.6293637849999999  0.46255982715697164  1.0000
  Pd  Pd14      1.0  0.03997329500000004  0.6293637849999999  0.4343645321815736  1.0000
  Pd  Pd15      1.0  0.30532741500000005  0.6293637849999999  0.47850243804112813  1.0000
  Pd  Pd16      1.0  0.43385310499999996  0.879363785  0.44208642296129635  1.0000
  Pd  Pd17      1.0  0.03997329500000004  0.879363785  0.45483793637724884  1.0000
  Pd  Pd18      1.0  0.646093485  0.879363785  0.4785024380411281  1.0000
  Si  Si10      1.0  0.36212737500000003  0.6350350849999999  0.5186441073953906  1.0000
  Si  Si11      1.0  0.706639965  0.6293637849999999  0.4985292793589192  1.0000
  Si  Si12      1.0  0.04009068500000004  0.879363765  0.5389058935833058  1.0000
  Pd  Pd19      1.0  0.775580975  0.638091395  0.5228550260149192  1.0000
  Pd  Pd20      1.0  0.03997329500000004  0.6293637849999999  0.4944450525301157  1.0000
  Pd  Pd21      1.0  0.29001586500000004  0.6048788749999999  0.5397958506924943  1.0000
  Pd  Pd22      1.0  0.43385310499999996  0.879363785  0.5021669433098385  1.0000
  Pd  Pd23      1.0  0.05504638500000004  0.879363705  0.5160445122510713  1.0000
  Pd  Pd24      1.0  0.597213715  0.8793637950000001  0.5352973134100951  1.0000
