data_image0
_chemical_formula_structural       COSn6Au18
_chemical_formula_sum              "C1 O1 Sn6 Au18"
_cell_length_a       6.085491388831082
_cell_length_b       11.771535482761891
_cell_length_c       101.60181412
_cell_angle_alpha    81.50724383691723
_cell_angle_beta     112.65215702612727
_cell_angle_gamma    75.01991266328723

_space_group_name_H-M_alt    "P 1"
_space_group_IT_number       1

loop_
  _space_group_symop_operation_xyz
  'x, y, z'

loop_
  _atom_site_type_symbol
  _atom_site_label
  _atom_site_symmetry_multiplicity
  _atom_site_fract_x
  _atom_site_fract_y
  _atom_site_fract_z
  _atom_site_occupancy
  C   C1        1.0  0.7159813799999998  0.3516000600000001  0.5417355483040517  1.0000
  O   O1        1.0  0.70947508  0.41012471  0.5499089129867617  1.0000
  Sn  Sn1       1.0  0.6615107900000001  0.12991383000000004  0.47182296794988693  1.0000
  Sn  Sn2       1.0  0.6644319600000002  0.44834598000000003  0.4970851097326315  1.0000
  Sn  Sn3       1.0  0.6501514699999998  0.7775423200000002  0.5207021762933969  1.0000
  Sn  Sn4       1.0  0.3281774499999999  0.85213605  0.4761429116823358  1.0000
  Sn  Sn5       1.0  0.35288967  0.17717170000000004  0.5016284301345142  1.0000
  Sn  Sn6       1.0  0.3281774499999999  0.51880272  0.4502232492876427  1.0000
  Au  Au1       1.0  0.3230785299999999  0.01965254000000004  0.4500910870132381  1.0000
  Au  Au2       1.0  0.3230785299999999  0.3529858700000001  0.4760107494079312  1.0000
  Au  Au3       1.0  0.3528151099999999  0.65918231  0.5023178381493761  1.0000
  Au  Au4       1.0  0.8307269199999998  0.85043641  0.4764072362311449  1.0000
  Au  Au5       1.0  0.8754461500000001  0.11440933000000005  0.5115152730595773  1.0000
  Au  Au6       1.0  0.8307269199999998  0.51710308  0.45048757694681096  1.0000
  Au  Au7       1.0  0.8307269199999998  0.01965254000000004  0.4500910870132381  1.0000
  Au  Au8       1.0  0.83072692  0.3529858700000001  0.4760107494079312  1.0000
  Au  Au9       1.0  0.8512409199999998  0.6420488300000001  0.5041840070371082  1.0000
  Au  Au10      1.0  0.6495833399999998  0.9572997000000002  0.4964032318974861  1.0000
  Au  Au11      1.0  0.7397997300000001  0.2681209  0.5265915513111439  1.0000
  Au  Au12      1.0  0.66660971  0.6290640100000001  0.47195513022429153  1.0000
  Au  Au13      1.0  0.15896131999999996  0.13161347000000004  0.4715586434010778  1.0000
  Au  Au14      1.0  0.17745956999999996  0.45775841  0.49806504085216885  1.0000
  Au  Au15      1.0  0.1245538499999999  0.7869418400000002  0.5172877327839072  1.0000
  Au  Au16      1.0  0.1663418299999999  0.9803474600000001  0.499275679757865  1.0000
  Au  Au17      1.0  0.14648472999999998  0.2738840800000001  0.5190747959051255  1.0000
  Au  Au18      1.0  0.1589613199999999  0.6290640100000001  0.47195513022429153  1.0000
