data_image0
_chemical_formula_structural       COCo8Ga4Ni4Co8Ga4Ni4Co8Ga4Ni4Co8Ga4Ni4
_chemical_formula_sum              "C1 O1 Co32 Ga16 Ni16"
_cell_length_a       8.76458882343369
_cell_length_b       8.76458882
_cell_length_c       100.60467731
_cell_angle_alpha    90.0
_cell_angle_beta     90.0
_cell_angle_gamma    108.82072410721533

_space_group_name_H-M_alt    "P 1"
_space_group_IT_number       1

loop_
  _space_group_symop_operation_xyz
  'x, y, z'

loop_
  _atom_site_type_symbol
  _atom_site_label
  _atom_site_symmetry_multiplicity
  _atom_site_fract_x
  _atom_site_fract_y
  _atom_site_fract_z
  _atom_site_occupancy
  C   C1        1.0  0.28891421500000003  0.05530896499999991  0.5443849692003119  1.0000
  O   O1        1.0  0.315569635  0.03080487499999991  0.5557835224487079  1.0000
  Co  Co1       1.0  0.12550637499999998  0.4650504949999999  0.5307658000040324  1.0000
  Co  Co2       1.0  0.374527605  0.2154283949999999  0.5071947201668906  1.0000
  Co  Co3       1.0  0.378129135  0.22036802499999988  0.532017071556916  1.0000
  Co  Co4       1.0  0.12445660499999996  0.4663935949999999  0.507378017233781  1.0000
  Co  Co5       1.0  0.12428454499999997  0.46668058499999987  0.4822423901235474  1.0000
  Co  Co6       1.0  0.37428454499999997  0.21668058499999993  0.45689178275606823  1.0000
  Co  Co7       1.0  0.37428454499999997  0.21668058499999993  0.4822423901235474  1.0000
  Co  Co8       1.0  0.12428454499999997  0.46668058499999987  0.45689178275606823  1.0000
  Ga  Ga1       1.0  0.12863485499999996  0.2136472349999999  0.5206590113422999  1.0000
  Ga  Ga2       1.0  0.37428454499999997  0.46668058499999987  0.4949176953283234  1.0000
  Ga  Ga3       1.0  0.12428454499999997  0.21668058499999993  0.4695670849187713  1.0000
  Ga  Ga4       1.0  0.37428454499999997  0.46668058499999987  0.4442164775512922  1.0000
  Ni  Ni1       1.0  0.12428454499999997  0.21668058499999993  0.4949176953283234  1.0000
  Ni  Ni2       1.0  0.3761755349999999  0.46732056499999997  0.5202632346021748  1.0000
  Ni  Ni3       1.0  0.12428454499999997  0.21668058499999993  0.4442164775512922  1.0000
  Ni  Ni4       1.0  0.37428454499999997  0.46668058499999987  0.4695670849187713  1.0000
  Co  Co9       1.0  0.12314908499999996  0.9649248749999998  0.5320922016339398  1.0000
  Co  Co10      1.0  0.373726635  0.7184237450000001  0.5074728751542472  1.0000
  Co  Co11      1.0  0.373690685  0.7136613449999999  0.5310295842385095  1.0000
  Co  Co12      1.0  0.12605459499999996  0.9668543849999998  0.5072219771410225  1.0000
  Co  Co13      1.0  0.12428454499999997  0.966680585  0.4822423901235474  1.0000
  Co  Co14      1.0  0.37428454499999997  0.7166805849999998  0.45689178275606823  1.0000
  Co  Co15      1.0  0.37428454499999997  0.7166805849999998  0.4822423901235474  1.0000
  Co  Co16      1.0  0.12428454499999997  0.966680585  0.45689178275606823  1.0000
  Ga  Ga5       1.0  0.12451591499999998  0.7181092849999999  0.5206834726513394  1.0000
  Ga  Ga6       1.0  0.37428454499999997  0.9666805849999998  0.4949176953283234  1.0000
  Ga  Ga7       1.0  0.12428454499999997  0.7166805849999998  0.4695670849187713  1.0000
  Ga  Ga8       1.0  0.37428454499999997  0.9666805849999998  0.4442164775512922  1.0000
  Ni  Ni5       1.0  0.12428454499999997  0.7166805849999998  0.4949176953283234  1.0000
  Ni  Ni6       1.0  0.37530510499999997  0.9670345149999998  0.520838493649641  1.0000
  Ni  Ni7       1.0  0.12428454499999997  0.7166805849999998  0.4442164775512922  1.0000
  Ni  Ni8       1.0  0.37428454499999997  0.9666805849999998  0.4695670849187713  1.0000
  Co  Co17      1.0  0.6261424949999999  0.46843430499999994  0.5308981393060028  1.0000
  Co  Co18      1.0  0.875241625  0.21691622499999988  0.5073615961236958  1.0000
  Co  Co19      1.0  0.876850915  0.21648049499999994  0.5307319995308651  1.0000
  Co  Co20      1.0  0.6238740349999999  0.46695752499999993  0.5073568778684638  1.0000
  Co  Co21      1.0  0.624284545  0.466680585  0.4822423901235474  1.0000
  Co  Co22      1.0  0.874284545  0.21668058499999995  0.45689178275606823  1.0000
  Co  Co23      1.0  0.874284545  0.21668058499999995  0.4822423901235474  1.0000
  Co  Co24      1.0  0.624284545  0.466680585  0.45689178275606823  1.0000
  Ga  Ga9       1.0  0.6242758249999999  0.2182132249999999  0.5206006491716839  1.0000
  Ga  Ga10      1.0  0.874284545  0.466680585  0.4949176953283234  1.0000
  Ga  Ga11      1.0  0.624284545  0.21668058499999993  0.4695670849187713  1.0000
  Ga  Ga12      1.0  0.874284545  0.466680585  0.4442164775512922  1.0000
  Ni  Ni9       1.0  0.624284545  0.21668058499999993  0.4949176953283234  1.0000
  Ni  Ni10      1.0  0.875201765  0.4669908849999999  0.5204624417108853  1.0000
  Ni  Ni11      1.0  0.624284545  0.21668058499999993  0.4442164775512922  1.0000
  Ni  Ni12      1.0  0.874284545  0.466680585  0.4695670849187713  1.0000
  Co  Co25      1.0  0.6287541249999999  0.9691951249999999  0.5310050833825211  1.0000
  Co  Co26      1.0  0.8748955749999999  0.717622075  0.507373843509617  1.0000
  Co  Co27      1.0  0.874283325  0.7161855850000001  0.5309147064355922  1.0000
  Co  Co28      1.0  0.6232064749999999  0.9677908849999999  0.5074547991564469  1.0000
  Co  Co29      1.0  0.624284545  0.9666805849999998  0.4822423901235474  1.0000
  Co  Co30      1.0  0.874284545  0.7166805849999999  0.45689178275606823  1.0000
  Co  Co31      1.0  0.874284545  0.7166805849999999  0.4822423901235474  1.0000
  Co  Co32      1.0  0.624284545  0.9666805849999998  0.45689178275606823  1.0000
  Ga  Ga13      1.0  0.6244229649999999  0.7183420849999999  0.5206092095651222  1.0000
  Ga  Ga14      1.0  0.874284545  0.9666805849999998  0.4949176953283234  1.0000
  Ga  Ga15      1.0  0.624284545  0.7166805849999998  0.4695670849187713  1.0000
  Ga  Ga16      1.0  0.874284545  0.9666805849999998  0.4442164775512922  1.0000
  Ni  Ni13      1.0  0.624284545  0.7166805849999998  0.4949176953283234  1.0000
  Ni  Ni14      1.0  0.875429285  0.9659182549999998  0.5202882526105743  1.0000
  Ni  Ni15      1.0  0.624284545  0.7166805849999998  0.4442164775512922  1.0000
  Ni  Ni16      1.0  0.874284545  0.9666805849999998  0.4695670849187713  1.0000
