data_image0
_chemical_formula_structural       COAu8Pd24
_chemical_formula_sum              "C1 O1 Au8 Pd24"
_cell_length_a       6.98450385
_cell_length_b       5.70282352
_cell_length_c       109.51032029999999
_cell_angle_alpha    90.0
_cell_angle_beta     90.0
_cell_angle_gamma    90.0

_space_group_name_H-M_alt    "P 1"
_space_group_IT_number       1

loop_
  _space_group_symop_operation_xyz
  'x, y, z'

loop_
  _atom_site_type_symbol
  _atom_site_label
  _atom_site_symmetry_multiplicity
  _atom_site_fract_x
  _atom_site_fract_y
  _atom_site_fract_z
  _atom_site_occupancy
  C   C1        1.0  0.7452582400000001  0.12274748499999999  0.5574284650259812  1.0000
  O   O1        1.0  0.66700579  0.12275185499999999  0.5670090312318341  1.0000
  Au  Au1       1.0  0.16685008000000004  0.12274940499999999  0.493122776409627  1.0000
  Au  Au2       1.0  0.16648325000000005  0.622754525  0.538680409261243  1.0000
  Au  Au3       1.0  0.83027353  0.12275253499999998  0.5230050683607147  1.0000
  Au  Au4       1.0  0.50018341  0.622749405  0.5081557292219694  1.0000
  Au  Au5       1.0  0.83351675  0.12274940499999999  0.43299096876816584  1.0000
  Au  Au6       1.0  0.83351675  0.622749405  0.4780898235972846  1.0000
  Au  Au7       1.0  0.50018341  0.12274940499999999  0.46305687439285065  1.0000
  Au  Au8       1.0  0.16685008000000004  0.622749405  0.44802392158050824  1.0000
  Pd  Pd1       1.0  0.49557948  0.8730490949999999  0.5310142894428863  1.0000
  Pd  Pd2       1.0  0.16685008000000004  0.37274940500000003  0.5156722038241864  1.0000
  Pd  Pd3       1.0  0.83351675  0.8727494050000001  0.500639251011844  1.0000
  Pd  Pd4       1.0  0.8313662100000001  0.368249335  0.5455748515943898  1.0000
  Pd  Pd5       1.0  0.4955826099999999  0.372463885  0.5310145888992823  1.0000
  Pd  Pd6       1.0  0.16685008000000004  0.8727494050000001  0.5156722038241864  1.0000
  Pd  Pd7       1.0  0.83351675  0.37274940500000003  0.500639251011844  1.0000
  Pd  Pd8       1.0  0.8313546500000001  0.877252515  0.5455744402928338  1.0000
  Pd  Pd9       1.0  0.17019557000000002  0.122753685  0.538048245985424  1.0000
  Pd  Pd10      1.0  0.8308611800000001  0.622751355  0.5234829755134763  1.0000
  Pd  Pd11      1.0  0.50018341  0.12274940499999999  0.5081557292219694  1.0000
  Pd  Pd12      1.0  0.16685008000000004  0.622749405  0.493122776409627  1.0000
  Pd  Pd13      1.0  0.16685008000000004  0.8727494050000001  0.47057334899506764  1.0000
  Pd  Pd14      1.0  0.83351675  0.37274940500000003  0.45554039618272524  1.0000
  Pd  Pd15      1.0  0.50018341  0.8727494050000001  0.4405074469782912  1.0000
  Pd  Pd16      1.0  0.50018341  0.37274940500000003  0.48560630180741  1.0000
  Pd  Pd17      1.0  0.16685008000000004  0.37274940500000003  0.47057334899506764  1.0000
  Pd  Pd18      1.0  0.83351675  0.8727494050000001  0.45554039618272524  1.0000
  Pd  Pd19      1.0  0.50018341  0.37274940500000003  0.4405074469782912  1.0000
  Pd  Pd20      1.0  0.50018341  0.8727494050000001  0.48560630180741  1.0000
  Pd  Pd21      1.0  0.83351675  0.12274940499999999  0.4780898235972846  1.0000
  Pd  Pd22      1.0  0.50018341  0.622749405  0.46305687439285065  1.0000
  Pd  Pd23      1.0  0.16685008000000004  0.12274940499999999  0.44802392158050824  1.0000
  Pd  Pd24      1.0  0.83351675  0.622749405  0.43299096876816584  1.0000
