data_image0
_chemical_formula_structural       CONiPtNiPtNiPtNiPtNiPtNiPtNiPtNiPt
_chemical_formula_sum              "C1 O1 Ni8 Pt8"
_cell_length_a       5.46079288
_cell_length_b       5.46079288
_cell_length_c       99.14606528
_cell_angle_alpha    90.0
_cell_angle_beta     90.0
_cell_angle_gamma    90.0

_space_group_name_H-M_alt    "P 1"
_space_group_IT_number       1

loop_
  _space_group_symop_operation_xyz
  'x, y, z'

loop_
  _atom_site_type_symbol
  _atom_site_label
  _atom_site_symmetry_multiplicity
  _atom_site_fract_x
  _atom_site_fract_y
  _atom_site_fract_z
  _atom_site_occupancy
  C   C1        1.0  0.123092565  0.11441056999999998  0.5288502495568272  1.0000
  O   O1        1.0  0.122919075  0.11444026999999997  0.540830695555326  1.0000
  Ni  Ni1       1.0  0.12338374499999999  0.34343137999999995  0.5146117125645446  1.0000
  Pt  Pt1       1.0  0.37385649499999996  0.11452964999999996  0.49550270858715756  1.0000
  Ni  Ni2       1.0  0.12332809500000003  0.36443741999999996  0.47754249025749973  1.0000
  Pt  Pt2       1.0  0.3733280950000001  0.11443741999999997  0.4591693044446739  1.0000
  Ni  Ni3       1.0  0.123384165  0.8855894299999999  0.5146125298038496  1.0000
  Pt  Pt3       1.0  0.369543765  0.6143566699999999  0.4965130662434084  1.0000
  Ni  Ni4       1.0  0.12332809500000003  0.8644374199999999  0.47754249025749973  1.0000
  Pt  Pt4       1.0  0.3733280950000001  0.6144374199999999  0.4591693044446739  1.0000
  Ni  Ni5       1.0  0.623376605  0.36005756999999994  0.5133074045132567  1.0000
  Pt  Pt5       1.0  0.8729355849999999  0.11451128999999997  0.4955066213408083  1.0000
  Ni  Ni6       1.0  0.623328095  0.36443741999999996  0.47754249025749973  1.0000
  Pt  Pt6       1.0  0.8733280949999997  0.11443741999999997  0.4591693044446739  1.0000
  Ni  Ni7       1.0  0.623386625  0.8688317899999999  0.5133381626961623  1.0000
  Pt  Pt7       1.0  0.8770809249999999  0.6143775499999999  0.4965080834354159  1.0000
  Ni  Ni8       1.0  0.623328095  0.8644374199999999  0.47754249025749973  1.0000
  Pt  Pt8       1.0  0.8733280949999997  0.6144374199999999  0.4591693044446739  1.0000
