data_image0
_chemical_formula_structural       COPt12V4
_chemical_formula_sum              "C1 O1 Pt12 V4"
_cell_length_a       4.839169265583783
_cell_length_b       4.83916927
_cell_length_c       103.09054978
_cell_angle_alpha    90.0
_cell_angle_beta     90.0
_cell_angle_gamma    110.52204603420994

_space_group_name_H-M_alt    "P 1"
_space_group_IT_number       1

loop_
  _space_group_symop_operation_xyz
  'x, y, z'

loop_
  _atom_site_type_symbol
  _atom_site_label
  _atom_site_symmetry_multiplicity
  _atom_site_fract_x
  _atom_site_fract_y
  _atom_site_fract_z
  _atom_site_occupancy
  C   C1        1.0  0.23714258500000002  0.6203313500000001  0.550402969983963  1.0000
  O   O1        1.0  0.23972952500000003  0.5744056700000001  0.5615116641289706  1.0000
  Pt  Pt1       1.0  0.235791045  0.6930293800000003  0.5326134549731744  1.0000
  Pt  Pt2       1.0  0.7488868350000001  0.2584104500000001  0.5049389540789307  1.0000
  Pt  Pt3       1.0  0.689215625  0.2358934200000001  0.5310521440155805  1.0000
  Pt  Pt4       1.0  0.254287065  0.7517543000000001  0.5060376835088656  1.0000
  Pt  Pt5       1.0  0.7642089550000001  0.7641065800000002  0.5191276946505661  1.0000
  Pt  Pt6       1.0  0.24954347500000001  0.2584032300000001  0.49198588489052036  1.0000
  Pt  Pt7       1.0  0.24954347500000001  0.7584032300000001  0.4786114968331844  1.0000
  Pt  Pt8       1.0  0.749543475  0.2584032300000001  0.4518627239283653  1.0000
  Pt  Pt9       1.0  0.749543475  0.2584032300000001  0.4786114968331844  1.0000
  Pt  Pt10      1.0  0.24954347500000001  0.7584032300000001  0.4518627239283653  1.0000
  Pt  Pt11      1.0  0.749543475  0.7584032300000002  0.4652371087758484  1.0000
  Pt  Pt12      1.0  0.24954347500000001  0.2584032300000001  0.43848833587102937  1.0000
  V   V1        1.0  0.252011865  0.2394262900000001  0.5178667071577003  1.0000
  V   V2        1.0  0.749543475  0.7584032300000002  0.49198588489052036  1.0000
  V   V3        1.0  0.24954347500000001  0.2584032300000001  0.4652371087758484  1.0000
  V   V4        1.0  0.749543475  0.7584032300000002  0.43848833587102937  1.0000
