data_image0
_chemical_formula_structural       V3Os3V3Os3V3Os3V3Os3CO
_chemical_formula_sum              "V12 Os12 C1 O1"
_cell_length_a       6.04986392
_cell_length_b       6.763953484989389
_cell_length_c       40.05470138
_cell_angle_alpha    108.43494882292202
_cell_angle_beta     90.0
_cell_angle_gamma    90.0

_space_group_name_H-M_alt    "P 1"
_space_group_IT_number       1

loop_
  _space_group_symop_operation_xyz
  'x, y, z'

loop_
  _atom_site_type_symbol
  _atom_site_label
  _atom_site_symmetry_multiplicity
  _atom_site_fract_x
  _atom_site_fract_y
  _atom_site_fract_z
  _atom_site_occupancy
  V   V1        1.0  0.12636872  0.8409575550000001  0.521914806502119  1.0000
  V   V2        1.0  0.12097903  0.5023830250000001  0.5576249702964109  1.0000
  V   V3        1.0  0.12895722  0.15904244500000003  0.484534653732905  1.0000
  Os  Os1       1.0  0.37899901  0.7985020850000001  0.5665481377259988  1.0000
  Os  Os2       1.0  0.37903142000000006  0.4866579350000001  0.5030361118316419  1.0000
  Os  Os3       1.0  0.37905947000000006  0.169262265  0.5408469478174239  1.0000
  V   V4        1.0  0.12895722  0.8257091150000001  0.4133336973709521  1.0000
  V   V5        1.0  0.12895722  0.492375775  0.44893417181387807  1.0000
  V   V6        1.0  0.12895722  0.15904244500000003  0.3777332154519252  1.0000
  Os  Os4       1.0  0.37895722  0.8257091150000001  0.466734416511442  1.0000
  Os  Os5       1.0  0.37895722  0.492375775  0.3955334526733882  1.0000
  Os  Os6       1.0  0.37895722  0.15904244500000003  0.4311339345924151  1.0000
  V   V7        1.0  0.63152281  0.840913395  0.521932270673656  1.0000
  V   V8        1.0  0.63698442  0.502411325  0.5576155877898703  1.0000
  V   V9        1.0  0.62895722  0.15904244500000003  0.484534653732905  1.0000
  Os  Os7       1.0  0.8788762000000001  0.7977056850000002  0.5680421542396035  1.0000
  Os  Os8       1.0  0.87890644  0.49619050500000006  0.5028474972838223  1.0000
  Os  Os9       1.0  0.87902097  0.16254115500000002  0.5349125012163215  1.0000
  V   V10       1.0  0.62895722  0.8257091150000001  0.4133336973709521  1.0000
  V   V11       1.0  0.62895722  0.492375775  0.44893417181387807  1.0000
  V   V12       1.0  0.62895722  0.15904244500000003  0.3777332154519252  1.0000
  Os  Os10      1.0  0.8789572200000001  0.8257091150000001  0.466734416511442  1.0000
  Os  Os11      1.0  0.8789572200000001  0.492375775  0.3955334526733882  1.0000
  Os  Os12      1.0  0.8789572200000001  0.15904244500000003  0.4311339345924151  1.0000
  C   C1        1.0  0.37896302000000004  0.25511418500000005  0.5909851189843576  1.0000
  O   O1        1.0  0.37918462  0.316374825  0.6222667845480752  1.0000
