data_image0
_chemical_formula_structural       Al16Au32CO
_chemical_formula_sum              "Al16 Au32 C1 O1"
_cell_length_a       7.649872047328046
_cell_length_b       11.257133788291757
_cell_length_c       22.36214073
_cell_angle_alpha    117.35829121857893
_cell_angle_beta     113.83510505257804
_cell_angle_gamma    75.40205347233211

_space_group_name_H-M_alt    "P 1"
_space_group_IT_number       1

loop_
  _space_group_symop_operation_xyz
  'x, y, z'

loop_
  _atom_site_type_symbol
  _atom_site_label
  _atom_site_symmetry_multiplicity
  _atom_site_fract_x
  _atom_site_fract_y
  _atom_site_fract_z
  _atom_site_occupancy
  Al  Al1       1.0  0.8469250300000001  0.72589775  0.20648842667881054  1.0000
  Al  Al2       1.0  0.5720539200000001  0.5423853000000001  0.6361404418462719  1.0000
  Al  Al3       1.0  0.09692503000000001  0.97589775  0.3396315921889313  1.0000
  Al  Al4       1.0  0.34692503  0.22589775  0.47277475769905203  1.0000
  Al  Al5       1.0  0.69582145  0.7565707300000001  0.5205772016694169  1.0000
  Al  Al6       1.0  0.44582145  0.5065707300000001  0.38743403615929634  1.0000
  Al  Al7       1.0  0.9475063700000002  0.018978320000000024  0.6619027496504081  1.0000
  Al  Al8       1.0  0.19582145000000004  0.25657072999999997  0.2542908706491757  1.0000
  Al  Al9       1.0  0.041279130000000025  0.6611130500000001  0.43827218690910485  1.0000
  Al  Al10      1.0  0.79127913  0.4111130500000001  0.30512902139898423  1.0000
  Al  Al11      1.0  0.29127913  0.9111130500000001  0.5714153524192254  1.0000
  Al  Al12      1.0  0.51296341  0.16207007  0.6936533257694337  1.0000
  Al  Al13      1.0  0.5014673500000001  0.8213554300000001  0.2887934414391228  1.0000
  Al  Al14      1.0  0.20056967000000003  0.59672431  0.6824245637629723  1.0000
  Al  Al15      1.0  0.7514673500000001  0.07135543000000001  0.4219366069492435  1.0000
  Al  Al16      1.0  0.0014673500000002004  0.32135543000000005  0.5550797724593641  1.0000
  Au  Au1       1.0  0.6347754600000001  0.67773123  0.37077782615398003  1.0000
  Au  Au2       1.0  0.38477546  0.42773123  0.23763466064385938  1.0000
  Au  Au3       1.0  0.8847754600000002  0.92773123  0.5039209916641009  1.0000
  Au  Au4       1.0  0.13167167000000005  0.20232498000000004  0.6471170839545236  1.0000
  Au  Au5       1.0  0.07699019000000001  0.51740639  0.30603560919012246  1.0000
  Au  Au6       1.0  0.7952112000000001  0.26185387  0.6995686742354369  1.0000
  Au  Au7       1.0  0.32699019  0.76740639  0.4391787747002431  1.0000
  Au  Au8       1.0  0.57699019  0.017406390000000025  0.5723219402103636  1.0000
  Au  Au9       1.0  0.46575629000000013  0.96506209  0.4210300191581052  1.0000
  Au  Au10      1.0  0.21575629000000002  0.7150620900000001  0.2878868536479844  1.0000
  Au  Au11      1.0  0.7157562900000002  0.21506209000000004  0.554173184668226  1.0000
  Au  Au12      1.0  0.9303077200000002  0.46232695000000007  0.6789486750268988  1.0000
  Au  Au13      1.0  0.7066228900000001  0.9741954899999999  0.28302265449650404  1.0000
  Au  Au14      1.0  0.43413719000000006  0.75903268  0.7169925983845377  1.0000
  Au  Au15      1.0  0.9566228900000001  0.22419549000000003  0.4161658200066246  1.0000
  Au  Au16      1.0  0.20662289000000003  0.47419549  0.5493089855167453  1.0000
  Au  Au17      1.0  0.18266866000000007  0.37983803000000005  0.39628443517161743  1.0000
  Au  Au18      1.0  0.9326686600000001  0.12983803000000002  0.26314126966149687  1.0000
  Au  Au19      1.0  0.43266866000000004  0.62983803  0.529427600681738  1.0000
  Au  Au20      1.0  0.64619582  0.8709497599999999  0.6676404744821673  1.0000
  Au  Au21      1.0  0.36007782  0.10263045000000001  0.3307811931766102  1.0000
  Au  Au22      1.0  0.11007782000000003  0.8526304499999999  0.19763802766648952  1.0000
  Au  Au23      1.0  0.6100778200000002  0.35263045  0.46392435868673104  1.0000
  Au  Au24      1.0  0.84635402  0.6234502900000001  0.6040100562075854  1.0000
  Au  Au25      1.0  0.83612359  0.50827299  0.44404297385172364  1.0000
  Au  Au26      1.0  0.58612359  0.25827299  0.31089980834160313  1.0000
  Au  Au27      1.0  0.08377938000000004  0.7673827000000001  0.5862543818958463  1.0000
  Au  Au28      1.0  0.32406822  0.01278732000000002  0.706261706605458  1.0000
  Au  Au29      1.0  0.9079710200000001  0.8047372500000001  0.35628780219424766  1.0000
  Au  Au30      1.0  0.65797102  0.5547372500000001  0.22314463668412704  1.0000
  Au  Au31      1.0  0.15797102000000005  0.054737250000000015  0.48943096770436817  1.0000
  Au  Au32      1.0  0.40652569000000005  0.36563421  0.6529946197615217  1.0000
  C   C1        1.0  0.9268967800000001  0.9741663500000001  0.7422828337810412  1.0000
  O   O1        1.0  0.99853265  0.98721268  0.8023619723335111  1.0000
