data_image0
_chemical_formula_structural       COGa16Au16
_chemical_formula_sum              "C1 O1 Ga16 Au16"
_cell_length_a       9.769362988603945
_cell_length_b       7.394822341288325
_cell_length_c       109.13665307
_cell_angle_alpha    67.6726688821625
_cell_angle_beta     81.66900782840042
_cell_angle_gamma    67.88498339695937

_space_group_name_H-M_alt    "P 1"
_space_group_IT_number       1

loop_
  _space_group_symop_operation_xyz
  'x, y, z'

loop_
  _atom_site_type_symbol
  _atom_site_label
  _atom_site_symmetry_multiplicity
  _atom_site_fract_x
  _atom_site_fract_y
  _atom_site_fract_z
  _atom_site_occupancy
  C   C1        1.0  0.71589067  0.5914729599999999  0.5420838696662574  1.0000
  O   O1        1.0  0.6790045600000001  0.5855185199999999  0.5527641645259006  1.0000
  Ga  Ga1       1.0  0.42950373000000003  0.03401847000000002  0.5017239930318936  1.0000
  Ga  Ga2       1.0  0.16743122999999996  0.78776572  0.5233952721841019  1.0000
  Ga  Ga3       1.0  0.68024279  0.28201717000000004  0.4777664916356988  1.0000
  Ga  Ga4       1.0  0.93024279  0.5320171699999999  0.4553538488794095  1.0000
  Ga  Ga5       1.0  0.06520903999999997  0.44414487999999996  0.5212206075246761  1.0000
  Ga  Ga6       1.0  0.81975721  0.21139933000000005  0.4516253676950214  1.0000
  Ga  Ga7       1.0  0.31975721  0.71139933  0.4964506532076  1.0000
  Ga  Ga8       1.0  0.56975721  0.96139933  0.47403801045131067  1.0000
  Ga  Ga9       1.0  0.71319857  0.48855669999999995  0.5052963961581498  1.0000
  Ga  Ga10      1.0  0.40749941999999995  0.30124710000000005  0.5258570983805898  1.0000
  Ga  Ga11      1.0  0.9792055000000001  0.7330544600000001  0.48215602385662093  1.0000
  Ga  Ga12      1.0  0.2292055  0.98305446  0.4597433811003316  1.0000
  Ga  Ga13      1.0  0.7692325600000001  0.016945540000000026  0.5144754276575655  1.0000
  Ga  Ga14      1.0  0.5207945  0.76036204  0.44723583547409923  1.0000
  Ga  Ga15      1.0  0.020794499999999952  0.26036204  0.492061120986678  1.0000
  Ga  Ga16      1.0  0.2707945  0.51036204  0.46964847823038863  1.0000
  Au  Au1       1.0  0.76841873  0.5964603399999999  0.5235626641442973  1.0000
  Au  Au2       1.0  0.5295457699999999  0.34599461  0.45648195787484735  1.0000
  Au  Au3       1.0  0.031545579999999976  0.82020233  0.5024391069487787  1.0000
  Au  Au4       1.0  0.27954577  0.09599461000000004  0.47889460063113676  1.0000
  Au  Au5       1.0  0.72045423  0.8974218899999999  0.4953225442121621  1.0000
  Au  Au6       1.0  0.4534734  0.65772096  0.5186905644156838  1.0000
  Au  Au7       1.0  0.9704542300000001  0.14742189000000003  0.4729099014558727  1.0000
  Au  Au8       1.0  0.22045422999999997  0.39742188999999994  0.45049725869958335  1.0000
  Au  Au9       1.0  0.9562702099999999  0.17329308000000004  0.5179481859671387  1.0000
  Au  Au10      1.0  0.71662209  0.90891829  0.4508408140318432  1.0000
  Au  Au11      1.0  0.21662208999999993  0.40891829  0.49566609954442187  1.0000
  Au  Au12      1.0  0.46662209000000004  0.65891829  0.4732534567881326  1.0000
  Au  Au13      1.0  0.53313224  0.33016937  0.5011486981455795  1.0000
  Au  Au14      1.0  0.2667089899999999  0.07404086000000003  0.5246977874004123  1.0000
  Au  Au15      1.0  0.78337791  0.5844982099999999  0.478551045298877  1.0000
  Au  Au16      1.0  0.033377909999999976  0.8344982099999998  0.4561384025425877  1.0000
