data_image0
_chemical_formula_structural       COGa12Ni20
_chemical_formula_sum              "C1 O1 Ga12 Ni20"
_cell_length_a       5.117512770520302
_cell_length_b       10.909981408469339
_cell_length_c       98.35632412
_cell_angle_alpha    89.10133388129857
_cell_angle_beta     87.79268115896889
_cell_angle_gamma    84.25471473944073

_space_group_name_H-M_alt    "P 1"
_space_group_IT_number       1

loop_
  _space_group_symop_operation_xyz
  'x, y, z'

loop_
  _atom_site_type_symbol
  _atom_site_label
  _atom_site_symmetry_multiplicity
  _atom_site_fract_x
  _atom_site_fract_y
  _atom_site_fract_z
  _atom_site_occupancy
  C   C1        1.0  0.2667112  0.94881756  0.5316670402930476  1.0000
  O   O1        1.0  0.2675095599999999  0.90803893  0.5430889107505895  1.0000
  Ga  Ga1       1.0  0.8759961500000001  0.88735471  0.49396651826918353  1.0000
  Ga  Ga2       1.0  0.9346498700000002  0.31440586000000004  0.5135340472472678  1.0000
  Ga  Ga3       1.0  0.3271239299999999  0.52285045  0.5188556378440735  1.0000
  Ga  Ga4       1.0  0.31419696  0.08271467  0.5009111597044931  1.0000
  Ga  Ga5       1.0  0.592256  0.72211925  0.5100250141540159  1.0000
  Ga  Ga6       1.0  0.6772317699999999  0.13164900000000002  0.5261948609170238  1.0000
  Ga  Ga7       1.0  0.8759961500000001  0.012354710000000019  0.4579287693322115  1.0000
  Ga  Ga8       1.0  0.8759961500000001  0.44985471  0.47594764380069743  1.0000
  Ga  Ga9       1.0  0.31319985  0.64113133  0.48382556491079753  1.0000
  Ga  Ga10      1.0  0.3131998499999999  0.20363133000000005  0.46580669044231154  1.0000
  Ga  Ga11      1.0  0.594598  0.8267430200000001  0.47087716712150457  1.0000
  Ga  Ga12      1.0  0.594598  0.26424302000000005  0.4888960415899905  1.0000
  Ni  Ni1       1.0  0.36967852999999995  0.86264529  0.4929488381863826  1.0000
  Ni  Ni2       1.0  0.4270883999999999  0.30072143000000007  0.5124163148413382  1.0000
  Ni  Ni3       1.0  0.82819722  0.53507055  0.51778414907758  1.0000
  Ni  Ni4       1.0  0.8209560499999999  0.10490305000000003  0.5022169197862562  1.0000
  Ni  Ni5       1.0  0.09558733999999998  0.7018233700000001  0.506420760679013  1.0000
  Ni  Ni6       1.0  0.18517350999999999  0.12186680000000003  0.5242327063931028  1.0000
  Ni  Ni7       1.0  0.06535012999999996  0.9246158100000001  0.5160091775046574  1.0000
  Ni  Ni8       1.0  0.10986538000000001  0.47834860000000007  0.4975943807942701  1.0000
  Ni  Ni9       1.0  0.6089767700000001  0.47838682  0.49742863021331946  1.0000
  Ni  Ni10      1.0  0.5454916099999999  0.94233098  0.5166451342186382  1.0000
  Ni  Ni11      1.0  0.36967852999999995  0.98764529  0.45691108924941065  1.0000
  Ni  Ni12      1.0  0.36967852999999995  0.42514529  0.47492996371789664  1.0000
  Ni  Ni13      1.0  0.8195174700000001  0.66584075  0.4848432449935984  1.0000
  Ni  Ni14      1.0  0.8195174700000001  0.22834075000000004  0.46682437052511244  1.0000
  Ni  Ni15      1.0  0.09459799999999993  0.8267430200000001  0.47087716712150457  1.0000
  Ni  Ni16      1.0  0.09459799999999997  0.26424302000000005  0.4888960415899905  1.0000
  Ni  Ni17      1.0  0.09459799999999997  0.04549302000000002  0.47988660435574754  1.0000
  Ni  Ni18      1.0  0.09459799999999999  0.60799302  0.4618677298872616  1.0000
  Ni  Ni19      1.0  0.594598  0.60799302  0.4618677298872616  1.0000
  Ni  Ni20      1.0  0.594598  0.04549302000000002  0.47988660435574754  1.0000
