data_image0
_chemical_formula_structural       COAl2Cu2Al2Cu2Al2Cu2Al2Cu2Al2Cu2Al2Cu2Al2Cu2Al2Cu2
_chemical_formula_sum              "C1 O1 Al16 Cu16"
_cell_length_a       6.04030342
_cell_length_b       8.54227902
_cell_length_c       99.89797656
_cell_angle_alpha    90.0
_cell_angle_beta     90.0
_cell_angle_gamma    90.0

_space_group_name_H-M_alt    "P 1"
_space_group_IT_number       1

loop_
  _space_group_symop_operation_xyz
  'x, y, z'

loop_
  _atom_site_type_symbol
  _atom_site_label
  _atom_site_symmetry_multiplicity
  _atom_site_fract_x
  _atom_site_fract_y
  _atom_site_fract_z
  _atom_site_occupancy
  C   C1        1.0  0.12240102999999997  0.6245078  0.5379096363783095  1.0000
  O   O1        1.0  0.12240181999999994  0.6245060299999999  0.5495255976767982  1.0000
  Al  Al1       1.0  0.12240347999999995  0.37450746  0.45047440232320185  1.0000
  Al  Al2       1.0  0.12240347999999995  0.12450745999999999  0.4718519095071604  1.0000
  Cu  Cu1       1.0  0.37240347999999995  0.37450746  0.4718519095071604  1.0000
  Cu  Cu2       1.0  0.37240347999999995  0.12450745999999999  0.45047440232320185  1.0000
  Al  Al3       1.0  0.12240653999999995  0.37509782999999997  0.49394466619588506  1.0000
  Al  Al4       1.0  0.12241546999999996  0.1245076  0.5162563499400592  1.0000
  Cu  Cu3       1.0  0.37532815999999997  0.37353478  0.515057991423431  1.0000
  Cu  Cu4       1.0  0.36720744999999994  0.12450245999999998  0.49338707709240426  1.0000
  Al  Al5       1.0  0.12240347999999995  0.8745074599999999  0.45047440232320185  1.0000
  Al  Al6       1.0  0.12240347999999995  0.62450746  0.4718519095071604  1.0000
  Cu  Cu5       1.0  0.37240347999999995  0.8745074599999999  0.4718519095071604  1.0000
  Cu  Cu6       1.0  0.37240347999999995  0.62450746  0.45047440232320185  1.0000
  Al  Al7       1.0  0.12240778999999996  0.8739141899999999  0.49394502533801293  1.0000
  Al  Al8       1.0  0.12239208999999995  0.62451016  0.5174460860527673  1.0000
  Cu  Cu7       1.0  0.37533459999999996  0.8754852999999999  0.5150585750293888  1.0000
  Cu  Cu8       1.0  0.3734855699999999  0.62450617  0.49428527359710905  1.0000
  Al  Al9       1.0  0.6224034799999999  0.37450746  0.45047440232320185  1.0000
  Al  Al10      1.0  0.6224034799999999  0.12450745999999999  0.4718519095071604  1.0000
  Cu  Cu9       1.0  0.8724034799999999  0.37450746  0.4718519095071604  1.0000
  Cu  Cu10      1.0  0.8724034799999999  0.12450745999999999  0.45047440232320185  1.0000
  Al  Al11      1.0  0.6224043399999999  0.37392708  0.493920717401658  1.0000
  Al  Al12      1.0  0.6223940899999999  0.12451008999999999  0.5158975908971222  1.0000
  Cu  Cu11      1.0  0.8694909299999999  0.37352106  0.515056671576111  1.0000
  Cu  Cu12      1.0  0.87760791  0.12450544999999999  0.49338924391657574  1.0000
  Al  Al13      1.0  0.6224034799999999  0.8745074599999999  0.45047440232320185  1.0000
  Al  Al14      1.0  0.6224034799999999  0.62450746  0.4718519095071604  1.0000
  Cu  Cu13      1.0  0.8724034799999999  0.8745074599999999  0.4718519095071604  1.0000
  Cu  Cu14      1.0  0.8724034799999999  0.62450746  0.45047440232320185  1.0000
  Al  Al15      1.0  0.6224027299999999  0.8750844  0.4939207892300836  1.0000
  Al  Al16      1.0  0.6224331699999999  0.6245078  0.5171631987771947  1.0000
  Cu  Cu15      1.0  0.86948246  0.87549754  0.5150574916173031  1.0000
  Cu  Cu16      1.0  0.8713225099999999  0.62450346  0.4942828613591501  1.0000
