data_image0
_chemical_formula_structural       COAl20Cu10Al20Cu10
_chemical_formula_sum              "C1 O1 Al40 Cu20"
_cell_length_a       12.366364419305036
_cell_length_b       8.24424294
_cell_length_c       108.88801621
_cell_angle_alpha    90.0
_cell_angle_beta     87.97513171320787
_cell_angle_gamma    90.0

_space_group_name_H-M_alt    "P 1"
_space_group_IT_number       1

loop_
  _space_group_symop_operation_xyz
  'x, y, z'

loop_
  _atom_site_type_symbol
  _atom_site_label
  _atom_site_symmetry_multiplicity
  _atom_site_fract_x
  _atom_site_fract_y
  _atom_site_fract_z
  _atom_site_occupancy
  C   C1        1.0  0.47423134999999994  0.12499923  0.546246463194563  1.0000
  O   O1        1.0  0.49854377999999994  0.12499832000000002  0.5564480160245129  1.0000
  Al  Al1       1.0  0.08164027999999998  0.12500183  0.5211873997026285  1.0000
  Al  Al2       1.0  0.87208206  0.12500168  0.45248042660020166  1.0000
  Al  Al3       1.0  0.5207149600000001  0.12500338  0.5067719112353543  1.0000
  Al  Al4       1.0  0.42208206  0.12500168  0.47033731184963135  1.0000
  Al  Al5       1.0  0.97208206  0.12500168  0.4881941970990609  1.0000
  Al  Al6       1.0  0.015417939999999982  0.37518767000000003  0.5062801290442078  1.0000
  Al  Al7       1.0  0.57821641  0.37539896  0.5235393300588309  1.0000
  Al  Al8       1.0  0.4720820599999999  0.37500168000000006  0.4881941970990609  1.0000
  Al  Al9       1.0  0.37208206  0.37500168000000006  0.45248042660020177  1.0000
  Al  Al10      1.0  0.92208206  0.37500168000000006  0.47033731184963135  1.0000
  Al  Al11      1.0  0.24708205999999996  0.37500168000000006  0.4971226397237758  1.0000
  Al  Al12      1.0  0.79266915  0.3753937500000001  0.5150294099678381  1.0000
  Al  Al13      1.0  0.69708206  0.37500168000000006  0.47926575447434616  1.0000
  Al  Al14      1.0  0.5970820600000001  0.37500168000000006  0.4435519839754869  1.0000
  Al  Al15      1.0  0.14708206  0.37500168000000006  0.46140886922491653  1.0000
  Al  Al16      1.0  0.19708205999999998  0.12500168  0.47926575447434605  1.0000
  Al  Al17      1.0  0.74708206  0.12500168  0.49712263972377574  1.0000
  Al  Al18      1.0  0.64708206  0.12500168  0.46140886922491653  1.0000
  Al  Al19      1.0  0.30459752999999995  0.12500053000000003  0.5151999575074784  1.0000
  Al  Al20      1.0  0.09708205999999998  0.12500168  0.44355198397548695  1.0000
  Cu  Cu1       1.0  0.25958205999999995  0.12500168  0.4569446479125592  1.0000
  Cu  Cu2       1.0  0.80958206  0.12500168  0.4748015331619887  1.0000
  Cu  Cu3       1.0  0.46890357  0.12500378  0.5290924749478297  1.0000
  Cu  Cu4       1.0  0.35958206  0.12500168  0.4926584184114183  1.0000
  Cu  Cu5       1.0  0.90583043  0.12500198  0.5108228456527447  1.0000
  Cu  Cu6       1.0  0.08458205999999997  0.37500168000000006  0.48372997578670357  1.0000
  Cu  Cu7       1.0  0.6325984099999999  0.37512265  0.5012434731327866  1.0000
  Cu  Cu8       1.0  0.53458206  0.37500168000000006  0.465873090537274  1.0000
  Cu  Cu9       1.0  0.18946405999999996  0.37537434000000003  0.5192677773955607  1.0000
  Cu  Cu10      1.0  0.98458206  0.37500168000000006  0.4480162052878443  1.0000
  Al  Al21      1.0  0.08113374999999999  0.6250011200000001  0.5213819826098145  1.0000
  Al  Al22      1.0  0.87208206  0.62500168  0.45248042660020166  1.0000
  Al  Al23      1.0  0.52294963  0.6250011600000001  0.5058737349069473  1.0000
  Al  Al24      1.0  0.42208206  0.62500168  0.47033731184963135  1.0000
  Al  Al25      1.0  0.97208206  0.62500168  0.4881941970990609  1.0000
  Al  Al26      1.0  0.015418029999999984  0.8748152900000001  0.5062801290442078  1.0000
  Al  Al27      1.0  0.57821404  0.8746057600000001  0.5235392586312899  1.0000
  Al  Al28      1.0  0.4720820599999999  0.8750016800000001  0.4881941970990609  1.0000
  Al  Al29      1.0  0.37208206  0.8750016800000001  0.45248042660020177  1.0000
  Al  Al30      1.0  0.92208206  0.8750016800000001  0.47033731184963135  1.0000
  Al  Al31      1.0  0.24708205999999996  0.8750016800000001  0.4971226397237758  1.0000
  Al  Al32      1.0  0.79267286  0.8746072100000001  0.5150293492544283  1.0000
  Al  Al33      1.0  0.69708206  0.8750016800000001  0.47926575447434616  1.0000
  Al  Al34      1.0  0.5970820600000001  0.8750016800000001  0.4435519839754869  1.0000
  Al  Al35      1.0  0.14708206  0.8750016800000001  0.46140886922491653  1.0000
  Al  Al36      1.0  0.19708205999999998  0.62500168  0.47926575447434605  1.0000
  Al  Al37      1.0  0.74708206  0.62500168  0.49712263972377574  1.0000
  Al  Al38      1.0  0.64708206  0.62500168  0.46140886922491653  1.0000
  Al  Al39      1.0  0.3040959199999999  0.6250013600000001  0.5150464097225955  1.0000
  Al  Al40      1.0  0.09708205999999998  0.62500168  0.44355198397548695  1.0000
  Cu  Cu11      1.0  0.25958205999999995  0.62500168  0.4569446479125592  1.0000
  Cu  Cu12      1.0  0.80958206  0.62500168  0.4748015331619887  1.0000
  Cu  Cu13      1.0  0.47045465999999997  0.6250011200000001  0.5281398351194119  1.0000
  Cu  Cu14      1.0  0.35958206  0.62500168  0.4926584184114183  1.0000
  Cu  Cu15      1.0  0.9057925600000001  0.62500087  0.5108271598762211  1.0000
  Cu  Cu16      1.0  0.08458205999999997  0.8750016800000001  0.48372997578670357  1.0000
  Cu  Cu17      1.0  0.6325996500000001  0.87488091  0.5012436231306228  1.0000
  Cu  Cu18      1.0  0.53458206  0.8750016800000001  0.465873090537274  1.0000
  Cu  Cu19      1.0  0.18946333  0.8746284200000001  0.5192677131107739  1.0000
  Cu  Cu20      1.0  0.98458206  0.8750016800000001  0.4480162052878443  1.0000
