data_image0
_chemical_formula_structural       COAl5Pd5Al5Pd5Al5Pd5Al5Pd5
_chemical_formula_sum              "C1 O1 Al20 Pd20"
_cell_length_a       6.9301497379470565
_cell_length_b       8.76602308
_cell_length_c       102.20842540999999
_cell_angle_alpha    90.0
_cell_angle_beta     104.96321744939996
_cell_angle_gamma    71.56505117527551

_space_group_name_H-M_alt    "P 1"
_space_group_IT_number       1

loop_
  _space_group_symop_operation_xyz
  'x, y, z'

loop_
  _atom_site_type_symbol
  _atom_site_label
  _atom_site_symmetry_multiplicity
  _atom_site_fract_x
  _atom_site_fract_y
  _atom_site_fract_z
  _atom_site_occupancy
  C   C1        1.0  0.9734112649999999  0.313550925  0.5492103430451065  1.0000
  O   O1        1.0  0.05376168499999999  0.2928137949999999  0.5608479548846754  1.0000
  Al  Al1       1.0  0.6089384849999999  0.1494762149999999  0.5327897079231759  1.0000
  Al  Al2       1.0  0.029298854999999988  0.04754016499999991  0.5237128550353674  1.0000
  Al  Al3       1.0  0.22658873499999999  0.25137249499999986  0.4916728687696396  1.0000
  Al  Al4       1.0  0.426104675  0.4512449349999999  0.5120070375506398  1.0000
  Al  Al5       1.0  0.8265887350000001  0.3513724949999999  0.5021770360215023  1.0000
  Pd  Pd1       1.0  0.626588735  0.15137249499999988  0.5074291164961842  1.0000
  Pd  Pd2       1.0  0.02658873499999999  0.051372494999999914  0.496924952395571  1.0000
  Pd  Pd3       1.0  0.21152685499999999  0.2549402849999999  0.5175629804139775  1.0000
  Pd  Pd4       1.0  0.42632082499999996  0.4522324149999999  0.5358057657117417  1.0000
  Pd  Pd5       1.0  0.8362567249999998  0.34906872499999997  0.5295914827008952  1.0000
  Al  Al6       1.0  0.626588735  0.15137249499999988  0.4811687046690265  1.0000
  Al  Al7       1.0  0.02658873499999999  0.051372494999999914  0.47066454056841345  1.0000
  Al  Al8       1.0  0.22658873499999999  0.25137249499999986  0.4391520451153246  1.0000
  Al  Al9       1.0  0.426588735  0.4513724949999999  0.4601603733165508  1.0000
  Al  Al10      1.0  0.8265887350000001  0.3513724949999999  0.4496562092159377  1.0000
  Pd  Pd6       1.0  0.626588735  0.15137249499999988  0.454908292841869  1.0000
  Pd  Pd7       1.0  0.02658873499999999  0.051372494999999914  0.44440412559000636  1.0000
  Pd  Pd8       1.0  0.22658873499999999  0.25137249499999986  0.4654124569424821  1.0000
  Pd  Pd9       1.0  0.426588735  0.4513724949999999  0.48642078829495783  1.0000
  Pd  Pd10      1.0  0.8265887350000001  0.3513724949999999  0.4759166210430952  1.0000
  Al  Al11      1.0  0.612408675  0.6613294949999998  0.5328234294445603  1.0000
  Al  Al12      1.0  0.029158094999999988  0.5541493149999999  0.5236096106465143  1.0000
  Al  Al13      1.0  0.22658873499999999  0.7513724949999999  0.4916728687696396  1.0000
  Al  Al14      1.0  0.422818595  0.9524598349999998  0.5120793177614605  1.0000
  Al  Al15      1.0  0.8265887350000001  0.8513724949999999  0.5021770360215023  1.0000
  Pd  Pd11      1.0  0.626588735  0.6513724949999999  0.5074291164961842  1.0000
  Pd  Pd12      1.0  0.02658873499999999  0.5513724949999999  0.496924952395571  1.0000
  Pd  Pd13      1.0  0.216325015  0.754013865  0.5177014400164993  1.0000
  Pd  Pd14      1.0  0.426419005  0.9501975449999999  0.5362908911254932  1.0000
  Pd  Pd15      1.0  0.819185175  0.8532296249999999  0.5272172808734668  1.0000
  Al  Al16      1.0  0.626588735  0.6513724949999999  0.4811687046690265  1.0000
  Al  Al17      1.0  0.02658873499999999  0.5513724949999999  0.47066454056841345  1.0000
  Al  Al18      1.0  0.22658873499999999  0.7513724949999999  0.4391520451153246  1.0000
  Al  Al19      1.0  0.426588735  0.951372495  0.4601603733165508  1.0000
  Al  Al20      1.0  0.8265887350000001  0.8513724949999999  0.4496562092159377  1.0000
  Pd  Pd16      1.0  0.626588735  0.6513724949999999  0.454908292841869  1.0000
  Pd  Pd17      1.0  0.02658873499999999  0.5513724949999999  0.44440412559000636  1.0000
  Pd  Pd18      1.0  0.22658873499999999  0.7513724949999999  0.4654124569424821  1.0000
  Pd  Pd19      1.0  0.426588735  0.951372495  0.48642078829495783  1.0000
  Pd  Pd20      1.0  0.8265887350000001  0.8513724949999999  0.4759166210430952  1.0000
