data_image0
_chemical_formula_structural       COPd10Sn40
_chemical_formula_sum              "C1 O1 Pd10 Sn40"
_cell_length_a       6.731076876161113
_cell_length_b       14.712639909515191
_cell_length_c       109.77398176
_cell_angle_alpha    83.82789311828833
_cell_angle_beta     88.92264226398275
_cell_angle_gamma    77.27453064462296

_space_group_name_H-M_alt    "P 1"
_space_group_IT_number       1

loop_
  _space_group_symop_operation_xyz
  'x, y, z'

loop_
  _atom_site_type_symbol
  _atom_site_label
  _atom_site_symmetry_multiplicity
  _atom_site_fract_x
  _atom_site_fract_y
  _atom_site_fract_z
  _atom_site_occupancy
  C   C1        1.0  0.7590994149999999  0.5852189149999999  0.5597909779214264  1.0000
  O   O1        1.0  0.6376248449999998  0.6166590149999999  0.5667652196416622  1.0000
  Pd  Pd1       1.0  0.5791529149999999  0.341872405  0.4758781017995737  1.0000
  Pd  Pd2       1.0  0.37915291499999987  0.7418724050000001  0.5000331782035359  1.0000
  Pd  Pd3       1.0  0.7791529149999997  0.9418724049999999  0.4517230290188729  1.0000
  Pd  Pd4       1.0  0.19066363499999983  0.143470685  0.5230597862587577  1.0000
  Pd  Pd5       1.0  0.9497010249999999  0.552036855  0.5464115059253217  1.0000
  Pd  Pd6       1.0  0.6791529149999999  0.6418724049999999  0.46380056540922326  1.0000
  Pd  Pd7       1.0  0.4791529149999998  0.041872405  0.48795564181318535  1.0000
  Pd  Pd8       1.0  0.8791529149999998  0.241872405  0.4396454890052612  1.0000
  Pd  Pd9       1.0  0.27915291499999983  0.441872405  0.5121107145938861  1.0000
  Pd  Pd10      1.0  0.10447131499999983  0.851686065  0.5343954671486671  1.0000
  Sn  Sn1       1.0  0.7842141949999998  0.482216165  0.4817044870999631  1.0000
  Sn  Sn2       1.0  0.5842141949999999  0.8822161649999999  0.5058595635039251  1.0000
  Sn  Sn3       1.0  0.9842141950000001  0.082216165  0.4575494143192623  1.0000
  Sn  Sn4       1.0  0.3857513649999998  0.289726855  0.5311923592471988  1.0000
  Sn  Sn5       1.0  0.18421419499999978  0.682216165  0.43339433791530024  1.0000
  Sn  Sn6       1.0  0.5793760849999999  0.550868085  0.506443886850459  1.0000
  Sn  Sn7       1.0  0.39326337499999986  0.9581275949999999  0.5314138021068137  1.0000
  Sn  Sn8       1.0  0.779376085  0.15086808499999999  0.48228881406975826  1.0000
  Sn  Sn9       1.0  0.1793760849999998  0.350868085  0.4339786612618341  1.0000
  Sn  Sn10      1.0  0.9793760849999998  0.7508680849999999  0.4581337376657961  1.0000
  Sn  Sn11      1.0  0.909351495  0.467866175  0.5256169862417257  1.0000
  Sn  Sn12      1.0  0.759659405  0.8934789549999999  0.5481471567760078  1.0000
  Sn  Sn13      1.0  0.11050135499999984  0.069733505  0.501886932878886  1.0000
  Sn  Sn14      1.0  0.5105013549999998  0.269733505  0.4535767836942232  1.0000
  Sn  Sn15      1.0  0.3105013549999999  0.669733505  0.47773185647492405  1.0000
  Sn  Sn16      1.0  0.2425200249999998  0.464671865  0.4859423295808728  1.0000
  Sn  Sn17      1.0  0.04252002499999992  0.8646718649999999  0.5100974023615735  1.0000
  Sn  Sn18      1.0  0.4425200249999998  0.06467186500000001  0.4617872531769107  1.0000
  Sn  Sn19      1.0  0.8511068749999998  0.266069045  0.5342031263236485  1.0000
  Sn  Sn20      1.0  0.6425200249999999  0.6646718649999999  0.43763217677294863  1.0000
  Sn  Sn21      1.0  0.07892974499999984  0.632876725  0.505700005946963  1.0000
  Sn  Sn22      1.0  0.887825465  0.044855085  0.53036645857812  1.0000
  Sn  Sn23      1.0  0.27892974499999984  0.232876725  0.48154492954300077  1.0000
  Sn  Sn24      1.0  0.6789297449999998  0.43287672499999996  0.43323478035833796  1.0000
  Sn  Sn25      1.0  0.47892974499999985  0.8328767250000001  0.4573898567623  1.0000
  Sn  Sn26      1.0  0.07409163499999984  0.301528645  0.5062843292934968  1.0000
  Sn  Sn27      1.0  0.8858457149999998  0.7127747149999999  0.5306066264520272  1.0000
  Sn  Sn28      1.0  0.27409163499999994  0.901528645  0.482129256512796  1.0000
  Sn  Sn29      1.0  0.6740916349999999  0.101528645  0.43381910370487187  1.0000
  Sn  Sn30      1.0  0.4740916349999999  0.5015286449999999  0.4579741801088339  1.0000
  Sn  Sn31      1.0  0.6157858049999999  0.319072945  0.5020464904358484  1.0000
  Sn  Sn32      1.0  0.4252054449999999  0.717363675  0.5260642995862391  1.0000
  Sn  Sn33      1.0  0.8157858049999998  0.9190729449999999  0.4778914140318863  1.0000
  Sn  Sn34      1.0  0.21064576499999982  0.154564345  0.5486837509017076  1.0000
  Sn  Sn35      1.0  0.015785804999999823  0.519072945  0.45373634125118545  1.0000
  Sn  Sn36      1.0  0.7478044749999999  0.714011305  0.48610188713783503  1.0000
  Sn  Sn37      1.0  0.5478044749999998  0.11401130500000001  0.5102569599185358  1.0000
  Sn  Sn38      1.0  0.9478044749999999  0.31401130499999996  0.461946810733873  1.0000
  Sn  Sn39      1.0  0.3149506249999999  0.520348595  0.5344039636963673  1.0000
  Sn  Sn40      1.0  0.1478044749999999  0.914011305  0.4377917343299109  1.0000
