data_image0
_chemical_formula_structural       COGa20Pt20
_chemical_formula_sum              "C1 O1 Ga20 Pt20"
_cell_length_a       11.17773084027972
_cell_length_b       7.06941771
_cell_length_c       104.63293232000001
_cell_angle_alpha    90.0
_cell_angle_beta     104.96321741817061
_cell_angle_gamma    71.56505119198621

_space_group_name_H-M_alt    "P 1"
_space_group_IT_number       1

loop_
  _space_group_symop_operation_xyz
  'x, y, z'

loop_
  _atom_site_type_symbol
  _atom_site_label
  _atom_site_symmetry_multiplicity
  _atom_site_fract_x
  _atom_site_fract_y
  _atom_site_fract_z
  _atom_site_occupancy
  C   C1        1.0  0.69263563  0.3541220650000001  0.5438989772142594  1.0000
  O   O1        1.0  0.70549078  0.37004499499999993  0.5552316884203385  1.0000
  Ga  Ga1       1.0  0.50291617  0.29315158499999994  0.5026498316349737  1.0000
  Ga  Ga2       1.0  0.8999577599999999  0.08023591499999998  0.486413750336331  1.0000
  Ga  Ga3       1.0  0.10210041999999996  0.49450739500000007  0.5205240646338409  1.0000
  Ga  Ga4       1.0  0.29995775999999996  0.8802359150000001  0.4698640252041445  1.0000
  Ga  Ga5       1.0  0.69995776  0.6802359150000001  0.4533142967620123  1.0000
  Ga  Ga6       1.0  0.4737476899999999  0.5433409450000001  0.45725146391861277  1.0000
  Ga  Ga7       1.0  0.8898729400000002  0.34905391499999994  0.5226566692607855  1.0000
  Ga  Ga8       1.0  0.07374768999999995  0.7433409450000001  0.473801192360745  1.0000
  Ga  Ga9       1.0  0.2712042899999999  0.14016020500000007  0.5084432825325574  1.0000
  Ga  Ga10      1.0  0.6737476899999999  0.9433409450000001  0.4903509208028773  1.0000
  Ga  Ga11      1.0  0.3630627899999999  0.19092082500000004  0.4541984560741961  1.0000
  Ga  Ga12      1.0  0.7632294900000001  0.964985535  0.5208749552862166  1.0000
  Ga  Ga13      1.0  0.9630627900000002  0.39092082499999997  0.4707481845163283  1.0000
  Ga  Ga14      1.0  0.16284973999999994  0.793557105  0.5052450177216042  1.0000
  Ga  Ga15      1.0  0.5630627899999999  0.590920825  0.4872979129584606  1.0000
  Ga  Ga16      1.0  0.6630627899999999  0.10644598500000009  0.4624733202952623  1.0000
  Ga  Ga17      1.0  0.06306278999999995  0.906445985  0.4459235918531301  1.0000
  Ga  Ga18      1.0  0.26306278999999994  0.3064459850000001  0.4790230487373945  1.0000
  Ga  Ga19      1.0  0.4772026699999999  0.6975799450000001  0.5154598576603855  1.0000
  Ga  Ga20      1.0  0.8630627900000001  0.5064459850000002  0.49557277717952664  1.0000
  Pt  Pt1       1.0  0.4999577599999999  0.28023591500000006  0.47786776846392587  1.0000
  Pt  Pt2       1.0  0.8999577599999999  0.08023591499999998  0.46131804002179366  1.0000
  Pt  Pt3       1.0  0.09995775999999996  0.48023591500000007  0.4944174969060581  1.0000
  Pt  Pt4       1.0  0.29995775999999996  0.8802359150000001  0.44476831157966146  1.0000
  Pt  Pt5       1.0  0.7014195599999999  0.6736576950000002  0.5103029391081974  1.0000
  Pt  Pt6       1.0  0.71636883  0.42203038500000006  0.47230889341728083  1.0000
  Pt  Pt7       1.0  0.11636882999999995  0.22203038500000002  0.4557591649751487  1.0000
  Pt  Pt8       1.0  0.31636883  0.6220303850000001  0.48885862185941314  1.0000
  Pt  Pt9       1.0  0.5142589999999999  0.03501446500000007  0.5196727333629949  1.0000
  Pt  Pt10      1.0  0.91913168  0.8184972650000002  0.506735737820975  1.0000
  Pt  Pt11      1.0  0.24175222  0.5548525249999999  0.4592175981371036  1.0000
  Pt  Pt12      1.0  0.66988268  0.33088448500000006  0.5254457652056268  1.0000
  Pt  Pt13      1.0  0.8417522200000002  0.7548525250000001  0.4757673265792358  1.0000
  Pt  Pt14      1.0  0.03693720999999995  0.15617092500000007  0.5083971948487919  1.0000
  Pt  Pt15      1.0  0.4417522199999999  0.954852525  0.492317055021368  1.0000
  Pt  Pt16      1.0  0.54175222  0.863824845  0.46749246235816966  1.0000
  Pt  Pt17      1.0  0.94175222  0.6638248450000002  0.4509427339160375  1.0000
  Pt  Pt18      1.0  0.14175221999999996  0.06382484500000005  0.48404219080030186  1.0000
  Pt  Pt19      1.0  0.33704007999999996  0.46641396500000015  0.5156103377212184  1.0000
  Pt  Pt20      1.0  0.7388136099999999  0.26161871499999995  0.5004956660218147  1.0000
