data_image0
_chemical_formula_structural       In9Ni13CO
_chemical_formula_sum              "In9 Ni13 C1 O1"
_cell_length_a       6.826261678469524
_cell_length_b       6.826261678756332
_cell_length_c       40.02179484
_cell_angle_alpha    90.09742515791491
_cell_angle_beta     90.09742515791899
_cell_angle_gamma    77.56223315399194

_space_group_name_H-M_alt    "P 1"
_space_group_IT_number       1

loop_
  _space_group_symop_operation_xyz
  'x, y, z'

loop_
  _atom_site_type_symbol
  _atom_site_label
  _atom_site_symmetry_multiplicity
  _atom_site_fract_x
  _atom_site_fract_y
  _atom_site_fract_z
  _atom_site_occupancy
  In  In1       1.0  0.739649985  0.177897335  0.46699074234771026  1.0000
  In  In2       1.0  0.7216781250000001  0.738921455  0.4303604117502404  1.0000
  In  In3       1.0  0.9313861350000002  0.9408870149999999  0.5630993593174873  1.0000
  In  In4       1.0  0.16065400500000004  0.7568933149999999  0.46699074234771026  1.0000
  In  In5       1.0  0.20578539500000007  0.223028725  0.4403731551371714  1.0000
  In  In6       1.0  0.581735125  0.5949299349999999  0.5009064816924269  1.0000
  In  In7       1.0  0.46080786500000004  0.030973964999999996  0.5405966168312425  1.0000
  In  In8       1.0  0.04821729500000004  0.464404615  0.538419661549631  1.0000
  In  In9       1.0  0.9517827050000001  0.9690260350000001  0.3875596117791177  1.0000
  Ni  Ni1       1.0  0.461105375  0.9594397450000001  0.4727821564895359  1.0000
  Ni  Ni2       1.0  0.33673041500000006  0.853973745  0.408960011764679  1.0000
  Ni  Ni3       1.0  0.6899115750000001  0.6557989449999999  0.5599633916776885  1.0000
  Ni  Ni4       1.0  0.9421964150000001  0.47834870500000004  0.47278215648953603  1.0000
  Ni  Ni5       1.0  0.4699740950000001  0.487217425  0.44212334089337324  1.0000
  Ni  Ni6       1.0  0.5703159350000002  0.120388225  0.408960011764679  1.0000
  Ni  Ni7       1.0  0.8299978849999999  0.8446075350000001  0.501981678730011  1.0000
  Ni  Ni8       1.0  0.2440644550000001  0.7580339450000001  0.5306816090962208  1.0000
  Ni  Ni9       1.0  0.34963308500000007  0.33616913500000006  0.49891985925224863  1.0000
  Ni  Ni10      1.0  0.7201595850000001  0.290582285  0.543512342183097  1.0000
  Ni  Ni11      1.0  0.10314489500000001  0.5875592650000001  0.408960011764679  1.0000
  Ni  Ni12      1.0  0.08560642500000006  0.108981815  0.5050082480561879  1.0000
  Ni  Ni13      1.0  0.836730415  0.353973745  0.408960011764679  1.0000
  C   C1        1.0  0.6539082949999999  0.42912974500000006  0.5841775492476731  1.0000
  O   O1        1.0  0.610227735  0.40278104500000006  0.6124403882208821  1.0000
