data_image0
_chemical_formula_structural       GaRhGaRhGaRhGaRhGaRhGaRhGaRhGaRhGaRhGaRhGaRhGaRhCO
_chemical_formula_sum              "Ga12 Rh12 C1 O1"
_cell_length_a       6.101321
_cell_length_b       6.101321
_cell_length_c       100.50660500000001
_cell_angle_alpha    90.0
_cell_angle_beta     90.0
_cell_angle_gamma    90.0

_space_group_name_H-M_alt    "P 1"
_space_group_IT_number       1

loop_
  _space_group_symop_operation_xyz
  'x, y, z'

loop_
  _atom_site_type_symbol
  _atom_site_label
  _atom_site_symmetry_multiplicity
  _atom_site_fract_x
  _atom_site_fract_y
  _atom_site_fract_z
  _atom_site_occupancy
  Ga  Ga1       1.0  0.12310212999999999  0.12359197500000003  0.46217541425998254  1.0000
  Rh  Rh1       1.0  0.37310213000000003  0.373591975  0.44699899625242967  1.0000
  Ga  Ga2       1.0  0.12310212999999999  0.12359197500000003  0.4925282502750882  1.0000
  Rh  Rh2       1.0  0.37310213000000003  0.373591975  0.4773518322675353  1.0000
  Ga  Ga3       1.0  0.13942327  0.14031731500000003  0.5238464885924904  1.0000
  Rh  Rh3       1.0  0.37266935  0.374003485  0.5062770590640737  1.0000
  Ga  Ga4       1.0  0.12310212999999999  0.6235919750000001  0.46217541425998254  1.0000
  Rh  Rh4       1.0  0.37310213000000003  0.8735919750000002  0.44699899625242967  1.0000
  Ga  Ga5       1.0  0.12310212999999999  0.6235919750000001  0.4925282502750882  1.0000
  Rh  Rh5       1.0  0.37310213000000003  0.8735919750000002  0.4773518322675353  1.0000
  Ga  Ga6       1.0  0.12570774999999998  0.6209638550000001  0.5227253580297347  1.0000
  Rh  Rh6       1.0  0.37027903  0.8697655350000001  0.5080358784292378  1.0000
  Ga  Ga7       1.0  0.62310213  0.12359197500000003  0.46217541425998254  1.0000
  Rh  Rh7       1.0  0.8731021300000001  0.373591975  0.44699899625242967  1.0000
  Ga  Ga8       1.0  0.62310213  0.12359197500000003  0.4925282502750882  1.0000
  Rh  Rh8       1.0  0.8731021300000001  0.373591975  0.4773518322675353  1.0000
  Ga  Ga9       1.0  0.61082856  0.13584837500000005  0.523040044092405  1.0000
  Rh  Rh9       1.0  0.8768978700000001  0.3764196050000001  0.5080340724354949  1.0000
  Ga  Ga10      1.0  0.62310213  0.6235919750000001  0.46217541425998254  1.0000
  Rh  Rh10      1.0  0.8731021300000001  0.8735919750000002  0.44699899625242967  1.0000
  Ga  Ga11      1.0  0.62310213  0.6235919750000001  0.4925282502750882  1.0000
  Rh  Rh11      1.0  0.8731021300000001  0.8735919750000002  0.4773518322675353  1.0000
  Ga  Ga12      1.0  0.60637355  0.6072621650000001  0.5238508472597421  1.0000
  Rh  Rh12      1.0  0.87027946  0.876408025  0.5088822733320862  1.0000
  C   C1        1.0  0.25988578  0.4869446850000001  0.5413021071269847  1.0000
  O   O1        1.0  0.25557421999999996  0.49112903500000005  0.5530010037475703  1.0000
