data_image0
_chemical_formula_structural       COGe16
_chemical_formula_sum              "C1 O1 Ge16"
_cell_length_a       8.25412626
_cell_length_b       5.83654866
_cell_length_c       103.01650507
_cell_angle_alpha    90.0
_cell_angle_beta     90.0
_cell_angle_gamma    90.0

_space_group_name_H-M_alt    "P 1"
_space_group_IT_number       1

loop_
  _space_group_symop_operation_xyz
  'x, y, z'

loop_
  _atom_site_type_symbol
  _atom_site_label
  _atom_site_symmetry_multiplicity
  _atom_site_fract_x
  _atom_site_fract_y
  _atom_site_fract_z
  _atom_site_occupancy
  C   C1        1.0  0.12500002500000001  0.27820550999999993  0.5320015816449347  1.0000
  O   O1        1.0  0.12500002500000001  0.21366601999999993  0.5426753606764418  1.0000
  Ge  Ge1       1.0  0.375000005  0.8820868399999999  0.4573246393235581  1.0000
  Ge  Ge2       1.0  0.379921395  0.8723174699999998  0.49852851706821505  1.0000
  Ge  Ge3       1.0  0.125000005  0.13208683999999993  0.4573246393235581  1.0000
  Ge  Ge4       1.0  0.12499999500000002  0.11791315999999993  0.49709754498697806  1.0000
  Ge  Ge5       1.0  0.125000005  0.3820868399999999  0.4773557165327182  1.0000
  Ge  Ge6       1.0  0.125000005  0.4374297499999999  0.5144807765968201  1.0000
  Ge  Ge7       1.0  0.380406465  0.6762720899999999  0.5209216909516029  1.0000
  Ge  Ge8       1.0  0.375000005  0.6320868399999998  0.4773557165327182  1.0000
  Ge  Ge9       1.0  0.875000005  0.8820868399999999  0.4573246393235581  1.0000
  Ge  Ge10      1.0  0.8700786149999999  0.8723174399999998  0.49852852027318745  1.0000
  Ge  Ge11      1.0  0.625000005  0.13208683999999993  0.4573246393235581  1.0000
  Ge  Ge12      1.0  0.625000005  0.13077703999999993  0.4975150343006575  1.0000
  Ge  Ge13      1.0  0.625000005  0.3820868399999999  0.4773557165327182  1.0000
  Ge  Ge14      1.0  0.625000005  0.4458410299999999  0.5141086568717763  1.0000
  Ge  Ge15      1.0  0.8695935450000001  0.67627206  0.5209216941565752  1.0000
  Ge  Ge16      1.0  0.875000005  0.6320868399999998  0.4773557165327182  1.0000
