data_image0
_chemical_formula_structural       COMo16
_chemical_formula_sum              "C1 O1 Mo16"
_cell_length_a       5.47689242
_cell_length_b       5.476892424049091
_cell_length_c       101.30304757
_cell_angle_alpha    90.0
_cell_angle_beta     90.0
_cell_angle_gamma    109.47122054554148

_space_group_name_H-M_alt    "P 1"
_space_group_IT_number       1

loop_
  _space_group_symop_operation_xyz
  'x, y, z'

loop_
  _atom_site_type_symbol
  _atom_site_label
  _atom_site_symmetry_multiplicity
  _atom_site_fract_x
  _atom_site_fract_y
  _atom_site_fract_z
  _atom_site_occupancy
  C   C1        1.0  0.508221305  0.23819527499999998  0.5362655491489609  1.0000
  O   O1        1.0  0.565388505  0.181025735  0.5468941003972471  1.0000
  Mo  Mo1       1.0  0.377750045  0.36866543499999993  0.5197676800099321  1.0000
  Mo  Mo2       1.0  0.12111322499999998  0.12092192499999999  0.4972409418514438  1.0000
  Mo  Mo3       1.0  0.373315205  0.373098475  0.47517761391146657  1.0000
  Mo  Mo4       1.0  0.123315205  0.123098475  0.4531058996027529  1.0000
  Mo  Mo5       1.0  0.375403905  0.867527505  0.5186521168356985  1.0000
  Mo  Mo6       1.0  0.12755855499999996  0.6188559549999999  0.49774000186218503  1.0000
  Mo  Mo7       1.0  0.373315205  0.8730984749999999  0.47517761391146657  1.0000
  Mo  Mo8       1.0  0.12331520499999996  0.6230984749999999  0.4531058996027529  1.0000
  Mo  Mo9       1.0  0.878886775  0.371010515  0.5186522558875014  1.0000
  Mo  Mo10      1.0  0.6209403849999999  0.125460715  0.497472534174237  1.0000
  Mo  Mo11      1.0  0.873315205  0.373098475  0.47517761391146657  1.0000
  Mo  Mo12      1.0  0.6233152049999999  0.123098475  0.4531058996027529  1.0000
  Mo  Mo13      1.0  0.8673366849999999  0.879078075  0.5181568761144776  1.0000
  Mo  Mo14      1.0  0.625488975  0.625302065  0.4972409418514438  1.0000
  Mo  Mo15      1.0  0.873315205  0.8730984749999999  0.47517761391146657  1.0000
  Mo  Mo16      1.0  0.6233152049999999  0.6230984749999999  0.4531058996027529  1.0000
