data_image0
_chemical_formula_structural       COGe32
_chemical_formula_sum              "C1 O1 Ge32"
_cell_length_a       8.25412626
_cell_length_b       10.109198813205294
_cell_length_c       108.27280901
_cell_angle_alpha    95.05115255230619
_cell_angle_beta     90.0
_cell_angle_gamma    90.0

_space_group_name_H-M_alt    "P 1"
_space_group_IT_number       1

loop_
  _space_group_symop_operation_xyz
  'x, y, z'

loop_
  _atom_site_type_symbol
  _atom_site_label
  _atom_site_symmetry_multiplicity
  _atom_site_fract_x
  _atom_site_fract_y
  _atom_site_fract_z
  _atom_site_occupancy
  C   C1        1.0  0.29650629  0.6912007099999999  0.5414465015631209  1.0000
  O   O1        1.0  0.29650626999999996  0.6897965799999999  0.5520895730005626  1.0000
  Ge  Ge1       1.0  0.29650631  0.6093749999999999  0.4920960463621727  1.0000
  Ge  Ge2       1.0  0.29650632  0.28536952000000004  0.5144558432299777  1.0000
  Ge  Ge3       1.0  0.29650631  0.23437500000000003  0.4479104269994374  1.0000
  Ge  Ge4       1.0  0.29650631  0.9218749999999999  0.470003236680805  1.0000
  Ge  Ge5       1.0  0.29650631  0.6718749999999999  0.47000323668080507  1.0000
  Ge  Ge6       1.0  0.29650631  0.35937500000000006  0.4920960463621727  1.0000
  Ge  Ge7       1.0  0.29650631  0.03540698000000002  0.5164981979978612  1.0000
  Ge  Ge8       1.0  0.29650631  0.9843749999999999  0.44791042699943745  1.0000
  Ge  Ge9       1.0  0.04650630999999999  0.5781249999999999  0.4589568318401212  1.0000
  Ge  Ge10      1.0  0.04650630999999999  0.26562500000000006  0.4810496415214889  1.0000
  Ge  Ge11      1.0  0.04803960999999999  0.9587018199999999  0.5038883362713454  1.0000
  Ge  Ge12      1.0  0.9640603400000001  0.65133574  0.5250386313432105  1.0000
  Ge  Ge13      1.0  0.04650630999999999  0.32812500000000006  0.45895683184012126  1.0000
  Ge  Ge14      1.0  0.04650630999999999  0.01562500000000002  0.48104964152148894  1.0000
  Ge  Ge15      1.0  0.04759434999999999  0.70510803  0.5032552836004612  1.0000
  Ge  Ge16      1.0  0.035939659999999984  0.41467022  0.5190635832444157  1.0000
  Ge  Ge17      1.0  0.79650631  0.6093749999999999  0.4920960463621727  1.0000
  Ge  Ge18      1.0  0.7965063200000001  0.26595007  0.5137488485762272  1.0000
  Ge  Ge19      1.0  0.79650631  0.23437500000000003  0.4479104269994374  1.0000
  Ge  Ge20      1.0  0.79650631  0.9218749999999999  0.470003236680805  1.0000
  Ge  Ge21      1.0  0.79650631  0.6718749999999999  0.47000323668080507  1.0000
  Ge  Ge22      1.0  0.79650631  0.35937500000000006  0.4920960463621727  1.0000
  Ge  Ge23      1.0  0.7965063200000001  0.02101515000000002  0.5164552672500884  1.0000
  Ge  Ge24      1.0  0.79650631  0.9843749999999999  0.44791042699943745  1.0000
  Ge  Ge25      1.0  0.54650631  0.5781249999999999  0.4589568318401212  1.0000
  Ge  Ge26      1.0  0.54650631  0.26562500000000006  0.4810496415214889  1.0000
  Ge  Ge27      1.0  0.54497301  0.9587018199999999  0.5038883398061951  1.0000
  Ge  Ge28      1.0  0.6289522200000001  0.6513357499999999  0.5250386384129095  1.0000
  Ge  Ge29      1.0  0.54650631  0.32812500000000006  0.45895683184012126  1.0000
  Ge  Ge30      1.0  0.54650631  0.01562500000000002  0.48104964152148894  1.0000
  Ge  Ge31      1.0  0.54541828  0.70510801  0.5032552871353108  1.0000
  Ge  Ge32      1.0  0.55707297  0.41467024999999996  0.5190635761747165  1.0000
