data_image0
_chemical_formula_structural       COSe6
_chemical_formula_sum              "C1 O1 Se6"
_cell_length_a       4.569734481533149
_cell_length_b       5.1061273
_cell_length_c       106.55787585
_cell_angle_alpha    90.0
_cell_angle_beta     119.99999998890173
_cell_angle_gamma    90.0

_space_group_name_H-M_alt    "P 1"
_space_group_IT_number       1

loop_
  _space_group_symop_operation_xyz
  'x, y, z'

loop_
  _atom_site_type_symbol
  _atom_site_label
  _atom_site_symmetry_multiplicity
  _atom_site_fract_x
  _atom_site_fract_y
  _atom_site_fract_z
  _atom_site_occupancy
  C   C1        1.0  0.09371453999999997  0.633163515  0.5545874430678143  1.0000
  O   O1        1.0  0.25482864999999993  0.6405762549999999  0.5674795248368771  1.0000
  Se  Se1       1.0  0.12549459999999998  0.499999995  0.43252047516312286  1.0000
  Se  Se2       1.0  0.3447037399999999  0.8333333350000001  0.46600469187183585  1.0000
  Se  Se3       1.0  0.90628546  0.16666666499999994  0.4566039053803958  1.0000
  Se  Se4       1.0  0.12549459999999998  0.499999995  0.4754054749324759  1.0000
  Se  Se5       1.0  0.6271799  0.46532925499999994  0.5418664004010315  1.0000
  Se  Se6       1.0  0.22848538999999995  0.764153385  0.5400471432332158  1.0000
