data_image0
_chemical_formula_structural       COMo24
_chemical_formula_sum              "C1 O1 Mo24"
_cell_length_a       6.32417064
_cell_length_b       6.32417064
_cell_length_c       101.62085316
_cell_angle_alpha    90.0
_cell_angle_beta     90.0
_cell_angle_gamma    90.0

_space_group_name_H-M_alt    "P 1"
_space_group_IT_number       1

loop_
  _space_group_symop_operation_xyz
  'x, y, z'

loop_
  _atom_site_type_symbol
  _atom_site_label
  _atom_site_symmetry_multiplicity
  _atom_site_fract_x
  _atom_site_fract_y
  _atom_site_fract_z
  _atom_site_occupancy
  C   C1        1.0  0.375010855  0.37499836  0.5361813113656564  1.0000
  O   O1        1.0  0.37497957500000006  0.37500213999999993  0.5486762167729685  1.0000
  Mo  Mo1       1.0  0.12499888500000003  0.12499997999999998  0.46688203341718376  1.0000
  Mo  Mo2       1.0  0.374998885  0.37499998  0.4513237832270316  1.0000
  Mo  Mo3       1.0  0.12499888500000003  0.12499997999999998  0.4979985337974882  1.0000
  Mo  Mo4       1.0  0.374998885  0.37499998  0.482440283607336  1.0000
  Mo  Mo5       1.0  0.13072629500000005  0.13072778999999998  0.5279572701015426  1.0000
  Mo  Mo6       1.0  0.37499616500000005  0.3750005  0.5134179950609942  1.0000
  Mo  Mo7       1.0  0.12499888500000003  0.62499998  0.46688203341718376  1.0000
  Mo  Mo8       1.0  0.374998885  0.87499998  0.4513237832270316  1.0000
  Mo  Mo9       1.0  0.12499888500000003  0.62499998  0.4979985337974882  1.0000
  Mo  Mo10      1.0  0.374998885  0.87499998  0.482440283607336  1.0000
  Mo  Mo11      1.0  0.13072714500000004  0.61927481  0.5279572483199922  1.0000
  Mo  Mo12      1.0  0.374996315  0.8750000200000001  0.5142943383961548  1.0000
  Mo  Mo13      1.0  0.624998885  0.12499997999999998  0.46688203341718376  1.0000
  Mo  Mo14      1.0  0.8749988850000001  0.37499998  0.4513237832270316  1.0000
  Mo  Mo15      1.0  0.624998885  0.12499997999999998  0.4979985337974882  1.0000
  Mo  Mo16      1.0  0.8749988850000001  0.37499998  0.482440283607336  1.0000
  Mo  Mo17      1.0  0.619272795  0.13072369  0.5279572887714427  1.0000
  Mo  Mo18      1.0  0.875000265  0.37500012  0.5142944317456559  1.0000
  Mo  Mo19      1.0  0.624998885  0.62499998  0.46688203341718376  1.0000
  Mo  Mo20      1.0  0.8749988850000001  0.87499998  0.4513237832270316  1.0000
  Mo  Mo21      1.0  0.624998885  0.62499998  0.4979985337974882  1.0000
  Mo  Mo22      1.0  0.8749988850000001  0.87499998  0.482440283607336  1.0000
  Mo  Mo23      1.0  0.619273305  0.61927314  0.5279572701015426  1.0000
  Mo  Mo24      1.0  0.875001115  0.8749994199999999  0.514021247542217  1.0000
