data_image0
_chemical_formula_structural       Ga4Sb4Ga4Sb4Ga4Sb4Ga4Sb4CO
_chemical_formula_sum              "Ga16 Sb16 C1 O1"
_cell_length_a       8.87320540918224
_cell_length_b       15.246966230235959
_cell_length_c       105.49282163000001
_cell_angle_alpha    106.91679524280686
_cell_angle_beta     119.99999996576817
_cell_angle_gamma    81.63426813133779

_space_group_name_H-M_alt    "P 1"
_space_group_IT_number       1

loop_
  _space_group_symop_operation_xyz
  'x, y, z'

loop_
  _atom_site_type_symbol
  _atom_site_label
  _atom_site_symmetry_multiplicity
  _atom_site_fract_x
  _atom_site_fract_y
  _atom_site_fract_z
  _atom_site_occupancy
  Ga  Ga1       1.0  0.15111766499999996  0.281338575  0.4760427742361261  1.0000
  Ga  Ga2       1.0  0.15111766499999996  0.781338575  0.45501479036386455  1.0000
  Ga  Ga3       1.0  0.317784325  0.031338574999999994  0.4935660930081848  1.0000
  Ga  Ga4       1.0  0.317784325  0.531338575  0.47253810913592337  1.0000
  Sb  Sb1       1.0  0.15111766499999996  0.468661425  0.4839208158707398  1.0000
  Sb  Sb2       1.0  0.15111766499999996  0.968661425  0.4628928319984783  1.0000
  Sb  Sb3       1.0  0.317784325  0.21866142499999996  0.45938816689827555  1.0000
  Sb  Sb4       1.0  0.317784325  0.718661425  0.4804161507705371  1.0000
  Ga  Ga5       1.0  0.11447313500000002  0.31868123499999995  0.5135093188932184  1.0000
  Ga  Ga6       1.0  0.15111766499999996  0.781338575  0.4970707581083876  1.0000
  Ga  Ga7       1.0  0.3889583750000001  0.931969815  0.5349603386983058  1.0000
  Ga  Ga8       1.0  0.33677970500000004  0.5406447349999999  0.5155151227609159  1.0000
  Sb  Sb5       1.0  0.155902605  0.5004020149999999  0.5279029031997555  1.0000
  Sb  Sb6       1.0  0.15111766499999996  0.968661425  0.5049487997430013  1.0000
  Sb  Sb7       1.0  0.317784325  0.21866142499999996  0.5014441346427986  1.0000
  Sb  Sb8       1.0  0.396269825  0.726981615  0.5223589745039177  1.0000
  Ga  Ga9       1.0  0.651117665  0.281338575  0.4760427742361261  1.0000
  Ga  Ga10      1.0  0.651117665  0.781338575  0.45501479036386455  1.0000
  Ga  Ga11      1.0  0.8177843249999999  0.031338574999999994  0.4935660930081848  1.0000
  Ga  Ga12      1.0  0.8177843249999999  0.531338575  0.47253810913592337  1.0000
  Sb  Sb9       1.0  0.651117665  0.468661425  0.48392081587073976  1.0000
  Sb  Sb10      1.0  0.651117665  0.968661425  0.46289283199847825  1.0000
  Sb  Sb11      1.0  0.8177843249999999  0.21866142499999996  0.45938816689827555  1.0000
  Sb  Sb12      1.0  0.8177843249999999  0.718661425  0.48041615077053706  1.0000
  Ga  Ga13      1.0  0.6165427549999999  0.307641685  0.5132814764823656  1.0000
  Ga  Ga14      1.0  0.651117665  0.781338575  0.4970707581083876  1.0000
  Ga  Ga15      1.0  0.885526865  0.9214568949999999  0.5337913241030597  1.0000
  Ga  Ga16      1.0  0.807363565  0.543271135  0.5158397275423553  1.0000
  Sb  Sb13      1.0  0.6701673149999999  0.479566445  0.5296454266159402  1.0000
  Sb  Sb14      1.0  0.651117665  0.968661425  0.5049487997430013  1.0000
  Sb  Sb15      1.0  0.8177843249999999  0.21866142499999996  0.5014441346427986  1.0000
  Sb  Sb16      1.0  0.730942435  0.7305611649999999  0.5228476816714961  1.0000
  C   C1        1.0  0.24037722499999997  0.27068120500000004  0.534523245978821  1.0000
  O   O1        1.0  0.298148275  0.241217895  0.5449852096361355  1.0000
