data_image0
_chemical_formula_structural       COPt6V3Pt6V3
_chemical_formula_sum              "C1 O1 Pt12 V6"
_cell_length_a       7.67297706
_cell_length_b       4.841608106955899
_cell_length_c       98.77214574999999
_cell_angle_alpha    90.85407837173831
_cell_angle_beta     90.0
_cell_angle_gamma    113.34082491599099

_space_group_name_H-M_alt    "P 1"
_space_group_IT_number       1

loop_
  _space_group_symop_operation_xyz
  'x, y, z'

loop_
  _atom_site_type_symbol
  _atom_site_label
  _atom_site_symmetry_multiplicity
  _atom_site_fract_x
  _atom_site_fract_y
  _atom_site_fract_z
  _atom_site_occupancy
  C   C1        1.0  0.24823568  0.09320032000000003  0.5347824177463346  1.0000
  O   O1        1.0  0.24496018  0.07681481000000003  0.546789279900694  1.0000
  Pt  Pt1       1.0  0.14476411  0.67562669  0.4532107200993061  1.0000
  Pt  Pt2       1.0  0.45356886  0.91084567  0.471201572090678  1.0000
  Pt  Pt3       1.0  0.09930957  0.49380851000000003  0.47969237497619555  1.0000
  Pt  Pt4       1.0  0.40498811  0.72909758  0.49835134554765553  1.0000
  Pt  Pt5       1.0  0.04643113999999999  0.30931396000000005  0.5070444084076665  1.0000
  Pt  Pt6       1.0  0.35240827  0.49797806000000006  0.5239223644622454  1.0000
  V   V1        1.0  0.29916648  0.29323618  0.4622061475514829  1.0000
  V   V2        1.0  0.25371193999999997  0.11141800000000003  0.48868779951539065  1.0000
  V   V3        1.0  0.20362346999999997  0.91696039  0.5147838047390384  1.0000
  Pt  Pt7       1.0  0.64476411  0.67562669  0.4532107200993061  1.0000
  Pt  Pt8       1.0  0.9535688600000001  0.91084567  0.471201572090678  1.0000
  Pt  Pt9       1.0  0.59930957  0.49380851000000003  0.47969237497619555  1.0000
  Pt  Pt10      1.0  0.9117654700000001  0.7335594300000001  0.49789269657188007  1.0000
  Pt  Pt11      1.0  0.5575408  0.3102371500000001  0.5065503725296508  1.0000
  Pt  Pt12      1.0  0.8586161299999999  0.5667248400000001  0.5238092912498435  1.0000
  V   V4        1.0  0.79916648  0.29323618  0.4622061475514829  1.0000
  V   V5        1.0  0.75371194  0.11141800000000003  0.48868779951539065  1.0000
  V   V6        1.0  0.7079609299999998  0.92318519  0.5130825243584858  1.0000
