data_image0
_chemical_formula_structural       COSi2Sb2Pt10Si2Sb2Pt10
_chemical_formula_sum              "C1 O1 Si4 Sb4 Pt20"
_cell_length_a       5.69382053
_cell_length_b       8.287510236595095
_cell_length_c       104.1629232
_cell_angle_alpha    110.09136498469448
_cell_angle_beta     90.0
_cell_angle_gamma    69.90863501530553

_space_group_name_H-M_alt    "P 1"
_space_group_IT_number       1

loop_
  _space_group_symop_operation_xyz
  'x, y, z'

loop_
  _atom_site_type_symbol
  _atom_site_label
  _atom_site_symmetry_multiplicity
  _atom_site_fract_x
  _atom_site_fract_y
  _atom_site_fract_z
  _atom_site_occupancy
  C   C1        1.0  0.44801352000000005  0.8715972100000001  0.5541093195042254  1.0000
  O   O1        1.0  0.43146405999999987  0.8941381800000001  0.5658001170445631  1.0000
  Si  Si1       1.0  0.81299873  0.60586182  0.43419988295543704  1.0000
  Si  Si2       1.0  0.3129987300000001  0.60586182  0.46153120591527014  1.0000
  Sb  Sb1       1.0  0.06299873000000006  0.10586182000000002  0.4478655444353536  1.0000
  Sb  Sb2       1.0  0.56299873  0.10586182000000002  0.47519686411542816  1.0000
  Pt  Pt1       1.0  0.16342948999999998  0.40500029000000004  0.44237573380121553  1.0000
  Pt  Pt2       1.0  0.6634294900000001  0.40500029000000004  0.4697070534812901  1.0000
  Pt  Pt3       1.0  0.9625679700000003  0.80672335  0.45335535506949165  1.0000
  Pt  Pt4       1.0  0.4625679700000002  0.80672335  0.48068667802932474  1.0000
  Pt  Pt5       1.0  0.6634294900000001  0.40500029000000004  0.44237573380121553  1.0000
  Pt  Pt6       1.0  0.16342948999999998  0.40500029000000004  0.4697070534812901  1.0000
  Pt  Pt7       1.0  0.4625679700000002  0.80672335  0.45335535506949165  1.0000
  Pt  Pt8       1.0  0.9625679700000003  0.80672335  0.48068667802932474  1.0000
  Pt  Pt9       1.0  0.06299873000000006  0.10586182000000002  0.47519686411542816  1.0000
  Pt  Pt10      1.0  0.56299873  0.10586182000000002  0.4478655444353536  1.0000
  Si  Si3       1.0  0.81299873  0.60586182  0.4888625255953447  1.0000
  Si  Si4       1.0  0.31598237000000007  0.6016652699999999  0.5166093611586304  1.0000
  Sb  Sb3       1.0  0.06299873000000006  0.10586182000000002  0.5025281870752611  1.0000
  Sb  Sb4       1.0  0.53883729  0.13692308000000003  0.5302819560480008  1.0000
  Pt  Pt11      1.0  0.16342948999999998  0.40500029000000004  0.4970383764411231  1.0000
  Pt  Pt12      1.0  0.6686683199999999  0.41512623000000004  0.5244582168029184  1.0000
  Pt  Pt13      1.0  0.9646471700000001  0.8030570600000001  0.5070926105708975  1.0000
  Pt  Pt14      1.0  0.4601287  0.8363175800000001  0.5353161229537683  1.0000
  Pt  Pt15      1.0  0.6634294900000001  0.40500029000000004  0.4970383764411231  1.0000
  Pt  Pt16      1.0  0.15616108000000012  0.39820416000000003  0.5242672758229845  1.0000
  Pt  Pt17      1.0  0.4650951400000001  0.80601711  0.5083862883500727  1.0000
  Pt  Pt18      1.0  0.96541073  0.8022657  0.5332038469726168  1.0000
  Pt  Pt19      1.0  0.034589270000000054  0.10680877000000003  0.5290767923910292  1.0000
  Pt  Pt20      1.0  0.56299873  0.10586182000000002  0.5025281870752611  1.0000
