data_image0
_chemical_formula_structural       COAu12Pd4
_chemical_formula_sum              "C1 O1 Au12 Pd4"
_cell_length_a       5.04355893
_cell_length_b       5.043558926405053
_cell_length_c       105.29238942
_cell_angle_alpha    90.0
_cell_angle_beta     90.0
_cell_angle_gamma    108.65851996556465

_space_group_name_H-M_alt    "P 1"
_space_group_IT_number       1

loop_
  _space_group_symop_operation_xyz
  'x, y, z'

loop_
  _atom_site_type_symbol
  _atom_site_label
  _atom_site_symmetry_multiplicity
  _atom_site_fract_x
  _atom_site_fract_y
  _atom_site_fract_z
  _atom_site_occupancy
  C   C1        1.0  4.949999999713734e-07  5.099999999673224e-07  0.5526108760956426  1.0000
  O   O1        1.0  5.849999999713734e-07  5.899999999673224e-07  0.5636491659094646  1.0000
  Au  Au1       1.0  0.5000000849999999  1.299999999673224e-07  0.4363508340905353  1.0000
  Au  Au2       1.0  8.499999997753047e-08  0.50000013  0.46428288454760974  1.0000
  Au  Au3       1.0  8.499999997753047e-08  0.50000013  0.4363508340905353  1.0000
  Au  Au4       1.0  0.5000000849999999  1.299999999673224e-07  0.46428288454760974  1.0000
  Au  Au5       1.0  0.5000000849999999  0.50000013  0.47824891145207  1.0000
  Au  Au6       1.0  8.499999997137338e-08  1.299999999673224e-07  0.45031685764314944  1.0000
  Au  Au7       1.0  0.5000000849999999  1.299999999673224e-07  0.4922149350046841  1.0000
  Au  Au8       1.0  0.9999999549999999  0.5000000699999999  0.5206555979543118  1.0000
  Au  Au9       1.0  8.499999997753047e-08  0.50000013  0.4922149350046841  1.0000
  Au  Au10      1.0  0.500000055  0.9999999500000001  0.5206555979543118  1.0000
  Au  Au11      1.0  0.4999998849999999  0.49999990999999994  0.5332285774715788  1.0000
  Au  Au12      1.0  4.499999997137338e-08  7.99999999673224e-08  0.5067615586504511  1.0000
  Pd  Pd1       1.0  0.5000000849999999  0.50000013  0.45031685764314944  1.0000
  Pd  Pd2       1.0  8.499999997137338e-08  1.299999999673224e-07  0.47824891145207  1.0000
  Pd  Pd3       1.0  0.49999993499999995  0.49999997999999996  0.5060917357635953  1.0000
  Pd  Pd4       1.0  4.4999999971373376e-08  4.999999996732239e-08  0.5344247508210196  1.0000
