data_image0
_chemical_formula_structural       COSe12
_chemical_formula_sum              "C1 O1 Se12"
_cell_length_a       5.1061273
_cell_length_b       7.9150123
_cell_length_c       101.98814137
_cell_angle_alpha    90.0
_cell_angle_beta     90.0
_cell_angle_gamma    90.0

_space_group_name_H-M_alt    "P 1"
_space_group_IT_number       1

loop_
  _space_group_symop_operation_xyz
  'x, y, z'

loop_
  _atom_site_type_symbol
  _atom_site_label
  _atom_site_symmetry_multiplicity
  _atom_site_fract_x
  _atom_site_fract_y
  _atom_site_fract_z
  _atom_site_occupancy
  C   C1        1.0  0.922402915  0.07234230999999999  0.5509089397469008  1.0000
  O   O1        1.0  0.919824135  0.10483733999999997  0.562283357292564  1.0000
  Se  Se1       1.0  0.7453768750000002  0.62932186  0.4453869046080898  1.0000
  Se  Se2       1.0  0.7453768750000002  0.12932185999999998  0.46779016801032913  1.0000
  Se  Se3       1.0  0.412043535  0.41011272  0.4453869046080898  1.0000
  Se  Se4       1.0  0.412043535  0.9101127199999999  0.46779016801032913  1.0000
  Se  Se5       1.0  0.078710205  0.51971729  0.4601199061096754  1.0000
  Se  Se6       1.0  0.078710205  0.019717289999999985  0.43771664270743604  1.0000
  Se  Se7       1.0  0.7457235950000001  0.62436495  0.4979336896227309  1.0000
  Se  Se8       1.0  0.6527942050000001  0.08729077999999998  0.5365944451040624  1.0000
  Se  Se9       1.0  0.409811935  0.41461951  0.4980681432587938  1.0000
  Se  Se10      1.0  0.19166655500000002  0.98028271  0.5384436656142956  1.0000
  Se  Se11      1.0  0.077597085  0.5210085799999999  0.5123185193124273  1.0000
  Se  Se12      1.0  0.078710205  0.019717289999999985  0.4825231695119149  1.0000
