data_image0
_chemical_formula_structural       W40CO
_chemical_formula_sum              "W40 C1 O1"
_cell_length_a       8.99813812
_cell_length_b       7.113652787330917
_cell_length_c       103.06127054000001
_cell_angle_alpha    75.03678258116297
_cell_angle_beta     90.0
_cell_angle_gamma    71.56505116992182

_space_group_name_H-M_alt    "P 1"
_space_group_IT_number       1

loop_
  _space_group_symop_operation_xyz
  'x, y, z'

loop_
  _atom_site_type_symbol
  _atom_site_label
  _atom_site_symmetry_multiplicity
  _atom_site_fract_x
  _atom_site_fract_y
  _atom_site_fract_z
  _atom_site_occupancy
  W   W1        1.0  0.45  0.4017488000000001  0.44900990801817464  1.0000
  W   W2        1.0  0.35  0.8017488000000003  0.45970298957992467  1.0000
  W   W3        1.0  0.050000000000000044  0.0017487999999999922  0.4917822278493271  1.0000
  W   W4        1.0  0.25  0.20174880000000003  0.4703960679337508  1.0000
  W   W5        1.0  0.15000000000000002  0.6017488  0.4810891462875771  1.0000
  W   W6        1.0  0.45  0.4017488000000001  0.47574260871462587  1.0000
  W   W7        1.0  0.35  0.8017488000000003  0.486435687068452  1.0000
  W   W8        1.0  0.050000000000000044  0.0017487999999999922  0.4650495271528759  1.0000
  W   W9        1.0  0.25  0.20174880000000003  0.44366337044522347  1.0000
  W   W10       1.0  0.15000000000000002  0.6017488  0.4543564487990497  1.0000
  W   W11       1.0  0.45  0.4017488000000001  0.5024753062031532  1.0000
  W   W12       1.0  0.35  0.8017488000000003  0.5131683845569794  1.0000
  W   W13       1.0  0.06520545999999994  0.0008469300000002455  0.5434769803987878  1.0000
  W   W14       1.0  0.25368978000000003  0.19679375  0.5240084788518704  1.0000
  W   W15       1.0  0.14959661000000005  0.58034365  0.5350397044562945  1.0000
  W   W16       1.0  0.4519010299999999  0.39501365  0.5291164944565934  1.0000
  W   W17       1.0  0.34882263999999996  0.7956702800000001  0.5382683931741664  1.0000
  W   W18       1.0  0.051381110000000035  0.003662959999999992  0.518116324762738  1.0000
  W   W19       1.0  0.25  0.20174880000000003  0.4971287654222782  1.0000
  W   W20       1.0  0.15000000000000002  0.6017488  0.5078218469840283  1.0000
  W   W21       1.0  0.9500000000000001  0.4017488000000001  0.44900990801817464  1.0000
  W   W22       1.0  0.8500000000000001  0.8017488000000003  0.45970298957992467  1.0000
  W   W23       1.0  0.5499999999999999  0.0017487999999999922  0.4917822278493271  1.0000
  W   W24       1.0  0.7499999999999999  0.20174880000000003  0.4703960679337508  1.0000
  W   W25       1.0  0.65  0.6017488  0.4810891462875771  1.0000
  W   W26       1.0  0.9500000000000001  0.4017488000000001  0.47574260871462587  1.0000
  W   W27       1.0  0.8500000000000001  0.8017488000000003  0.486435687068452  1.0000
  W   W28       1.0  0.5499999999999999  0.0017487999999999922  0.4650495271528759  1.0000
  W   W29       1.0  0.7499999999999999  0.20174880000000003  0.44366337044522347  1.0000
  W   W30       1.0  0.65  0.6017488  0.4543564487990497  1.0000
  W   W31       1.0  0.9500000000000001  0.4017488000000001  0.5024753062031532  1.0000
  W   W32       1.0  0.8500000000000001  0.8017488000000003  0.5131683845569794  1.0000
  W   W33       1.0  0.5557640399999999  0.9873232600000003  0.5429677898576614  1.0000
  W   W34       1.0  0.7514181600000002  0.19457083  0.5247365524515566  1.0000
  W   W35       1.0  0.6489445199999999  0.59840193  0.5332847551920616  1.0000
  W   W36       1.0  0.9441101900000001  0.40183831  0.528571452158777  1.0000
  W   W37       1.0  0.8510604199999999  0.8026527800000001  0.5384872088663258  1.0000
  W   W38       1.0  0.55101549  0.99915307  0.5185421124922878  1.0000
  W   W39       1.0  0.7499999999999999  0.20174880000000003  0.4971287654222782  1.0000
  W   W40       1.0  0.65  0.6017488  0.5078218469840283  1.0000
  C   C1        1.0  0.13120216000000007  0.30266297999999997  0.5460136269173977  1.0000
  O   O1        1.0  0.15018683000000005  0.1428787  0.5563366295547766  1.0000
