data_image0
_chemical_formula_structural       Ir12Sb24CO
_chemical_formula_sum              "Ir12 Sb24 C1 O1"
_cell_length_a       9.545826179799924
_cell_length_b       9.881840744154417
_cell_length_c       106.17918456999999
_cell_angle_alpha    83.51306480571795
_cell_angle_beta     88.71396092396219
_cell_angle_gamma    79.46335409978674

_space_group_name_H-M_alt    "P 1"
_space_group_IT_number       1

loop_
  _space_group_symop_operation_xyz
  'x, y, z'

loop_
  _atom_site_type_symbol
  _atom_site_label
  _atom_site_symmetry_multiplicity
  _atom_site_fract_x
  _atom_site_fract_y
  _atom_site_fract_z
  _atom_site_occupancy
  Ir  Ir1       1.0  0.18483311500000002  0.855839315  0.4762703342402069  1.0000
  Ir  Ir2       1.0  0.35866375500000003  0.010776784999999983  0.529677503959668  1.0000
  Ir  Ir3       1.0  0.7681664550000001  0.43917265499999997  0.504665089192531  1.0000
  Ir  Ir4       1.0  0.009976615000000022  0.773694245  0.5198223655956296  1.0000
  Ir  Ir5       1.0  0.435815165  0.188962145  0.4905991595607277  1.0000
  Ir  Ir6       1.0  0.852481835  0.605628815  0.46220440460840373  1.0000
  Ir  Ir7       1.0  0.353299935  0.606446915  0.4621486532085102  1.0000
  Ir  Ir8       1.0  0.5143187049999999  0.783142095  0.5172163982387745  1.0000
  Ir  Ir9       1.0  0.9366332649999999  0.189780245  0.490543408160834  1.0000
  Ir  Ir10      1.0  0.26898455500000007  0.43999075499999996  0.5046093377926372  1.0000
  Ir  Ir11      1.0  0.6856512150000001  0.8566574150000001  0.4762145828403133  1.0000
  Ir  Ir12      1.0  0.8957707149999999  0.016949754999999983  0.5309031795072747  1.0000
  Sb  Sb1       1.0  0.10478151500000002  0.688019175  0.49606305911785126  1.0000
  Sb  Sb2       1.0  0.5214481850000001  0.104685845  0.4676683007581567  1.0000
  Sb  Sb3       1.0  0.7100634549999999  0.260598105  0.525897257835306  1.0000
  Sb  Sb4       1.0  0.7728809450000002  0.635468095  0.521029784450862  1.0000
  Sb  Sb5       1.0  0.21249370499999998  0.05340922499999999  0.49148052711075146  1.0000
  Sb  Sb6       1.0  0.6291603750000001  0.470075895  0.4630857721584276  1.0000
  Sb  Sb7       1.0  0.14381846500000003  0.516826155  0.5260930726164507  1.0000
  Sb  Sb8       1.0  0.6000182049999999  0.9409337250000002  0.4991454416428843  1.0000
  Sb  Sb9       1.0  0.016684864999999993  0.357600385  0.47075068669056036  1.0000
  Sb  Sb10      1.0  0.49230600499999994  0.575543665  0.5037279736499841  1.0000
  Sb  Sb11      1.0  0.908972675  0.9922103350000001  0.4753332186976602  1.0000
  Sb  Sb12      1.0  0.104369695  0.145729355  0.5334107147384648  1.0000
  Sb  Sb13      1.0  0.456477425  0.739851945  0.4792057057550694  1.0000
  Sb  Sb14      1.0  0.873144085  0.156518605  0.4508109508027456  1.0000
  Sb  Sb15      1.0  0.03825606500000001  0.316741665  0.5086870303449245  1.0000
  Sb  Sb16      1.0  0.279527025  0.42030568499999993  0.47980256466383187  1.0000
  Sb  Sb17      1.0  0.6961936850000001  0.8369723450000001  0.4514078097115079  1.0000
  Sb  Sb18      1.0  0.8591690050000002  0.0077896649999999856  0.5076582906034326  1.0000
  Sb  Sb19      1.0  0.081655625  0.722434285  0.4592132816936477  1.0000
  Sb  Sb20      1.0  0.24464207500000001  0.8743142650000001  0.5153353728564444  1.0000
  Sb  Sb21      1.0  0.664988965  0.305767625  0.4876080366459716  1.0000
  Sb  Sb22      1.0  0.25860603500000007  0.04198055499999999  0.4586164227848853  1.0000
  Sb  Sb23      1.0  0.434008035  0.211047555  0.5157496001014187  1.0000
  Sb  Sb24      1.0  0.8419393650000002  0.625313885  0.4870111777372092  1.0000
  C   C1        1.0  0.983315135  0.821440135  0.538534497364004  1.0000
  O   O1        1.0  0.0025969649999999815  0.7668644150000001  0.5491890491972544  1.0000
