data_image0
_chemical_formula_structural       COZn15Co5Zn15Co5
_chemical_formula_sum              "C1 O1 Zn30 Co10"
_cell_length_a       5.33755881
_cell_length_b       8.439421494603819
_cell_length_c       109.22288667000001
_cell_angle_alpha    75.03678256679852
_cell_angle_beta     90.0
_cell_angle_gamma    71.56505114639928

_space_group_name_H-M_alt    "P 1"
_space_group_IT_number       1

loop_
  _space_group_symop_operation_xyz
  'x, y, z'

loop_
  _atom_site_type_symbol
  _atom_site_label
  _atom_site_symmetry_multiplicity
  _atom_site_fract_x
  _atom_site_fract_y
  _atom_site_fract_z
  _atom_site_occupancy
  C   C1        1.0  0.2215099099999999  0.6274112900000001  0.5536245733952949  1.0000
  O   O1        1.0  0.22664791999999995  0.6185527200000001  0.564570521980723  1.0000
  Zn  Zn1       1.0  0.009967869999999952  0.5499999999999999  0.4593700542992998  1.0000
  Zn  Zn2       1.0  0.80996787  0.9500000000000001  0.471340346030398  1.0000
  Zn  Zn3       1.0  0.20996786999999992  0.15000000000000002  0.4473997661592884  1.0000
  Zn  Zn4       1.0  0.60996787  0.35  0.4833106341704093  1.0000
  Zn  Zn5       1.0  0.40996787  0.75  0.435429478019277  1.0000
  Zn  Zn6       1.0  0.50996787  0.5499999999999999  0.4593700542992998  1.0000
  Zn  Zn7       1.0  0.30996787000000003  0.9500000000000001  0.471340346030398  1.0000
  Zn  Zn8       1.0  0.70996787  0.15000000000000002  0.4473997661592884  1.0000
  Zn  Zn9       1.0  0.10996786999999991  0.35  0.4833106341704093  1.0000
  Zn  Zn10      1.0  0.9099678699999999  0.75  0.435429478019277  1.0000
  Zn  Zn11      1.0  0.9099678700000001  0.25  0.4653552001648489  1.0000
  Zn  Zn12      1.0  0.70996787  0.65  0.4773254883048603  1.0000
  Zn  Zn13      1.0  0.10996786999999984  0.8500000000000001  0.45338491202483744  1.0000
  Zn  Zn14      1.0  0.50996787  0.04999999999999998  0.48929578003595847  1.0000
  Zn  Zn15      1.0  0.30996786999999987  0.45  0.4414146202937393  1.0000
  Co  Co1       1.0  0.80996787  0.45  0.4414146202937393  1.0000
  Co  Co2       1.0  0.6099678699999999  0.8500000000000001  0.45338491202483744  1.0000
  Co  Co3       1.0  0.009967869999999952  0.04999999999999998  0.48929578003595847  1.0000
  Co  Co4       1.0  0.40996787  0.25  0.4653552001648489  1.0000
  Co  Co5       1.0  0.2099678699999999  0.65  0.4773254883048603  1.0000
  Zn  Zn16      1.0  0.009967869999999952  0.5499999999999999  0.5192215021815304  1.0000
  Zn  Zn17      1.0  0.8143950100000001  0.9439513199999999  0.5320729065612363  1.0000
  Zn  Zn18      1.0  0.20996786999999992  0.15000000000000002  0.5072512140415191  1.0000
  Zn  Zn19      1.0  0.6095524200000001  0.35415598  0.5444663719609776  1.0000
  Zn  Zn20      1.0  0.40996787  0.75  0.4952809223104208  1.0000
  Zn  Zn21      1.0  0.50996787  0.5499999999999999  0.5192215021815304  1.0000
  Zn  Zn22      1.0  0.31115779000000005  0.9439505800000001  0.532073236941222  1.0000
  Zn  Zn23      1.0  0.70996787  0.15000000000000002  0.5072512140415191  1.0000
  Zn  Zn24      1.0  0.10543246999999992  0.35418337000000005  0.5444881231737319  1.0000
  Zn  Zn25      1.0  0.9099678699999999  0.75  0.4952809223104208  1.0000
  Zn  Zn26      1.0  0.9057643300000001  0.25741282  0.5242636717461491  1.0000
  Zn  Zn27      1.0  0.7075473800000001  0.6537430499999999  0.5372532000974861  1.0000
  Zn  Zn28      1.0  0.10996786999999984  0.8500000000000001  0.5132363563159813  1.0000
  Zn  Zn29      1.0  0.50285009  0.06407754999999998  0.5490387447770143  1.0000
  Zn  Zn30      1.0  0.30996786999999987  0.45  0.50126606817597  1.0000
  Co  Co6       1.0  0.80996787  0.45  0.50126606817597  1.0000
  Co  Co7       1.0  0.6099678699999999  0.8500000000000001  0.5132363563159813  1.0000
  Co  Co8       1.0  0.9900321300000002  0.08960523  0.545867822313806  1.0000
  Co  Co9       1.0  0.40794309  0.25249522999999996  0.5245115716502035  1.0000
  Co  Co10      1.0  0.21483871999999993  0.6394718300000001  0.5374493991248649  1.0000
