data_image0
_chemical_formula_structural       COIn4Au6In4Au6
_chemical_formula_sum              "C1 O1 In8 Au12"
_cell_length_a       5.79377868
_cell_length_b       8.21699304
_cell_length_c       103.20858202
_cell_angle_alpha    90.0
_cell_angle_beta     90.0
_cell_angle_gamma    90.0

_space_group_name_H-M_alt    "P 1"
_space_group_IT_number       1

loop_
  _space_group_symop_operation_xyz
  'x, y, z'

loop_
  _atom_site_type_symbol
  _atom_site_label
  _atom_site_symmetry_multiplicity
  _atom_site_fract_x
  _atom_site_fract_y
  _atom_site_fract_z
  _atom_site_occupancy
  C   C1        1.0  0.6774461599999999  0.762250085  0.541479887450143  1.0000
  O   O1        1.0  0.74682663  0.793034605  0.55175134227617  1.0000
  In  In1       1.0  0.17392346999999994  0.751755005  0.47123164498119435  1.0000
  In  In2       1.0  0.17392346999999994  0.251755005  0.44824865772382994  1.0000
  In  In3       1.0  0.82607653  0.41842166499999994  0.47123164498119435  1.0000
  In  In4       1.0  0.82607653  0.918421665  0.44824865772382994  1.0000
  Au  Au1       1.0  0.6846650599999999  0.751755005  0.47123164498119435  1.0000
  Au  Au2       1.0  0.6846650599999999  0.251755005  0.44824865772382994  1.0000
  Au  Au3       1.0  0.31533493999999995  0.41842166499999994  0.47123164498119435  1.0000
  Au  Au4       1.0  0.31533493999999995  0.918421665  0.44824865772382994  1.0000
  Au  Au5       1.0  0.4999999999999999  0.585088335  0.44824865772382994  1.0000
  Au  Au6       1.0  0.4999999999999999  0.08508833499999999  0.47123164498119435  1.0000
  In  In5       1.0  0.19770806999999996  0.718018525  0.5169556803421846  1.0000
  In  In6       1.0  0.20131670999999995  0.251312065  0.4950491698038504  1.0000
  In  In7       1.0  0.7614243099999999  0.38897746499999997  0.5193756124394415  1.0000
  In  In8       1.0  0.81079523  0.898898035  0.4964728918876996  1.0000
  Au  Au7       1.0  0.71033287  0.764602175  0.5213362874443029  1.0000
  Au  Au8       1.0  0.71660259  0.241445255  0.4935181047565494  1.0000
  Au  Au9       1.0  0.25376467999999996  0.378108825  0.520764761214868  1.0000
  Au  Au10      1.0  0.29713233999999994  0.907172085  0.4942158227573225  1.0000
  Au  Au11      1.0  0.5178558899999999  0.576710755  0.4952843423063454  1.0000
  Au  Au12      1.0  0.5002824899999999  0.08157833499999999  0.5165261862188825  1.0000
