data_image0
_chemical_formula_structural       Rh4Sn2V2Rh4Sn2V2CO
_chemical_formula_sum              "Rh8 Sn4 V4 C1 O1"
_cell_length_a       8.20552348
_cell_length_b       4.6988421296646345
_cell_length_c       98.71550431
_cell_angle_alpha    88.23612926915872
_cell_angle_beta     90.0
_cell_angle_gamma    115.88533733621638

_space_group_name_H-M_alt    "P 1"
_space_group_IT_number       1

loop_
  _space_group_symop_operation_xyz
  'x, y, z'

loop_
  _atom_site_type_symbol
  _atom_site_label
  _atom_site_symmetry_multiplicity
  _atom_site_fract_x
  _atom_site_fract_y
  _atom_site_fract_z
  _atom_site_occupancy
  Rh  Rh1       1.0  0.17187499999999997  0.6875000000000001  0.47608412723143706  1.0000
  Rh  Rh2       1.0  0.48437499999999994  0.9375000000000001  0.4579034064630056  1.0000
  Rh  Rh3       1.0  0.029218259999999933  0.18016481999999998  0.5120262457155814  1.0000
  Rh  Rh4       1.0  0.3551843299999999  0.42045101  0.4928299033423803  1.0000
  Sn  Sn1       1.0  0.01562499999999994  0.06249999999999998  0.4851744876156528  1.0000
  Sn  Sn2       1.0  0.39914007  0.55510086  0.5197478305391602  1.0000
  V   V1        1.0  0.32812499999999994  0.31249999999999994  0.4669937668472214  1.0000
  V   V2        1.0  0.19555675999999994  0.85067539  0.510323698301874  1.0000
  Rh  Rh5       1.0  0.6718749999999999  0.6875000000000001  0.47608412723143706  1.0000
  Rh  Rh6       1.0  0.9843749999999999  0.9375000000000001  0.4579034064630056  1.0000
  Rh  Rh7       1.0  0.5441301899999998  0.18155704  0.5114081419342693  1.0000
  Rh  Rh8       1.0  0.8584667799999999  0.44216361  0.4940124472351269  1.0000
  Sn  Sn3       1.0  0.5156249999999999  0.06249999999999998  0.4851744876156528  1.0000
  Sn  Sn4       1.0  0.8571559799999998  0.53102872  0.522062736626417  1.0000
  V   V3        1.0  0.8281249999999999  0.31249999999999994  0.4669937668472214  1.0000
  V   V4        1.0  0.7073992299999999  0.81152429  0.5026761482821798  1.0000
  C   C1        1.0  0.20688649999999995  0.88339312  0.5301614419592088  1.0000
  O   O1        1.0  0.21838020999999996  0.9084908500000001  0.5420965935369945  1.0000
