data_image0
_chemical_formula_structural       COCu24Sn20
_chemical_formula_sum              "C1 O1 Cu24 Sn20"
_cell_length_a       11.27350567
_cell_length_b       10.08250302614109
_cell_length_c       99.7307512
_cell_angle_alpha    90.0
_cell_angle_beta     90.0
_cell_angle_gamma    98.66793515422712

_space_group_name_H-M_alt    "P 1"
_space_group_IT_number       1

loop_
  _space_group_symop_operation_xyz
  'x, y, z'

loop_
  _atom_site_type_symbol
  _atom_site_label
  _atom_site_symmetry_multiplicity
  _atom_site_fract_x
  _atom_site_fract_y
  _atom_site_fract_z
  _atom_site_occupancy
  C   C1        1.0  0.611483215  0.20031835500000003  0.5339522576588567  1.0000
  O   O1        1.0  0.619055205  0.19440213500000003  0.5455691817072766  1.0000
  Cu  Cu1       1.0  0.5990030750000002  0.20630676500000006  0.5154218129590511  1.0000
  Cu  Cu2       1.0  0.39541330500000005  0.30175367500000005  0.5136226733662403  1.0000
  Cu  Cu3       1.0  0.40071569500000004  0.8014603650000001  0.5178089718811948  1.0000
  Cu  Cu4       1.0  0.6045662350000002  0.7038708250000001  0.5177785139651202  1.0000
  Cu  Cu5       1.0  0.8096224550000001  0.605815785  0.5148183187307906  1.0000
  Cu  Cu6       1.0  0.19326046500000005  0.895814315  0.5151550013757497  1.0000
  Cu  Cu7       1.0  0.1983954550000001  0.3913958250000001  0.5146307955094189  1.0000
  Cu  Cu8       1.0  0.806002925  0.10985308500000004  0.514885137144307  1.0000
  Cu  Cu9       1.0  0.9986836049999999  0.999338005  0.5142350333909582  1.0000
  Cu  Cu10      1.0  0.0055247050000000585  0.501946465  0.5140449553654292  1.0000
  Cu  Cu11      1.0  0.5064664850000001  0.24815718500000006  0.49204300282981817  1.0000
  Cu  Cu12      1.0  0.5032236350000001  0.7506619950000001  0.46818789910078584  1.0000
  Cu  Cu13      1.0  0.10497999500000008  0.20443135500000004  0.4781638667748299  1.0000
  Cu  Cu14      1.0  0.9014672750000001  0.29689263500000007  0.4781638667748299  1.0000
  Cu  Cu15      1.0  0.9014672750000001  0.7968926350000001  0.4822152704378342  1.0000
  Cu  Cu16      1.0  0.10497999500000009  0.7044313550000001  0.4822152704378342  1.0000
  Cu  Cu17      1.0  0.31003761500000004  0.6104165450000001  0.4804868813316827  1.0000
  Cu  Cu18      1.0  0.6964096550000001  0.890907445  0.4804868813316827  1.0000
  Cu  Cu19      1.0  0.6964096550000001  0.3909074450000001  0.47989225886208314  1.0000
  Cu  Cu20      1.0  0.31003761500000004  0.11041654500000006  0.47989225886208314  1.0000
  Cu  Cu21      1.0  0.5032236350000001  0.0006619950000000424  0.48018957009688296  1.0000
  Cu  Cu22      1.0  0.5032236350000001  0.5006619950000001  0.48018957009688296  1.0000
  Cu  Cu23      1.0  0.003223635000000062  0.250661995  0.45492746983603594  1.0000
  Cu  Cu24      1.0  0.0023640750000000718  0.7509704750000001  0.5072778783539817  1.0000
  Sn  Sn1       1.0  0.3950910050000001  0.529387005  0.45501204369128073  1.0000
  Sn  Sn2       1.0  0.6113562650000001  0.971936985  0.45501204369128073  1.0000
  Sn  Sn3       1.0  0.6058852350000001  0.4687692950000001  0.5057415824981089  1.0000
  Sn  Sn4       1.0  0.3936800950000001  0.03643408500000004  0.5058958485489092  1.0000
  Sn  Sn5       1.0  0.789590075  0.35857747500000003  0.4544308182927234  1.0000
  Sn  Sn6       1.0  0.21685719500000006  0.14274651500000005  0.4544308182927234  1.0000
  Sn  Sn7       1.0  0.21645340500000007  0.6455743850000001  0.5063488329145122  1.0000
  Sn  Sn8       1.0  0.7885503950000002  0.8571953550000002  0.5061825112884347  1.0000
  Sn  Sn9       1.0  0.5032236350000001  0.250661995  0.4652560273137133  1.0000
  Sn  Sn10      1.0  0.502490465  0.752859485  0.49516885192344423  1.0000
  Sn  Sn11      1.0  0.897664555  0.5361172650000001  0.49065678159575477  1.0000
  Sn  Sn12      1.0  0.10839494500000003  0.9655674449999999  0.49077041821147827  1.0000
  Sn  Sn13      1.0  0.11135626500000007  0.47193698500000003  0.4681033252455411  1.0000
  Sn  Sn14      1.0  0.8950910049999999  0.029387005000000042  0.4681033252455411  1.0000
  Sn  Sn15      1.0  0.29202049500000005  0.3571627150000001  0.49049448743807483  1.0000
  Sn  Sn16      1.0  0.7123324850000002  0.14509360500000004  0.49135776977403023  1.0000
  Sn  Sn17      1.0  0.716857195  0.6427465150000001  0.46868455064409836  1.0000
  Sn  Sn18      1.0  0.28959007500000006  0.8585774749999998  0.46868455064409836  1.0000
  Sn  Sn19      1.0  0.0013163950000000626  0.25096824500000003  0.5035231777810304  1.0000
  Sn  Sn20      1.0  0.003223635000000072  0.7506619950000001  0.4578593416231085  1.0000
