data_image0
_chemical_formula_structural       Pt12Sb8CO
_chemical_formula_sum              "Pt12 Sb8 C1 O1"
_cell_length_a       7.033321300183606
_cell_length_b       7.033321298758093
_cell_length_c       36.33815386
_cell_angle_alpha    88.04566484864698
_cell_angle_beta     88.04566484904323
_cell_angle_gamma    104.96441869723171

_space_group_name_H-M_alt    "P 1"
_space_group_IT_number       1

loop_
  _space_group_symop_operation_xyz
  'x, y, z'

loop_
  _atom_site_type_symbol
  _atom_site_label
  _atom_site_symmetry_multiplicity
  _atom_site_fract_x
  _atom_site_fract_y
  _atom_site_fract_z
  _atom_site_occupancy
  Pt  Pt1       1.0  0.7167545300000001  0.46003841  0.570496961644663  1.0000
  Pt  Pt2       1.0  0.3485733300000001  0.12238913999999997  0.44587688468873327  1.0000
  Pt  Pt3       1.0  0.29219619000000013  0.50255104  0.415883082136017  1.0000
  Pt  Pt4       1.0  0.68092855  0.8716657399999999  0.5304382559837225  1.0000
  Pt  Pt5       1.0  0.3229657100000001  0.09678151999999997  0.35798621175961964  1.0000
  Pt  Pt6       1.0  0.6979657100000001  0.47178152  0.4737799525124142  1.0000
  Pt  Pt7       1.0  0.3152424200000001  0.53428055  0.5048598818263934  1.0000
  Pt  Pt8       1.0  0.94280381  0.15315866  0.387980014312336  1.0000
  Pt  Pt9       1.0  0.29335557000000007  0.26885691  0.5759299205892907  1.0000
  Pt  Pt10      1.0  0.9141347600000002  0.9062200900000001  0.45982841860057366  1.0000
  Pt  Pt11      1.0  0.11188021000000008  0.09377990999999997  0.5164374865733141  1.0000
  Pt  Pt12      1.0  0.7266347600000002  0.71872009  0.40193154822417654  1.0000
  Sb  Sb1       1.0  0.1256128600000001  0.8071734300000001  0.403095840392197  1.0000
  Sb  Sb2       1.0  0.5154049000000002  0.17948478999999995  0.5216244903490836  1.0000
  Sb  Sb3       1.0  0.89735388  0.15087910999999996  0.5759448626135975  1.0000
  Sb  Sb4       1.0  0.5151566600000002  0.8177667499999999  0.45866412643255344  1.0000
  Sb  Sb5       1.0  0.40460883  0.64723502  0.5752443012185438  1.0000
  Sb  Sb6       1.0  0.002588100000000093  0.30519819  0.4609927107685942  1.0000
  Sb  Sb7       1.0  0.9974119000000001  0.68720207  0.5185376330175979  1.0000
  Sb  Sb8       1.0  0.63818142  0.3197419899999999  0.40076725605615615  1.0000
  C   C1        1.0  0.8187097200000002  0.5774333  0.6140062559355418  1.0000
  O   O1        1.0  0.88018469  0.6370861  0.6420137882403804  1.0000
