data_image0
_chemical_formula_structural       COAl24Cu12
_chemical_formula_sum              "C1 O1 Al24 Cu12"
_cell_length_a       4.8638577
_cell_length_b       13.722413239224991
_cell_length_c       104.71526466
_cell_angle_alpha    71.56505119028158
_cell_angle_beta     90.0
_cell_angle_gamma    90.0

_space_group_name_H-M_alt    "P 1"
_space_group_IT_number       1

loop_
  _space_group_symop_operation_xyz
  'x, y, z'

loop_
  _atom_site_type_symbol
  _atom_site_label
  _atom_site_symmetry_multiplicity
  _atom_site_fract_x
  _atom_site_fract_y
  _atom_site_fract_z
  _atom_site_occupancy
  C   C1        1.0  0.8513150699999998  0.743536535  0.5352407547195608  1.0000
  O   O1        1.0  0.8956229  0.694959535  0.5469341484101873  1.0000
  Al  Al1       1.0  0.59454613  0.6644695549999999  0.5220012717338159  1.0000
  Al  Al2       1.0  0.6043771  0.301327445  0.4945059233557547  1.0000
  Al  Al3       1.0  0.6043771  0.9679941049999999  0.46687920995019544  1.0000
  Al  Al4       1.0  0.10437710000000001  0.529586575  0.456669622784426  1.0000
  Al  Al5       1.0  0.10676384000000001  0.204656475  0.511681341260154  1.0000
  Al  Al6       1.0  0.10437710000000001  0.862919905  0.4842963395051911  1.0000
  Al  Al7       1.0  0.10437710000000001  0.862919905  0.45817064185749173  1.0000
  Al  Al8       1.0  0.10736700000000002  0.5335709850000001  0.5117829456857127  1.0000
  Al  Al9       1.0  0.10437710000000001  0.196253245  0.4857973585782568  1.0000
  Al  Al10      1.0  0.6043771  0.757845705  0.4755877714124875  1.0000
  Al  Al11      1.0  0.60794797  0.465550625  0.5256287731711252  1.0000
  Al  Al12      1.0  0.60790384  0.09726501500000001  0.5018908358825509  1.0000
  Al  Al13      1.0  0.10437710000000001  0.634660775  0.48069256499537216  1.0000
  Al  Al14      1.0  0.10437710000000001  0.301327445  0.45306585158981283  1.0000
  Al  Al15      1.0  0.10534699  0.9704134249999999  0.5082544594982781  1.0000
  Al  Al16      1.0  0.6216632800000002  0.8751526049999999  0.524449895955145  1.0000
  Al  Al17      1.0  0.6053035100000002  0.535125405  0.49665421645857  1.0000
  Al  Al18      1.0  0.6043771  0.196253245  0.4704829811448086  1.0000
  Al  Al19      1.0  0.6043771  0.529586575  0.47198400021787434  1.0000
  Al  Al20      1.0  0.60493495  0.201557925  0.5235740484351517  1.0000
  Al  Al21      1.0  0.60964509  0.8633166250000001  0.49922024206081467  1.0000
  Al  Al22      1.0  0.10910897  0.764497815  0.5169866285406538  1.0000
  Al  Al23      1.0  0.10437710000000001  0.424512375  0.48940112977287004  1.0000
  Al  Al24      1.0  0.10437710000000001  0.09117904500000001  0.46177441636731065  1.0000
  Cu  Cu1       1.0  0.3543771  0.696253245  0.4574201323209589  1.0000
  Cu  Cu2       1.0  0.35565119000000006  0.368540105  0.5124974388270723  1.0000
  Cu  Cu3       1.0  0.3543771  0.029586575000000007  0.48504684904172396  1.0000
  Cu  Cu4       1.0  0.8543771  0.696253245  0.4574201323209589  1.0000
  Cu  Cu5       1.0  0.85593239  0.367662315  0.5125580407880228  1.0000
  Cu  Cu6       1.0  0.8543771  0.029586575000000007  0.48504684904172396  1.0000
  Cu  Cu7       1.0  0.8525958099999998  0.697554465  0.49911844203811745  1.0000
  Cu  Cu8       1.0  0.8543771  0.36291990500000004  0.4712334906813414  1.0000
  Cu  Cu9       1.0  0.8579824800000001  0.04018481500000001  0.5249425686803559  1.0000
  Cu  Cu10      1.0  0.35248477  0.698790935  0.4983606755162169  1.0000
  Cu  Cu11      1.0  0.3543771  0.36291990500000004  0.4712334906813414  1.0000
  Cu  Cu12      1.0  0.36000322000000007  0.03722708500000001  0.5248396713245582  1.0000
