data_image0
_chemical_formula_structural       Al10V30CO
_chemical_formula_sum              "Al10 V30 C1 O1"
_cell_length_a       6.81729693
_cell_length_b       10.779092899818226
_cell_length_c       36.60220218
_cell_angle_alpha    104.96321743762856
_cell_angle_beta     90.0
_cell_angle_gamma    71.5650511624961

_space_group_name_H-M_alt    "P 1"
_space_group_IT_number       1

loop_
  _space_group_symop_operation_xyz
  'x, y, z'

loop_
  _atom_site_type_symbol
  _atom_site_label
  _atom_site_symmetry_multiplicity
  _atom_site_fract_x
  _atom_site_fract_y
  _atom_site_fract_z
  _atom_site_occupancy
  Al  Al1       1.0  0.8352409  0.39396147  0.5640916277424548  1.0000
  Al  Al2       1.0  0.6263893799999998  0.7995099800000001  0.5173025587272291  1.0000
  Al  Al3       1.0  0.02500000000000006  0.004282469999999973  0.38295820000478464  1.0000
  Al  Al4       1.0  0.42500000000000004  0.20428247  0.474203523594219  1.0000
  Al  Al5       1.0  0.22500000000000003  0.60428247  0.4285808617995018  1.0000
  Al  Al6       1.0  0.8250000000000001  0.40428247  0.4513921926968604  1.0000
  Al  Al7       1.0  0.6249999999999998  0.8042824700000001  0.40576953090214324  1.0000
  Al  Al8       1.0  0.02500000000000006  0.004282469999999973  0.4970148544915777  1.0000
  Al  Al9       1.0  0.4448603900000001  0.19833225  0.5909150885142996  1.0000
  Al  Al10      1.0  0.21378286  0.60964172  0.543028566369602  1.0000
  V   V1        1.0  0.62238402  0.55960986  0.5221674582714498  1.0000
  V   V2        1.0  0.42500000000000004  0.9542824699999999  0.474203523594219  1.0000
  V   V3        1.0  0.86221335  0.14741972999999997  0.56847350191719  1.0000
  V   V4        1.0  0.22500000000000006  0.35428246999999996  0.42858086179950183  1.0000
  V   V5        1.0  0.02500000000000017  0.7542824699999999  0.38295820000478464  1.0000
  V   V6        1.0  0.42500000000000004  0.45428247  0.474203523594219  1.0000
  V   V7        1.0  0.22499999999999998  0.8542824699999999  0.4285808617995017  1.0000
  V   V8        1.0  0.63648433  0.04883079999999997  0.5224805209766852  1.0000
  V   V9        1.0  0.02500000000000004  0.25428247  0.38295820000478464  1.0000
  V   V10       1.0  0.81209949  0.6532857400000001  0.5634559306975395  1.0000
  V   V11       1.0  0.08663531000000003  0.40407492  0.507648703121611  1.0000
  V   V12       1.0  0.8750000000000001  0.8042824700000001  0.46279785814553975  1.0000
  V   V13       1.0  0.2906074399999999  0.9957175300000001  0.5522028548034988  1.0000
  V   V14       1.0  0.675  0.20428247  0.4171751963508225  1.0000
  V   V15       1.0  0.5026436799999999  0.5913577  0.5887037489725773  1.0000
  V   V16       1.0  0.9749999999999999  0.60428247  0.4856091890428983  1.0000
  V   V17       1.0  0.7749999999999999  0.004282469999999973  0.43998652724818116  1.0000
  V   V18       1.0  0.18552923000000007  0.20108269999999998  0.5297378546563563  1.0000
  V   V19       1.0  0.575  0.40428247  0.3943638654534639  1.0000
  V   V20       1.0  0.36882589  0.81180852  0.5727517031552631  1.0000
  V   V21       1.0  0.07500000000000004  0.15428246999999998  0.45139219269686043  1.0000
  V   V22       1.0  0.8749999999999999  0.5542824700000001  0.4057695309021433  1.0000
  V   V23       1.0  0.27500000000000013  0.7542824699999999  0.4970148544915777  1.0000
  V   V24       1.0  0.6726436199999999  0.94545129  0.58196300981694  1.0000
  V   V25       1.0  0.46717508  0.35849426  0.5448198306905833  1.0000
  V   V26       1.0  0.7749999999999999  0.25428247  0.49701485449157756  1.0000
  V   V27       1.0  0.5750000000000001  0.6542824700000001  0.4513921926968604  1.0000
  V   V28       1.0  0.9578421599999999  0.8651084800000001  0.5430079358019384  1.0000
  V   V29       1.0  0.375  0.05428246999999998  0.40576953090214324  1.0000
  V   V30       1.0  0.18362798000000008  0.42776607999999994  0.5821874915620348  1.0000
  C   C1        1.0  0.08339067000000006  0.23965047999999994  0.5855350634957546  1.0000
  O   O1        1.0  0.17541234000000008  0.30608852  0.6170417999952155  1.0000
