data_image0
_chemical_formula_structural       Sb16V8CO
_chemical_formula_sum              "Sb16 V8 C1 O1"
_cell_length_a       5.474670368800526
_cell_length_b       8.707330609939628
_cell_length_c       38.24472132
_cell_angle_alpha    84.8860593804742
_cell_angle_beta     85.935189276255
_cell_angle_gamma    97.42666187131726

_space_group_name_H-M_alt    "P 1"
_space_group_IT_number       1

loop_
  _space_group_symop_operation_xyz
  'x, y, z'

loop_
  _atom_site_type_symbol
  _atom_site_label
  _atom_site_symmetry_multiplicity
  _atom_site_fract_x
  _atom_site_fract_y
  _atom_site_fract_z
  _atom_site_occupancy
  Sb  Sb1       1.0  0.48048371000000006  0.66854826  0.49220810121401604  1.0000
  Sb  Sb2       1.0  0.14715037000000006  0.16854826  0.4230149413177628  1.0000
  Sb  Sb3       1.0  0.8138170400000001  0.66854826  0.35382177311833  1.0000
  Sb  Sb4       1.0  0.83039604  0.17437939  0.5608310568631143  1.0000
  Sb  Sb5       1.0  0.93617943  0.5810501599999999  0.5503134359718977  1.0000
  Sb  Sb6       1.0  0.6046056799999999  0.07545677999999999  0.47932551060974826  1.0000
  Sb  Sb7       1.0  0.27127235  0.5754567799999999  0.4101323507134949  1.0000
  Sb  Sb8       1.0  0.2743167000000001  0.10919287  0.6225304228760887  1.0000
  Sb  Sb9       1.0  0.06206099000000006  0.82545678  0.47049410771856726  1.0000
  Sb  Sb10      1.0  0.7287276500000001  0.32545678  0.4013009478223141  1.0000
  Sb  Sb11      1.0  0.7255708100000001  0.85268435  0.6066418072807735  1.0000
  Sb  Sb12      1.0  0.39539432  0.32545678  0.5396872676148204  1.0000
  Sb  Sb13      1.0  0.25635541  0.92454322  0.5573901279351852  1.0000
  Sb  Sb14      1.0  0.9379390100000001  0.41854826  0.4833766983228349  1.0000
  Sb  Sb15      1.0  0.60460568  0.91854826  0.4141835301234023  1.0000
  Sb  Sb16      1.0  0.62324377  0.41864213  0.6248404338438991  1.0000
  V   V1        1.0  0.7712723499999999  0.87200252  0.5332459764642764  1.0000
  V   V2        1.0  0.43793901  0.37200251999999995  0.4640528165680231  1.0000
  V   V3        1.0  0.10460568000000002  0.87200252  0.39485964836859055  1.0000
  V   V4        1.0  0.12864110000000004  0.38162666  0.5979518822654284  1.0000
  V   V5        1.0  0.43793901  0.12200251999999999  0.3602630725720536  1.0000
  V   V6        1.0  0.4339047200000001  0.63013823  0.571679285453266  1.0000
  V   V7        1.0  0.10460568000000005  0.12200251999999999  0.4986493923645601  1.0000
  V   V8        1.0  0.7712723499999999  0.62200252  0.4294562324683067  1.0000
  C   C1        1.0  0.26813544000000006  0.63946637  0.6178608060491967  1.0000
  O   O1        1.0  0.16809344000000004  0.65116131  0.6461782268816703  1.0000
