data_image0
_chemical_formula_structural       COAl12Au6
_chemical_formula_sum              "C1 O1 Al12 Au6"
_cell_length_a       6.09225131
_cell_length_b       7.461453554720657
_cell_length_c       102.80777737
_cell_angle_alpha    94.34775311892271
_cell_angle_beta     90.0
_cell_angle_gamma    114.09484256817541

_space_group_name_H-M_alt    "P 1"
_space_group_IT_number       1

loop_
  _space_group_symop_operation_xyz
  'x, y, z'

loop_
  _atom_site_type_symbol
  _atom_site_label
  _atom_site_symmetry_multiplicity
  _atom_site_fract_x
  _atom_site_fract_y
  _atom_site_fract_z
  _atom_site_occupancy
  C   C1        1.0  0.6076005499999999  0.153253745  0.5406501712982051  1.0000
  O   O1        1.0  0.6187614899999998  0.174818315  0.5519717063839069  1.0000
  Al  Al1       1.0  0.8953553299999999  0.22990130499999997  0.4746214309066822  1.0000
  Al  Al2       1.0  0.47868865999999993  0.396567965  0.4480282936160929  1.0000
  Al  Al3       1.0  0.3126994199999999  0.06176536500000001  0.5018122787660996  1.0000
  Al  Al4       1.0  0.3953553299999999  0.22990130499999997  0.4746214309066822  1.0000
  Al  Al5       1.0  0.97868866  0.396567965  0.4480282936160929  1.0000
  Al  Al6       1.0  0.8097773199999998  0.06177177500000001  0.501811713927841  1.0000
  Al  Al7       1.0  0.18702199999999983  0.8132346349999999  0.4613248638569759  1.0000
  Al  Al8       1.0  0.02131133999999989  0.480045025  0.513717598125936  1.0000
  Al  Al9       1.0  0.60368866  0.646567965  0.48791800114756506  1.0000
  Al  Al10      1.0  0.6870219999999998  0.8132346349999999  0.4613248638569759  1.0000
  Al  Al11      1.0  0.5197755899999998  0.479770465  0.513707667184349  1.0000
  Al  Al12      1.0  0.10368865999999989  0.646567965  0.48791800114756506  1.0000
  Au  Au1       1.0  0.20634955999999985  0.35177294499999995  0.4940082946787616  1.0000
  Au  Au2       1.0  0.7911886599999999  0.521567965  0.46797314738182905  1.0000
  Au  Au3       1.0  0.6325770299999999  0.203867225  0.521156230786405  1.0000
  Au  Au4       1.0  0.49952199999999986  0.9382346349999999  0.4812697176227119  1.0000
  Au  Au5       1.0  0.08285532999999991  0.10490130499999999  0.45467657714094617  1.0000
  Au  Au6       1.0  0.9150135499999998  0.7694545549999999  0.5074496549844539  1.0000
