data_image0
_chemical_formula_structural       Al36Rh8CO
_chemical_formula_sum              "Al36 Rh8 C1 O1"
_cell_length_a       6.3998519894347075
_cell_length_b       10.937821542549482
_cell_length_c       37.18653537
_cell_angle_alpha    107.2687881485032
_cell_angle_beta     86.0126447273318
_cell_angle_gamma    93.98735522909858

_space_group_name_H-M_alt    "P 1"
_space_group_IT_number       1

loop_
  _space_group_symop_operation_xyz
  'x, y, z'

loop_
  _atom_site_type_symbol
  _atom_site_label
  _atom_site_symmetry_multiplicity
  _atom_site_fract_x
  _atom_site_fract_y
  _atom_site_fract_z
  _atom_site_occupancy
  Al  Al1       1.0  0.008793335000000124  0.51135883  0.380448462407275  1.0000
  Al  Al2       1.0  0.008793335000000117  0.011358830000000009  0.5275154270123426  1.0000
  Al  Al3       1.0  0.008793335000000124  0.51135883  0.5275154270123426  1.0000
  Al  Al4       1.0  0.008793335000000117  0.011358830000000009  0.38044846240727503  1.0000
  Al  Al5       1.0  0.8142707950000001  0.7550321299999999  0.6158051332219285  1.0000
  Al  Al6       1.0  0.7966139350000002  0.29419359  0.47540770533107807  1.0000
  Al  Al7       1.0  0.19451927500000013  0.28764693999999996  0.6073082483302904  1.0000
  Al  Al8       1.0  0.22097273500000011  0.83420237  0.46363976590213296  1.0000
  Al  Al9       1.0  0.6086963450000001  0.38736633000000004  0.42317437375785677  1.0000
  Al  Al10      1.0  0.5944889850000001  0.8706168499999999  0.5711762077421497  1.0000
  Al  Al11      1.0  0.4088903250000001  0.15661889  0.34397806486043453  1.0000
  Al  Al12      1.0  0.40889032500000017  0.6566188900000001  0.491045029465502  1.0000
  Al  Al13      1.0  0.40889032500000017  0.63535133  0.337722559880711  1.0000
  Al  Al14      1.0  0.4088903250000001  0.13535133000000002  0.48478951566176076  1.0000
  Al  Al15      1.0  0.6086963450000001  0.86609877  0.4169188687781331  1.0000
  Al  Al16      1.0  0.5751755050000001  0.34887922  0.564137800616027  1.0000
  Al  Al17      1.0  0.6205486050000001  0.41461954  0.3511605858436308  1.0000
  Al  Al18      1.0  0.6205486050000001  0.9146195399999999  0.4982275416246806  1.0000
  Al  Al19      1.0  0.3970380650000001  0.91178554  0.35199415549966234  1.0000
  Al  Al20      1.0  0.3970380650000001  0.41178554  0.49906112010472997  1.0000
  Al  Al21      1.0  0.3970380650000001  0.6080981200000001  0.40973634779493684  1.0000
  Al  Al22      1.0  0.41059558500000015  0.09898945  0.5586486262774623  1.0000
  Al  Al23      1.0  0.6205486050000001  0.11093212000000001  0.4089027693148876  1.0000
  Al  Al24      1.0  0.6118816250000001  0.59415705  0.5561755011886973  1.0000
  Al  Al25      1.0  0.9124355850000001  0.25437029  0.3716975075740058  1.0000
  Al  Al26      1.0  0.9124355850000001  0.7543702899999999  0.5187644721790733  1.0000
  Al  Al27      1.0  0.10515108500000013  0.48160721  0.4519263765506082  1.0000
  Al  Al28      1.0  0.9912066650000001  0.94522219  0.5924566941480182  1.0000
  Al  Al29      1.0  0.10515108500000014  0.7683473700000001  0.38919942606456187  1.0000
  Al  Al30      1.0  0.10515108500000014  0.26834737000000003  0.5362663906696293  1.0000
  Al  Al31      1.0  0.8689537350000002  0.5044679400000001  0.602195338930464  1.0000
  Al  Al32      1.0  0.9124355850000001  0.04111045000000001  0.45603751286900923  1.0000
  Al  Al33      1.0  0.7966139350000002  0.68851529  0.44432413234150214  1.0000
  Al  Al34      1.0  0.8008028850000002  0.18362146999999998  0.5924399108663531  1.0000
  Al  Al35      1.0  0.22097273500000011  0.22852407000000002  0.43255619291255704  1.0000
  Al  Al36      1.0  0.21660659500000012  0.71956226  0.5750626492738424  1.0000
  Rh  Rh1       1.0  0.7445562650000003  0.6569434700000001  0.373766430883995  1.0000
  Rh  Rh2       1.0  0.7445562650000002  0.15694347  0.5208333954890625  1.0000
  Rh  Rh3       1.0  0.2568930950000001  0.49055978999999994  0.577731623435455  1.0000
  Rh  Rh4       1.0  0.27303040500000014  0.98864117  0.42326984962936887  1.0000
  Rh  Rh5       1.0  0.27303040500000014  0.36577419000000005  0.3871305027545726  1.0000
  Rh  Rh6       1.0  0.27303040500000014  0.8657741899999999  0.5341974585356225  1.0000
  Rh  Rh7       1.0  0.7445562650000002  0.53407649  0.48469404861426646  1.0000
  Rh  Rh8       1.0  0.7445562650000002  0.03407649000000001  0.3376270840091989  1.0000
  C   C1        1.0  0.29860130500000015  0.5665984900000001  0.6301390440538761  1.0000
  O   O1        1.0  0.3179512250000001  0.6176024800000001  0.6623729159908012  1.0000
