data_image0
_chemical_formula_structural       COAl6V18
_chemical_formula_sum              "C1 O1 Al6 V18"
_cell_length_a       6.81729693
_cell_length_b       6.817296935512328
_cell_length_c       36.60220218
_cell_angle_alpha    90.0
_cell_angle_beta     90.0
_cell_angle_gamma    59.999999978224366

_space_group_name_H-M_alt    "P 1"
_space_group_IT_number       1

loop_
  _space_group_symop_operation_xyz
  'x, y, z'

loop_
  _atom_site_type_symbol
  _atom_site_label
  _atom_site_symmetry_multiplicity
  _atom_site_fract_x
  _atom_site_fract_y
  _atom_site_fract_z
  _atom_site_occupancy
  C   C1        1.0  0.34463746499999987  0.34458217500000005  0.6054030711787578  1.0000
  O   O1        1.0  0.344686905  0.34463691500000004  0.6378407928393341  1.0000
  Al  Al1       1.0  0.677871275  0.6779006049999999  0.5102761715238289  1.0000
  Al  Al2       1.0  0.011219164999999974  0.011226124999999972  0.36215920716066585  1.0000
  Al  Al3       1.0  0.3445524949999999  0.34455945499999996  0.4381969829015494  1.0000
  Al  Al4       1.0  0.6778858349999998  0.677892795  0.40017809503110763  1.0000
  Al  Al5       1.0  0.011219164999999974  0.011226124999999972  0.47621586164745877  1.0000
  Al  Al6       1.0  0.34448821500000004  0.344566445  0.5514950237680197  1.0000
  V   V1        1.0  0.42788583499999994  0.9278927950000001  0.4572064222745041  1.0000
  V   V2        1.0  0.7683861549999998  0.276528695  0.5331433445592243  1.0000
  V   V3        1.0  0.09455249500000001  0.594559455  0.38116865565815294  1.0000
  V   V4        1.0  0.26121916500000003  0.761226125  0.4191875344040623  1.0000
  V   V5        1.0  0.600632415  0.08621840499999996  0.49756709400127164  1.0000
  V   V6        1.0  0.905919335  0.465614885  0.5670297864714948  1.0000
  V   V7        1.0  0.927885835  0.677892795  0.4572064222745041  1.0000
  V   V8        1.0  0.276468785  0.988773875  0.5331428883326064  1.0000
  V   V9        1.0  0.594552495  0.34455945499999996  0.38116865565815294  1.0000
  V   V10       1.0  0.761219165  0.011226124999999972  0.4191875344040623  1.0000
  V   V11       1.0  0.08625477499999998  0.34679114499999997  0.4975702784630649  1.0000
  V   V12       1.0  0.46569803499999995  0.6620167149999999  0.567036556874505  1.0000
  V   V13       1.0  0.011219164999999974  0.261226125  0.4191875344040623  1.0000
  V   V14       1.0  0.34678981500000006  0.600606455  0.49757043358011505  1.0000
  V   V15       1.0  0.662050785  0.9058779050000001  0.5670342939904801  1.0000
  V   V16       1.0  0.6778858349999998  0.42789279500000005  0.4572064222745041  1.0000
  V   V17       1.0  0.9887808349999998  0.7683394350000001  0.5331434358045478  1.0000
  V   V18       1.0  0.34455249499999996  0.09455945499999996  0.38116865565815294  1.0000
