data_image0
_chemical_formula_structural       COCu3PdCu3PdCu3PdCu3PdCu3PdCu3PdCu3PdCu3Pd
_chemical_formula_sum              "C1 O1 Cu24 Pd8"
_cell_length_a       7.52699992
_cell_length_b       7.52699992
_cell_length_c       100.10799968
_cell_angle_alpha    90.0
_cell_angle_beta     90.0
_cell_angle_gamma    90.0

_space_group_name_H-M_alt    "P 1"
_space_group_IT_number       1

loop_
  _space_group_symop_operation_xyz
  'x, y, z'

loop_
  _atom_site_type_symbol
  _atom_site_label
  _atom_site_symmetry_multiplicity
  _atom_site_fract_x
  _atom_site_fract_y
  _atom_site_fract_z
  _atom_site_occupancy
  C   C1        1.0  0.12052802  0.37500095499999997  0.5283914410778069  1.0000
  O   O1        1.0  0.12057093999999999  0.374996375  0.5404117475038371  1.0000
  Cu  Cu1       1.0  0.12005326999999999  0.375000015  0.49611485809076694  1.0000
  Cu  Cu2       1.0  0.360851  0.374999425  0.5162026125005538  1.0000
  Cu  Cu3       1.0  0.12017438999999999  0.13471729500000001  0.5161831716855786  1.0000
  Pd  Pd1       1.0  0.36935932999999993  0.125701895  0.49749309578100753  1.0000
  Cu  Cu4       1.0  0.12002223  0.374999735  0.4595882524961628  1.0000
  Cu  Cu5       1.0  0.37002222999999995  0.374999735  0.47838545138151767  1.0000
  Cu  Cu6       1.0  0.12002223  0.124999735  0.47838545138151767  1.0000
  Pd  Pd2       1.0  0.37002222999999995  0.124999735  0.4595882524961628  1.0000
  Cu  Cu7       1.0  0.12001720999999999  0.874999565  0.4977564159656491  1.0000
  Cu  Cu8       1.0  0.36917711  0.8750002649999999  0.5155265870322892  1.0000
  Cu  Cu9       1.0  0.12017483999999998  0.615283245  0.5161844769630692  1.0000
  Pd  Pd3       1.0  0.36935527999999995  0.624297765  0.4974933273624978  1.0000
  Cu  Cu10      1.0  0.12002223  0.874999735  0.4595882524961628  1.0000
  Cu  Cu11      1.0  0.37002222999999995  0.874999735  0.47838545138151767  1.0000
  Cu  Cu12      1.0  0.12002223  0.624999735  0.47838545138151767  1.0000
  Pd  Pd4       1.0  0.37002222999999995  0.624999735  0.4595882524961628  1.0000
  Cu  Cu13      1.0  0.62007748  0.375000685  0.497754190377301  1.0000
  Cu  Cu14      1.0  0.8799827899999999  0.374999625  0.516190855980483  1.0000
  Cu  Cu15      1.0  0.6200835199999999  0.125897505  0.5155227313508538  1.0000
  Pd  Pd5       1.0  0.8706532499999999  0.125779075  0.4974928100635845  1.0000
  Cu  Cu16      1.0  0.6200222299999999  0.374999735  0.4595882524961628  1.0000
  Cu  Cu17      1.0  0.8700222299999999  0.374999735  0.47838545138151767  1.0000
  Cu  Cu18      1.0  0.6200222299999999  0.124999735  0.47838545138151767  1.0000
  Pd  Pd6       1.0  0.8700222299999999  0.124999735  0.4595882524961628  1.0000
  Cu  Cu19      1.0  0.62000954  0.8749987749999999  0.49735808076462973  1.0000
  Cu  Cu20      1.0  0.8710154899999999  0.8750002649999999  0.5155254411550451  1.0000
  Cu  Cu21      1.0  0.62008345  0.6241021449999999  0.5155225869883663  1.0000
  Pd  Pd7       1.0  0.87065741  0.624220625  0.4974930506677302  1.0000
  Cu  Cu22      1.0  0.6200222299999999  0.874999735  0.4595882524961628  1.0000
  Cu  Cu23      1.0  0.8700222299999999  0.874999735  0.47838545138151767  1.0000
  Cu  Cu24      1.0  0.6200222299999999  0.624999735  0.47838545138151767  1.0000
  Pd  Pd8       1.0  0.8700222299999999  0.624999735  0.4595882524961628  1.0000
