data_image0
_chemical_formula_structural       COSi15As20
_chemical_formula_sum              "C1 O1 Si15 As20"
_cell_length_a       12.09152510717716
_cell_length_b       7.64735195
_cell_length_c       107.46422031
_cell_angle_alpha    90.0
_cell_angle_beta     104.96321744300363
_cell_angle_gamma    71.56505118896139

_space_group_name_H-M_alt    "P 1"
_space_group_IT_number       1

loop_
  _space_group_symop_operation_xyz
  'x, y, z'

loop_
  _atom_site_type_symbol
  _atom_site_label
  _atom_site_symmetry_multiplicity
  _atom_site_fract_x
  _atom_site_fract_y
  _atom_site_fract_z
  _atom_site_occupancy
  C   C1        1.0  0.291770645  0.21643026999999998  0.5475515952796076  1.0000
  O   O1        1.0  0.357692105  0.26819838999999995  0.5551694288003254  1.0000
  Si  Si1       1.0  0.6308878750000001  0.18507655999999997  0.5108076457574503  1.0000
  Si  Si2       1.0  0.011479935000000017  0.9942600300000001  0.4932661440732564  1.0000
  Si  Si3       1.0  0.07092231500000001  0.46588814  0.5215416437106475  1.0000
  Si  Si4       1.0  0.4114799350000001  0.7942600300000001  0.47583512368250336  1.0000
  Si  Si5       1.0  0.811479935  0.59426003  0.45840410329175013  1.0000
  Si  Si6       1.0  0.308437585  0.10437204999999998  0.5018634719503838  1.0000
  Si  Si7       1.0  0.711479935  0.89426003  0.48455063387787994  1.0000
  Si  Si8       1.0  0.9057815949999999  0.3247646500000001  0.5188589957276943  1.0000
  Si  Si9       1.0  0.11147993500000002  0.69426003  0.46711961348712666  1.0000
  Si  Si10      1.0  0.5114799350000001  0.49426002999999985  0.44968859309637355  1.0000
  Si  Si11      1.0  0.308045415  0.58680663  0.5018514131704774  1.0000
  Si  Si12      1.0  0.711479935  0.39426003000000004  0.48455063387787994  1.0000
  Si  Si13      1.0  0.904988655  0.7727436900000001  0.5188607004814886  1.0000
  Si  Si14      1.0  0.11147993500000002  0.19426002999999997  0.46711961348712666  1.0000
  Si  Si15      1.0  0.5114799350000001  0.9942600299999999  0.44968859309637355  1.0000
  As  As1       1.0  0.322959865  0.11721989999999995  0.47969261198118107  1.0000
  As  As2       1.0  0.7229598650000001  0.9172199000000001  0.4622615915904279  1.0000
  As  As3       1.0  0.9229598649999999  0.31721989999999994  0.4971236323719342  1.0000
  As  As4       1.0  0.12295986500000003  0.7172198999999999  0.44483057119967473  1.0000
  As  As5       1.0  0.49120667500000004  0.42075005  0.5194639811248043  1.0000
  As  As6       1.0  0.322959865  0.5598202299999999  0.47969261198118107  1.0000
  As  As7       1.0  0.7229598650000001  0.35982022999999985  0.4622615915904279  1.0000
  As  As8       1.0  0.9229598649999999  0.7598202300000002  0.4971236323719342  1.0000
  As  As9       1.0  0.12295986500000003  0.15982022999999995  0.44483057119967473  1.0000
  As  As10      1.0  0.49178971500000007  0.08601944999999994  0.5194219270450097  1.0000
  As  As11      1.0  0.588520065  0.20573997  0.4874075850923325  1.0000
  As  As12      1.0  0.9885200649999999  0.005739970000000036  0.4699765647015793  1.0000
  As  As13      1.0  0.16892930500000003  0.41519518  0.5021703206609344  1.0000
  As  As14      1.0  0.388520065  0.8057399699999999  0.4525455443108262  1.0000
  As  As15      1.0  0.7814963949999999  0.6103949700000002  0.5231278491351857  1.0000
  As  As16      1.0  0.4114799350000001  0.29426002999999995  0.45654768567531867  1.0000
  As  As17      1.0  0.833268665  0.08487452000000004  0.5269881508005545  1.0000
  As  As18      1.0  0.011479935000000017  0.4942600299999999  0.47397870606607173  1.0000
  As  As19      1.0  0.214904115  0.8925282200000001  0.5091540520080815  1.0000
  As  As20      1.0  0.611479935  0.6942600299999999  0.491409726456825  1.0000
