data_image0
_chemical_formula_structural       COCu4In4Pd8
_chemical_formula_sum              "C1 O1 Cu4 In4 Pd8"
_cell_length_a       4.5093804
_cell_length_b       4.5093804
_cell_length_c       108.26336151999999
_cell_angle_alpha    90.0
_cell_angle_beta     90.0
_cell_angle_gamma    90.0

_space_group_name_H-M_alt    "P 1"
_space_group_IT_number       1

loop_
  _space_group_symop_operation_xyz
  'x, y, z'

loop_
  _atom_site_type_symbol
  _atom_site_label
  _atom_site_symmetry_multiplicity
  _atom_site_fract_x
  _atom_site_fract_y
  _atom_site_fract_z
  _atom_site_occupancy
  C   C1        1.0  0.25000010999999994  0.75000043  0.5550830586551148  1.0000
  O   O1        1.0  0.24999936999999994  0.75000028  0.5658346233696293  1.0000
  Cu  Cu1       1.0  0.25000048999999996  0.7499997199999999  0.47834394380996487  1.0000
  Cu  Cu2       1.0  0.7500004899999999  0.24999971999999998  0.4488915668683306  1.0000
  Cu  Cu3       1.0  0.25000035  0.74999994  0.5378328408456235  1.0000
  Cu  Cu4       1.0  0.7500004899999999  0.24999971999999998  0.5077963242858846  1.0000
  In  In1       1.0  0.7500004899999999  0.24999971999999998  0.47834394380996487  1.0000
  In  In2       1.0  0.25000048999999996  0.7499997199999999  0.4488915668683306  1.0000
  In  In3       1.0  0.7500006300000001  0.25000006999999996  0.5366415746173392  1.0000
  In  In4       1.0  0.25000048999999996  0.7499997199999999  0.5077963242858846  1.0000
  Pd  Pd1       1.0  0.7500004899999999  0.7499997199999999  0.4636177571062905  1.0000
  Pd  Pd2       1.0  0.7500004899999999  0.7499997199999999  0.4341653766303708  1.0000
  Pd  Pd3       1.0  0.25000048999999996  0.24999971999999998  0.4341653766303708  1.0000
  Pd  Pd4       1.0  0.25000048999999996  0.24999971999999998  0.4636177571062905  1.0000
  Pd  Pd5       1.0  0.7500004899999999  0.7499998899999999  0.5226109176039134  1.0000
  Pd  Pd6       1.0  0.7500004899999999  0.7499997199999999  0.49307013404792477  1.0000
  Pd  Pd7       1.0  0.25000048999999996  0.24999971999999998  0.49307013404792477  1.0000
  Pd  Pd8       1.0  0.25000073999999994  0.24999957  0.5226109317410549  1.0000
