data_image0
_chemical_formula_structural       COAu10Sn2
_chemical_formula_sum              "C1 O1 Au10 Sn2"
_cell_length_a       5.235862418932139
_cell_length_b       5.768803792293254
_cell_length_c       39.534777340000005
_cell_angle_alpha    93.82685284235313
_cell_angle_beta     94.92960878484433
_cell_angle_gamma    63.011713777097256

_space_group_name_H-M_alt    "P 1"
_space_group_IT_number       1

loop_
  _space_group_symop_operation_xyz
  'x, y, z'

loop_
  _atom_site_type_symbol
  _atom_site_label
  _atom_site_symmetry_multiplicity
  _atom_site_fract_x
  _atom_site_fract_y
  _atom_site_fract_z
  _atom_site_occupancy
  C   C1        1.0  0.8564801650000002  0.6961039450000001  0.6015904808076519  1.0000
  O   O1        1.0  0.8781854350000001  0.656643155  0.6304258859113591  1.0000
  Au  Au1       1.0  0.11953095499999997  0.7727004650000001  0.38691103098318974  1.0000
  Au  Au2       1.0  0.549612635  0.21757054500000003  0.36957411408864077  1.0000
  Au  Au3       1.0  0.5028224050000001  0.404731455  0.441686553760547  1.0000
  Au  Au4       1.0  0.034920145000000055  0.311150995  0.40563033777755886  1.0000
  Au  Au5       1.0  0.605372495  0.8496015350000001  0.42434963686599797  1.0000
  Au  Au6       1.0  0.539488035  0.04599185500000001  0.49641575619269673  1.0000
  Au  Au7       1.0  0.9781840650000001  0.503284835  0.47965882611931665  1.0000
  Au  Au8       1.0  0.928757005  0.656934945  0.5508668747290711  1.0000
  Au  Au9       1.0  0.43928712499999995  0.601120095  0.5173818887020072  1.0000
  Au  Au10      1.0  0.021815935000000022  0.12244471500000004  0.536596941090826  1.0000
  Sn  Sn1       1.0  0.07673744499999997  0.9540081450000001  0.46067269379289677  1.0000
  Sn  Sn2       1.0  0.49310998500000003  0.23007794500000006  0.5657529514120277  1.0000
