data_image0
_chemical_formula_structural       COSb4Pt4Sb4Pt4Sb4Pt4Sb4Pt4
_chemical_formula_sum              "C1 O1 Sb16 Pt16"
_cell_length_a       8.464450077562288
_cell_length_b       7.0364721774948915
_cell_length_c       112.21883308
_cell_angle_alpha    73.95046435624616
_cell_angle_beta     107.50174621686058
_cell_angle_gamma    72.4982537473916

_space_group_name_H-M_alt    "P 1"
_space_group_IT_number       1

loop_
  _space_group_symop_operation_xyz
  'x, y, z'

loop_
  _atom_site_type_symbol
  _atom_site_label
  _atom_site_symmetry_multiplicity
  _atom_site_fract_x
  _atom_site_fract_y
  _atom_site_fract_z
  _atom_site_occupancy
  C   C1        1.0  0.56158304  0.9725423449999999  0.5590963960205879  1.0000
  O   O1        1.0  0.6057531400000001  0.928344345  0.5707699570360892  1.0000
  Sb  Sb1       1.0  0.16852829000000003  0.062500005  0.4605816071595785  1.0000
  Sb  Sb2       1.0  0.16852828999999997  0.5625000050000001  0.4292300429639107  1.0000
  Sb  Sb3       1.0  0.33519495  0.979166665  0.43445530429022  1.0000
  Sb  Sb4       1.0  0.33519495  0.47916666499999994  0.46580686848588787  1.0000
  Pt  Pt1       1.0  0.001861620000000031  0.270833335  0.4318426717459714  1.0000
  Pt  Pt2       1.0  0.0018616200000000861  0.770833335  0.4631942397038271  1.0000
  Pt  Pt3       1.0  0.001861620000000032  0.020833334999999988  0.4788700199205671  1.0000
  Pt  Pt4       1.0  0.0018616200000000586  0.520833335  0.4475184557248992  1.0000
  Sb  Sb5       1.0  0.16949075000000005  0.06063868499999999  0.5233275116268139  1.0000
  Sb  Sb6       1.0  0.16852828999999997  0.5625000050000001  0.4919331751174343  1.0000
  Sb  Sb7       1.0  0.33519495  0.979166665  0.4971584326815557  1.0000
  Sb  Sb8       1.0  0.33540577999999993  0.490121535  0.5284803282638072  1.0000
  Pt  Pt5       1.0  0.001861620000000031  0.270833335  0.49454580389949493  1.0000
  Pt  Pt6       1.0  0.9981383799999998  0.7831062649999999  0.5248787670202647  1.0000
  Pt  Pt7       1.0  0.9685693999999999  0.087107825  0.5369742235438978  1.0000
  Pt  Pt8       1.0  0.0018616200000000586  0.520833335  0.5102215878784228  1.0000
  Sb  Sb9       1.0  0.66852829  0.062500005  0.4605816071595785  1.0000
  Sb  Sb10      1.0  0.66852829  0.5625000050000001  0.4292300429639107  1.0000
  Sb  Sb11      1.0  0.8351949499999998  0.979166665  0.43445530429022  1.0000
  Sb  Sb12      1.0  0.8351949499999999  0.47916666499999994  0.46580686848588787  1.0000
  Pt  Pt9       1.0  0.50186162  0.270833335  0.4318426717459714  1.0000
  Pt  Pt10      1.0  0.50186162  0.770833335  0.4631942397038271  1.0000
  Pt  Pt11      1.0  0.50186162  0.020833334999999988  0.47887001992056705  1.0000
  Pt  Pt12      1.0  0.5018616200000001  0.520833335  0.4475184557248993  1.0000
  Sb  Sb13      1.0  0.66969958  0.065129075  0.5234295572101649  1.0000
  Sb  Sb14      1.0  0.66852829  0.5625000050000001  0.4919331751174343  1.0000
  Sb  Sb15      1.0  0.8351949499999998  0.979166665  0.49715843268155574  1.0000
  Sb  Sb16      1.0  0.8360491599999997  0.502210465  0.5299009379218411  1.0000
  Pt  Pt13      1.0  0.50186162  0.270833335  0.49454580389949504  1.0000
  Pt  Pt14      1.0  0.4952320499999999  0.7865227250000001  0.5251175342724167  1.0000
  Pt  Pt15      1.0  0.49120485  0.04015546499999999  0.540286916479637  1.0000
  Pt  Pt16      1.0  0.5018616200000001  0.520833335  0.5102215878784229  1.0000
