data_image0
_chemical_formula_structural       COAl3Sb3Al3Sb3Al3Sb3Al3Sb3
_chemical_formula_sum              "C1 O1 Al12 Sb12"
_cell_length_a       8.88480422
_cell_length_b       8.8848042231197
_cell_length_c       102.64485521
_cell_angle_alpha    90.0
_cell_angle_beta     90.0
_cell_angle_gamma    120.00000006284841

_space_group_name_H-M_alt    "P 1"
_space_group_IT_number       1

loop_
  _space_group_symop_operation_xyz
  'x, y, z'

loop_
  _atom_site_type_symbol
  _atom_site_label
  _atom_site_symmetry_multiplicity
  _atom_site_fract_x
  _atom_site_fract_y
  _atom_site_fract_z
  _atom_site_occupancy
  C   C1        1.0  0.260079545  0.35336550499999997  0.5419596242761836  1.0000
  O   O1        1.0  0.260090635  0.35335469499999994  0.553265576547829  1.0000
  Al  Al1       1.0  0.260089115  0.353355475  0.4467344234521708  1.0000
  Al  Al2       1.0  0.07334834499999987  0.9799778549999999  0.5179232259374309  1.0000
  Al  Al3       1.0  0.426755775  0.18668881499999995  0.4820718603919134  1.0000
  Sb  Sb1       1.0  0.093422445  0.02002214499999998  0.4909062204219414  1.0000
  Sb  Sb2       1.0  0.426755775  0.18668881499999995  0.4555687834821988  1.0000
  Sb  Sb3       1.0  0.26002100499999997  0.3534235949999999  0.5212178500629394  1.0000
  Al  Al4       1.0  0.2600891149999999  0.8533554749999999  0.4467344234521708  1.0000
  Al  Al5       1.0  0.07324422500000001  0.540200345  0.5179307316091121  1.0000
  Al  Al6       1.0  0.42675577500000006  0.686688815  0.4820718603919134  1.0000
  Sb  Sb4       1.0  0.09342244499999994  0.5200221449999999  0.4909062204219414  1.0000
  Sb  Sb5       1.0  0.42675577500000006  0.686688815  0.4555687834821988  1.0000
  Sb  Sb6       1.0  0.267138845  0.856937585  0.5284893765912421  1.0000
  Al  Al7       1.0  0.7600891150000001  0.353355475  0.4467344234521708  1.0000
  Al  Al8       1.0  0.593306265  0.020138264999999978  0.5179159110879112  1.0000
  Al  Al9       1.0  0.926755775  0.18668881499999995  0.4820718603919134  1.0000
  Sb  Sb7       1.0  0.5934224450000001  0.02002214499999998  0.4909062204219414  1.0000
  Sb  Sb8       1.0  0.926755775  0.18668881499999995  0.4555687834821988  1.0000
  Sb  Sb9       1.0  0.7565068850000001  0.34630555499999993  0.5284893797716114  1.0000
  Al  Al10      1.0  0.760089115  0.8533554749999999  0.4467344234521708  1.0000
  Al  Al11      1.0  0.6334666350000001  0.540096185  0.5179232195766923  1.0000
  Al  Al12      1.0  0.926755775  0.686688815  0.4820718603919134  1.0000
  Sb  Sb10      1.0  0.593422445  0.5200221449999999  0.4909062204219414  1.0000
  Sb  Sb11      1.0  0.926755775  0.686688815  0.4555687834821988  1.0000
  Sb  Sb12      1.0  0.7564847249999999  0.8569598249999999  0.5284693434446662  1.0000
