data_image0
_chemical_formula_structural       COAs16Si12
_chemical_formula_sum              "C1 O1 As16 Si12"
_cell_length_a       7.64735195
_cell_length_b       9.366055076999183
_cell_length_c       105.45931223
_cell_angle_alpha    95.0511525395391
_cell_angle_beta     90.0
_cell_angle_gamma    90.0

_space_group_name_H-M_alt    "P 1"
_space_group_IT_number       1

loop_
  _space_group_symop_operation_xyz
  'x, y, z'

loop_
  _atom_site_type_symbol
  _atom_site_label
  _atom_site_symmetry_multiplicity
  _atom_site_fract_x
  _atom_site_fract_y
  _atom_site_fract_z
  _atom_site_occupancy
  C   C1        1.0  0.61059156  0.23096509499999995  0.5386571547223388  1.0000
  O   O1        1.0  0.61051215  0.18307553499999993  0.5488509665053287  1.0000
  As  As1       1.0  0.11065007999999997  0.7650438849999999  0.4745763260590727  1.0000
  As  As2       1.0  0.61065008  0.4525438849999999  0.4955911323147934  1.0000
  As  As3       1.0  0.11073070999999997  0.16633959499999998  0.5186992990749489  1.0000
  As  As4       1.0  0.61065008  0.07754388499999997  0.4535615198033521  1.0000
  As  As5       1.0  0.8893499200000001  0.46075615499999995  0.46527516608555275  1.0000
  As  As6       1.0  0.38934991999999996  0.14825615499999997  0.48628997234127336  1.0000
  As  As7       1.0  0.88666992  0.8326550549999999  0.5071965170399025  1.0000
  As  As8       1.0  0.44026708999999997  0.5317933749999999  0.5282791658149547  1.0000
  As  As9       1.0  0.33195024  0.46075615499999995  0.46527516608555275  1.0000
  As  As10      1.0  0.83195024  0.14825615499999997  0.48628997234127336  1.0000
  As  As11      1.0  0.33477373  0.8326779249999999  0.5071982452975691  1.0000
  As  As12      1.0  0.7810601600000001  0.5318024349999999  0.528280208149345  1.0000
  As  As13      1.0  0.11065007999999997  0.4884186749999999  0.49317864600611266  1.0000
  As  As14      1.0  0.61073097  0.16732338499999996  0.5102494304098186  1.0000
  As  As15      1.0  0.11065007999999997  0.11341867499999995  0.4511490334946714  1.0000
  As  As16      1.0  0.61065008  0.8009186749999999  0.47216383975039194  1.0000
  Si  Si1       1.0  0.40754505999999996  0.27418945499999997  0.5260041096144483  1.0000
  Si  Si2       1.0  0.86065008  0.19999371499999993  0.4640689229312123  1.0000
  Si  Si3       1.0  0.36065008  0.887493715  0.48508372918693304  1.0000
  Si  Si4       1.0  0.84980643  0.574367525  0.5062517182495974  1.0000
  Si  Si5       1.0  0.11065007999999997  0.8562437150000001  0.4535615198033521  1.0000
  Si  Si6       1.0  0.61065008  0.543743715  0.47457632605907274  1.0000
  Si  Si7       1.0  0.11065007999999997  0.23124371499999996  0.49559113231479335  1.0000
  Si  Si8       1.0  0.61074082  0.922456115  0.5149152251163077  1.0000
  Si  Si9       1.0  0.8138443100000001  0.274179045  0.5260130434288839  1.0000
  Si  Si10      1.0  0.36065008  0.19999371499999993  0.4640689229312123  1.0000
  Si  Si11      1.0  0.86065008  0.887493715  0.48508372918693304  1.0000
  Si  Si12      1.0  0.3715175599999999  0.5743918149999999  0.5062514055492803  1.0000
