data_image0
_chemical_formula_structural       COPt6Sn12
_chemical_formula_sum              "C1 O1 Pt6 Sn12"
_cell_length_a       6.5868397
_cell_length_b       8.067198137713877
_cell_length_c       34.52878267
_cell_angle_alpha    85.65224686673109
_cell_angle_beta     90.0
_cell_angle_gamma    114.09484256335348

_space_group_name_H-M_alt    "P 1"
_space_group_IT_number       1

loop_
  _space_group_symop_operation_xyz
  'x, y, z'

loop_
  _atom_site_type_symbol
  _atom_site_label
  _atom_site_symmetry_multiplicity
  _atom_site_fract_x
  _atom_site_fract_y
  _atom_site_fract_z
  _atom_site_occupancy
  C   C1        1.0  0.04707358999999995  0.06482301500000003  0.6185342203212999  1.0000
  O   O1        1.0  0.02712605999999995  0.02512203500000002  0.6520828538586507  1.0000
  Pt  Pt1       1.0  0.21022654999999993  0.3915446349999999  0.43352500096280006  1.0000
  Pt  Pt2       1.0  0.7930928  0.556573395  0.5136644250659541  1.0000
  Pt  Pt3       1.0  0.62689322  0.224877965  0.3479171461413495  1.0000
  Pt  Pt4       1.0  0.5018932199999999  0.9748779649999999  0.47632891810058364  1.0000
  Pt  Pt5       1.0  0.08137407999999995  0.132818315  0.5635989348982747  1.0000
  Pt  Pt6       1.0  0.9185598800000001  0.8082112950000001  0.39072107355207475  1.0000
  Sn  Sn1       1.0  0.90076959  0.262425065  0.4987384570699182  1.0000
  Sn  Sn2       1.0  0.49785109999999994  0.443320815  0.5823655859912521  1.0000
  Sn  Sn3       1.0  0.31439322  0.09987796500000001  0.41212303212096657  1.0000
  Sn  Sn4       1.0  0.39307002999999996  0.262064935  0.49892082233198376  1.0000
  Sn  Sn5       1.0  0.9772734500000001  0.445008825  0.5826973917370529  1.0000
  Sn  Sn6       1.0  0.8143932200000001  0.09987796500000001  0.41212303212096657  1.0000
  Sn  Sn7       1.0  0.19069035999999995  0.8407723250000001  0.5412700487946723  1.0000
  Sn  Sn8       1.0  0.022726549999999936  0.5165446349999999  0.3693191149831829  1.0000
  Sn  Sn9       1.0  0.60605988  0.6832112950000001  0.45492695953169177  1.0000
  Sn  Sn10      1.0  0.6807578099999999  0.840531525  0.5419102585249523  1.0000
  Sn  Sn11      1.0  0.52272655  0.5165446349999999  0.3693191149831829  1.0000
  Sn  Sn12      1.0  0.10605987999999994  0.6832112950000001  0.4549269595316919  1.0000
