data_image0
_chemical_formula_structural       COSb8Pt12Sb8Pt12
_chemical_formula_sum              "C1 O1 Sb16 Pt24"
_cell_length_a       5.43498871
_cell_length_b       11.15715843
_cell_length_c       30.268786589999998
_cell_angle_alpha    90.0
_cell_angle_beta     90.0
_cell_angle_gamma    90.0

_space_group_name_H-M_alt    "P 1"
_space_group_IT_number       1

loop_
  _space_group_symop_operation_xyz
  'x, y, z'

loop_
  _atom_site_type_symbol
  _atom_site_label
  _atom_site_symmetry_multiplicity
  _atom_site_fract_x
  _atom_site_fract_y
  _atom_site_fract_z
  _atom_site_occupancy
  C   C1        1.0  0.62499999  0.43345902999999997  0.7155890444971369  1.0000
  O   O1        1.0  0.625  0.41888872  0.7537632666779343  1.0000
  Sb  Sb1       1.0  0.625  0.17873589999999998  0.6334380221757545  1.0000
  Sb  Sb2       1.0  0.12499999999999999  0.40285561999999997  0.6300831399630694  1.0000
  Sb  Sb3       1.0  0.625  0.39773076  0.5218975344110388  1.0000
  Sb  Sb4       1.0  0.12499999999999999  0.20825552  0.5174981532500769  1.0000
  Sb  Sb5       1.0  0.12499999999999999  0.70825552  0.5218975344110388  1.0000
  Sb  Sb6       1.0  0.625  0.89773076  0.5174981532500769  1.0000
  Sb  Sb7       1.0  0.12499999999999999  0.93016962  0.6340551998474693  1.0000
  Sb  Sb8       1.0  0.625  0.71540459  0.6308830334133051  1.0000
  Pt  Pt1       1.0  0.12500001  0.17104366999999995  0.6027453416925749  1.0000
  Pt  Pt2       1.0  0.62499999  0.46126211  0.6545642846706861  1.0000
  Pt  Pt3       1.0  0.625  0.16212789999999996  0.5460564456670097  1.0000
  Pt  Pt4       1.0  0.12499999999999999  0.44385837999999994  0.4933392419941059  1.0000
  Pt  Pt5       1.0  0.37499999999999994  0.05299313999999996  0.4650056164784061  1.0000
  Pt  Pt6       1.0  0.875  0.05299313999999996  0.4650056164784061  1.0000
  Pt  Pt7       1.0  0.625  0.6621279  0.4933392419941059  1.0000
  Pt  Pt8       1.0  0.12499999999999999  0.94385838  0.5460564456670097  1.0000
  Pt  Pt9       1.0  0.12500001  0.69457446  0.6395639361824029  1.0000
  Pt  Pt10      1.0  0.625  0.9470068600000001  0.6018651163052311  1.0000
  Pt  Pt11      1.0  0.87206084  0.5500246099999999  0.5746645123822293  1.0000
  Pt  Pt12      1.0  0.37793916  0.5500246099999999  0.5746645123822293  1.0000
  Sb  Sb9       1.0  0.625  0.20825552  0.41251309283286863  1.0000
  Sb  Sb10      1.0  0.12499999999999999  0.39773076  0.4081137116719067  1.0000
  Sb  Sb11      1.0  0.625  0.39773076  0.30312863812856494  1.0000
  Sb  Sb12      1.0  0.12499999999999999  0.20825552  0.2987292700937365  1.0000
  Sb  Sb13      1.0  0.12499999999999999  0.70825552  0.30312863812856494  1.0000
  Sb  Sb14      1.0  0.625  0.89773076  0.2987292700937365  1.0000
  Sb  Sb15      1.0  0.12499999999999999  0.89773076  0.41251309283286863  1.0000
  Sb  Sb16      1.0  0.625  0.70825552  0.4081137116719067  1.0000
  Pt  Pt13      1.0  0.12499999999999999  0.16212789999999996  0.3839547872898022  1.0000
  Pt  Pt14      1.0  0.625  0.44385837999999994  0.43667200408883955  1.0000
  Pt  Pt15      1.0  0.625  0.16212789999999996  0.3272875625106694  1.0000
  Pt  Pt16      1.0  0.12499999999999999  0.44385837999999994  0.2745703457116321  1.0000
  Pt  Pt17      1.0  0.37499999999999994  0.05299313999999996  0.24623673332206555  1.0000
  Pt  Pt18      1.0  0.875  0.05299313999999996  0.24623673332206555  1.0000
  Pt  Pt19      1.0  0.625  0.6621279  0.2745703457116321  1.0000
  Pt  Pt20      1.0  0.12499999999999999  0.94385838  0.3272875625106694  1.0000
  Pt  Pt21      1.0  0.12499999999999999  0.6621279  0.43667200408883955  1.0000
  Pt  Pt22      1.0  0.625  0.94385838  0.3839547872898022  1.0000
  Pt  Pt23      1.0  0.875  0.55299314  0.3556211749002358  1.0000
  Pt  Pt24      1.0  0.37499999999999994  0.55299314  0.3556211749002358  1.0000
