data_image0
_chemical_formula_structural       Re6Pd2Re6Pd2Re6Pd2Re6Pd2CO
_chemical_formula_sum              "Re24 Pd8 C1 O1"
_cell_length_a       5.5812867017283985
_cell_length_b       8.88898998
_cell_length_c       30.93099308
_cell_angle_alpha    90.0
_cell_angle_beta     60.00000001024405
_cell_angle_gamma    90.0

_space_group_name_H-M_alt    "P 1"
_space_group_IT_number       1

loop_
  _space_group_symop_operation_xyz
  'x, y, z'

loop_
  _atom_site_type_symbol
  _atom_site_label
  _atom_site_symmetry_multiplicity
  _atom_site_fract_x
  _atom_site_fract_y
  _atom_site_fract_z
  _atom_site_occupancy
  Re  Re1       1.0  0.15648192500000005  0.37587795  0.5429155219927031  1.0000
  Re  Re2       1.0  0.19767047500000004  0.37944914  0.6214760610162947  1.0000
  Re  Re3       1.0  0.674915515  0.37595816  0.5429180103041336  1.0000
  Re  Re4       1.0  0.8413946849999999  0.12563274000000002  0.4834226861013201  1.0000
  Re  Re5       1.0  0.8272541450000002  0.12568041  0.5748068959688947  1.0000
  Re  Re6       1.0  0.3205198250000001  0.12563274000000002  0.48342268610132005  1.0000
  Pd  Pd1       1.0  0.32750348500000004  0.12580601  0.5747089929135828  1.0000
  Pd  Pd2       1.0  0.666848055  0.39048772000000004  0.6326519265594327  1.0000
  Re  Re7       1.0  0.16081144500000005  0.37563274  0.3606160921225698  1.0000
  Re  Re8       1.0  0.16081144500000005  0.37563274  0.45460440200363017  1.0000
  Re  Re9       1.0  0.6816863050000002  0.37563274  0.3606160921225698  1.0000
  Re  Re10      1.0  0.8413946849999999  0.12563274000000002  0.30297951129616746  1.0000
  Re  Re11      1.0  0.8413946849999999  0.12563274000000002  0.3894343762202598  1.0000
  Re  Re12      1.0  0.3205198250000001  0.12563274000000002  0.30297951129616757  1.0000
  Pd  Pd3       1.0  0.33443639500000005  0.12563274000000002  0.3919455245392492  1.0000
  Pd  Pd4       1.0  0.6677697350000001  0.37563274  0.4520932536846408  1.0000
  Re  Re13      1.0  0.15649597500000004  0.8757087  0.5428970428068017  1.0000
  Re  Re14      1.0  0.19773222500000004  0.8724573  0.621483248068091  1.0000
  Re  Re15      1.0  0.6750414350000001  0.8756767  0.5429011478891107  1.0000
  Re  Re16      1.0  0.8413946849999999  0.62563274  0.4834226861013201  1.0000
  Re  Re17      1.0  0.8435180749999999  0.62559146  0.568973182446224  1.0000
  Re  Re18      1.0  0.3205198250000001  0.62563274  0.48342268610132005  1.0000
  Pd  Pd5       1.0  0.3383286650000001  0.62594142  0.5708719787949474  1.0000
  Pd  Pd6       1.0  0.6672001650000001  0.86012277  0.6325673618638691  1.0000
  Re  Re19      1.0  0.16081144500000005  0.87563274  0.3606160921225698  1.0000
  Re  Re20      1.0  0.16081144500000005  0.87563274  0.45460440200363017  1.0000
  Re  Re21      1.0  0.6816863050000002  0.87563274  0.3606160921225698  1.0000
  Re  Re22      1.0  0.8413946849999999  0.62563274  0.30297951129616746  1.0000
  Re  Re23      1.0  0.8413946849999999  0.62563274  0.3894343762202598  1.0000
  Re  Re24      1.0  0.3205198250000001  0.62563274  0.30297951129616757  1.0000
  Pd  Pd7       1.0  0.33443639500000005  0.62563274  0.3919455245392492  1.0000
  Pd  Pd8       1.0  0.6677697350000001  0.87563274  0.4520932536846408  1.0000
  C   C1        1.0  0.6079758050000001  0.12545244  0.6522742452581098  1.0000
  O   O1        1.0  0.48140185500000005  0.12429130000000002  0.6970204887038324  1.0000
