data_image0
_chemical_formula_structural       COAl3Cu6Ti3Al3Cu6Ti3Al3Cu6Ti3Al3Cu6Ti3
_chemical_formula_sum              "C1 O1 Al12 Cu24 Ti12"
_cell_length_a       8.60367514
_cell_length_b       8.603675137469354
_cell_length_c       101.611921
_cell_angle_alpha    90.0
_cell_angle_beta     90.0
_cell_angle_gamma    119.99999993283319

_space_group_name_H-M_alt    "P 1"
_space_group_IT_number       1

loop_
  _space_group_symop_operation_xyz
  'x, y, z'

loop_
  _atom_site_type_symbol
  _atom_site_label
  _atom_site_symmetry_multiplicity
  _atom_site_fract_x
  _atom_site_fract_y
  _atom_site_fract_z
  _atom_site_occupancy
  C   C1        1.0  0.41660466499999993  0.24375217999999993  0.5499460978064499  1.0000
  O   O1        1.0  0.416535745  0.24381857999999995  0.5614547288007131  1.0000
  Al  Al1       1.0  0.250015835  0.41034362999999996  0.45582885324898315  1.0000
  Al  Al2       1.0  0.08739925500000001  0.07905564999999994  0.5239924640034852  1.0000
  Al  Al3       1.0  0.416682495  0.2436769699999999  0.49039601423733126  1.0000
  Cu  Cu1       1.0  0.08334916500000002  0.07701029999999995  0.4990378052621794  1.0000
  Cu  Cu2       1.0  0.416682495  0.2436769699999999  0.46447064427383133  1.0000
  Cu  Cu3       1.0  0.244170885  0.41618738  0.5322293059183796  1.0000
  Cu  Cu4       1.0  0.250015835  0.41034362999999996  0.4817542232124831  1.0000
  Cu  Cu5       1.0  0.08334916500000002  0.07701029999999995  0.447187062224135  1.0000
  Cu  Cu6       1.0  0.416664235  0.24369328999999995  0.5315348710047894  1.0000
  Ti  Ti1       1.0  0.08334916500000002  0.07701029999999995  0.47311243218763493  1.0000
  Ti  Ti2       1.0  0.416682495  0.2436769699999999  0.4385452711992868  1.0000
  Ti  Ti3       1.0  0.256325625  0.4040348299999999  0.508325315354478  1.0000
  Al  Al4       1.0  0.25001583499999996  0.91034363  0.45582885324898315  1.0000
  Al  Al5       1.0  0.08331750500000001  0.57703609  0.523595080953804  1.0000
  Al  Al6       1.0  0.41668249499999993  0.7436769699999999  0.49039601423733126  1.0000
  Cu  Cu7       1.0  0.08334916499999996  0.5770102999999999  0.4990378052621794  1.0000
  Cu  Cu8       1.0  0.41668249499999993  0.7436769699999999  0.46447064427383133  1.0000
  Cu  Cu9       1.0  0.24414313499999998  0.89873643  0.5322291752545096  1.0000
  Cu  Cu10      1.0  0.25001583499999996  0.91034363  0.4817542232124831  1.0000
  Cu  Cu11      1.0  0.08334916499999996  0.5770102999999999  0.447187062224135  1.0000
  Cu  Cu12      1.0  0.41738975500000003  0.74405229  0.5200675951253314  1.0000
  Ti  Ti4       1.0  0.08334916499999996  0.5770102999999999  0.47311243218763493  1.0000
  Ti  Ti5       1.0  0.41668249499999993  0.7436769699999999  0.4385452711992868  1.0000
  Ti  Ti6       1.0  0.25630465500000005  0.9229897  0.5083218745392388  1.0000
  Al  Al7       1.0  0.7500158349999999  0.41034362999999996  0.45582885324898315  1.0000
  Al  Al8       1.0  0.581317395  0.07904267999999995  0.5239888271924412  1.0000
  Al  Al9       1.0  0.916682495  0.2436769699999999  0.49039601423733126  1.0000
  Cu  Cu13      1.0  0.583349165  0.07701029999999995  0.4990378052621794  1.0000
  Cu  Cu14      1.0  0.916682495  0.2436769699999999  0.46447064427383133  1.0000
  Cu  Cu15      1.0  0.7616189549999999  0.41621419  0.5322289325930372  1.0000
  Cu  Cu16      1.0  0.7500158349999999  0.41034362999999996  0.4817542232124831  1.0000
  Cu  Cu17      1.0  0.583349165  0.07701029999999995  0.447187062224135  1.0000
  Cu  Cu18      1.0  0.9163065150000002  0.24296793999999994  0.5200673026871465  1.0000
  Ti  Ti7       1.0  0.583349165  0.07701029999999995  0.47311243218763493  1.0000
  Ti  Ti8       1.0  0.916682495  0.2436769699999999  0.4385452711992868  1.0000
  Ti  Ti9       1.0  0.7373697050000001  0.40405512  0.5083216754323896  1.0000
  Al  Al10      1.0  0.750015835  0.91034363  0.45582885324898315  1.0000
  Al  Al11      1.0  0.581303545  0.5729593599999999  0.523992439115129  1.0000
  Al  Al12      1.0  0.916682495  0.7436769699999999  0.49039601423733126  1.0000
  Cu  Cu19      1.0  0.583349165  0.5770102999999999  0.4990378052621794  1.0000
  Cu  Cu20      1.0  0.916682495  0.7436769699999999  0.46447064427383133  1.0000
  Cu  Cu21      1.0  0.749958615  0.9104048299999999  0.5318613471277692  1.0000
  Cu  Cu22      1.0  0.750015835  0.91034363  0.4817542232124831  1.0000
  Cu  Cu23      1.0  0.583349165  0.5770102999999999  0.447187062224135  1.0000
  Cu  Cu24      1.0  0.9162614950000001  0.7440982399999999  0.5200738358806387  1.0000
  Ti  Ti10      1.0  0.583349165  0.5770102999999999  0.47311243218763493  1.0000
  Ti  Ti11      1.0  0.916682495  0.7436769699999999  0.4385452711992868  1.0000
  Ti  Ti12      1.0  0.7500101450000002  0.91034742  0.5082814496267452  1.0000
