data_image0
_chemical_formula_structural       COGa24Fe8
_chemical_formula_sum              "C1 O1 Ga24 Fe8"
_cell_length_a       6.54314798
_cell_length_b       8.9583081
_cell_length_c       34.16676761
_cell_angle_alpha    90.0
_cell_angle_beta     90.0
_cell_angle_gamma    90.0

_space_group_name_H-M_alt    "P 1"
_space_group_IT_number       1

loop_
  _space_group_symop_operation_xyz
  'x, y, z'

loop_
  _atom_site_type_symbol
  _atom_site_label
  _atom_site_symmetry_multiplicity
  _atom_site_fract_x
  _atom_site_fract_y
  _atom_site_fract_z
  _atom_site_occupancy
  C   C1        1.0  0.12116265000000002  5.304999999955484e-06  0.6158715256402203  1.0000
  O   O1        1.0  0.12114203000000001  0.999994695  0.6506237153126059  1.0000
  Ga  Ga1       1.0  0.36342295  0.3437947250000001  0.3903383726658261  1.0000
  Ga  Ga2       1.0  0.36776578000000004  0.846673365  0.5217337106619162  1.0000
  Ga  Ga3       1.0  0.39616762  0.4999580550000001  0.5674695366985778  1.0000
  Ga  Ga4       1.0  0.37892425  2.3135000000037596e-05  0.43130046064425837  1.0000
  Ga  Ga5       1.0  0.87892425  0.656251545  0.3903383726658261  1.0000
  Ga  Ga6       1.0  0.8746551200000001  0.15341828500000004  0.5217606431894026  1.0000
  Ga  Ga7       1.0  0.36342295  0.656251545  0.3903383726658261  1.0000
  Ga  Ga8       1.0  0.36776865  0.15345896500000003  0.5217782206489302  1.0000
  Ga  Ga9       1.0  0.12107575000000002  0.726354075  0.5809493296319496  1.0000
  Ga  Ga10      1.0  0.12117360000000002  0.25002313500000006  0.45588677484243467  1.0000
  Ga  Ga11      1.0  0.8634229500000001  0.5000231350000001  0.4804730890406108  1.0000
  Ga  Ga12      1.0  0.8634229500000001  2.3135000000037596e-05  0.34937628468739396  1.0000
  Ga  Ga13      1.0  0.6211237199999999  0.17783386500000006  0.5921954217985407  1.0000
  Ga  Ga14      1.0  0.6211736  0.7500231350000001  0.45588677484243467  1.0000
  Ga  Ga15      1.0  0.84646339  0.5001154350000001  0.5674566053097964  1.0000
  Ga  Ga16      1.0  0.8634229500000001  2.3135000000037596e-05  0.43130046064425837  1.0000
  Ga  Ga17      1.0  0.87892425  0.3437947250000001  0.3903383726658261  1.0000
  Ga  Ga18      1.0  0.87448384  0.8466976850000002  0.5218099041246064  1.0000
  Ga  Ga19      1.0  0.37892425  0.5000231350000001  0.4804730890406108  1.0000
  Ga  Ga20      1.0  0.37892425  2.3135000000037596e-05  0.34937628468739396  1.0000
  Ga  Ga21      1.0  0.6212315  0.8219305750000002  0.5921885418382482  1.0000
  Ga  Ga22      1.0  0.6211736  0.25002313500000006  0.45588677484243467  1.0000
  Ga  Ga23      1.0  0.12143750000000003  0.27356073500000005  0.580961904437423  1.0000
  Ga  Ga24      1.0  0.12117360000000002  0.7500231350000001  0.45588677484243467  1.0000
  Fe  Fe1       1.0  0.6211736  0.8484914650000001  0.3903383726658261  1.0000
  Fe  Fe2       1.0  0.62115168  0.35358952500000007  0.5195373043140381  1.0000
  Fe  Fe3       1.0  0.6211736  0.15155480500000004  0.3903383726658261  1.0000
  Fe  Fe4       1.0  0.6211378500000001  0.646511495  0.5195151646857189  1.0000
  Fe  Fe5       1.0  0.12117360000000002  0.5000231350000001  0.3506077346532775  1.0000
  Fe  Fe6       1.0  0.12117360000000002  2.3135000000037596e-05  0.48170453900649457  1.0000
  Fe  Fe7       1.0  0.12117360000000002  0.5000231350000001  0.4300690106783747  1.0000
  Fe  Fe8       1.0  0.12114554000000002  4.695000000037595e-06  0.5642039782286052  1.0000
