data_image0
_chemical_formula_structural       COGa8
_chemical_formula_sum              "C1 O1 Ga8"
_cell_length_a       4.6332013
_cell_length_b       4.66649271
_cell_length_c       101.39803478
_cell_angle_alpha    90.0
_cell_angle_beta     90.0
_cell_angle_gamma    90.0

_space_group_name_H-M_alt    "P 1"
_space_group_IT_number       1

loop_
  _space_group_symop_operation_xyz
  'x, y, z'

loop_
  _atom_site_type_symbol
  _atom_site_label
  _atom_site_symmetry_multiplicity
  _atom_site_fract_x
  _atom_site_fract_y
  _atom_site_fract_z
  _atom_site_occupancy
  C   C1        1.0  0.24987141000000004  0.5979518549999999  0.532580789847637  1.0000
  O   O1        1.0  0.25039151000000004  0.547622785  0.5438086598171408  1.0000
  Ga  Ga1       1.0  0.25012859000000004  0.930313815  0.4707050255343405  1.0000
  Ga  Ga2       1.0  0.25012859000000004  0.430313815  0.4561913401828593  1.0000
  Ga  Ga3       1.0  0.25003487  0.06968618500000003  0.49688322946375635  1.0000
  Ga  Ga4       1.0  0.2499173  0.5803776150000001  0.5108863988856793  1.0000
  Ga  Ga5       1.0  0.74998861  0.9297312049999998  0.5133095040292452  1.0000
  Ga  Ga6       1.0  0.75006797  0.409627555  0.4966219952286032  1.0000
  Ga  Ga7       1.0  0.75012859  0.09392203500000001  0.4561913401828593  1.0000
  Ga  Ga8       1.0  0.75012859  0.5939220350000001  0.4707050255343405  1.0000
