data_image0
_chemical_formula_structural       COAl3Cu6Mn3Al3Cu6Mn3Al3Cu6Mn3Al3Cu6Mn3
_chemical_formula_sum              "C1 O1 Al12 Cu24 Mn12"
_cell_length_a       8.301340012599013
_cell_length_b       8.30134002
_cell_length_c       100.50107081
_cell_angle_alpha    90.0
_cell_angle_beta     90.0
_cell_angle_gamma    119.9999999497946

_space_group_name_H-M_alt    "P 1"
_space_group_IT_number       1

loop_
  _space_group_symop_operation_xyz
  'x, y, z'

loop_
  _atom_site_type_symbol
  _atom_site_label
  _atom_site_symmetry_multiplicity
  _atom_site_fract_x
  _atom_site_fract_y
  _atom_site_fract_z
  _atom_site_occupancy
  C   C1        1.0  0.08300785000000004  0.582856615  0.5497903977653972  1.0000
  O   O1        1.0  0.08299618000000002  0.582855755  0.5613609634349092  1.0000
  Al  Al1       1.0  0.24966873000000003  0.416201485  0.48922070561961706  1.0000
  Al  Al2       1.0  0.41629154  0.249504855  0.5218051561830747  1.0000
  Al  Al3       1.0  0.08300206000000003  0.08286815500000004  0.455499593928233  1.0000
  Cu  Cu1       1.0  0.24966873000000003  0.416201485  0.46392987260980406  1.0000
  Cu  Cu2       1.0  0.41633538999999997  0.24953482500000004  0.4976509843011881  1.0000
  Cu  Cu3       1.0  0.08237959000000002  0.08258694500000004  0.5300612224952058  1.0000
  Cu  Cu4       1.0  0.08300206000000003  0.08286815500000004  0.480790426938046  1.0000
  Cu  Cu5       1.0  0.25026486000000003  0.415597015  0.5165864512574841  1.0000
  Cu  Cu6       1.0  0.41633538999999997  0.24953482500000004  0.44706931524666205  1.0000
  Mn  Mn1       1.0  0.08276622000000002  0.08278482500000003  0.5064113144365391  1.0000
  Mn  Mn2       1.0  0.24966873000000003  0.416201485  0.438639036565091  1.0000
  Mn  Mn3       1.0  0.41633538999999997  0.24953482500000004  0.4723601512913751  1.0000
  Al  Al4       1.0  0.24966873000000003  0.916201485  0.48922070561961706  1.0000
  Al  Al5       1.0  0.4138849  0.748353675  0.5216330196852912  1.0000
  Al  Al6       1.0  0.08300206000000003  0.582868155  0.455499593928233  1.0000
  Cu  Cu7       1.0  0.24966873000000003  0.916201485  0.46392987260980406  1.0000
  Cu  Cu8       1.0  0.41633538999999997  0.749534825  0.4976509843011881  1.0000
  Cu  Cu9       1.0  0.08302808000000003  0.582888255  0.5313938471214638  1.0000
  Cu  Cu10      1.0  0.08300206000000003  0.582868155  0.480790426938046  1.0000
  Cu  Cu11      1.0  0.25026855000000003  0.917432465  0.516584533200632  1.0000
  Cu  Cu12      1.0  0.41633538999999997  0.749534825  0.44706931524666205  1.0000
  Mn  Mn4       1.0  0.08303605000000003  0.582908325  0.5069798301294073  1.0000
  Mn  Mn5       1.0  0.24966873000000003  0.916201485  0.438639036565091  1.0000
  Mn  Mn6       1.0  0.41633538999999997  0.749534825  0.4723601512913751  1.0000
  Al  Al7       1.0  0.7496687300000001  0.41620148500000004  0.48922070561961706  1.0000
  Al  Al8       1.0  0.91759385  0.25200246500000006  0.5216314081533474  1.0000
  Al  Al9       1.0  0.5830020600000001  0.08286815500000007  0.455499593928233  1.0000
  Cu  Cu13      1.0  0.7496687300000001  0.41620148500000004  0.46392987260980406  1.0000
  Cu  Cu14      1.0  0.9163353900000001  0.24953482500000004  0.4976509843011881  1.0000
  Cu  Cu15      1.0  0.5833375100000001  0.08256753500000004  0.5300560297811645  1.0000
  Cu  Cu16      1.0  0.5830020600000001  0.08286815500000007  0.480790426938046  1.0000
  Cu  Cu17      1.0  0.7484691600000001  0.41561243500000006  0.5165812190897419  1.0000
  Cu  Cu18      1.0  0.9163353900000001  0.24953482500000004  0.44706931524666205  1.0000
  Mn  Mn7       1.0  0.58314189  0.08276419500000008  0.5064110382606316  1.0000
  Mn  Mn8       1.0  0.7496687300000001  0.41620148500000004  0.438639036565091  1.0000
  Mn  Mn9       1.0  0.9163353900000001  0.24953482500000004  0.4723601512913751  1.0000
  Al  Al10      1.0  0.7496687300000001  0.9162014850000001  0.48922070561961706  1.0000
  Al  Al11      1.0  0.91762041  0.7483810650000001  0.521633414222302  1.0000
  Al  Al12      1.0  0.5830020600000001  0.582868155  0.455499593928233  1.0000
  Cu  Cu19      1.0  0.7496687300000001  0.9162014850000001  0.46392987260980406  1.0000
  Cu  Cu20      1.0  0.9163353900000001  0.749534825  0.4976509843011881  1.0000
  Cu  Cu21      1.0  0.58331646  0.583523185  0.5300590282624461  1.0000
  Cu  Cu22      1.0  0.5830020600000001  0.582868155  0.480790426938046  1.0000
  Cu  Cu23      1.0  0.74971172  0.916247835  0.5168622417326879  1.0000
  Cu  Cu24      1.0  0.9163353900000001  0.749534825  0.44706931524666205  1.0000
  Mn  Mn10      1.0  0.58313204  0.583162015  0.5064109441787291  1.0000
  Mn  Mn11      1.0  0.7496687300000001  0.9162014850000001  0.438639036565091  1.0000
  Mn  Mn12      1.0  0.9163353900000001  0.749534825  0.4723601512913751  1.0000
