data_image0
_chemical_formula_structural       CONi12Sn16
_chemical_formula_sum              "C1 O1 Ni12 Sn16"
_cell_length_a       6.534834548387088
_cell_length_b       11.0175434871438
_cell_length_c       39.865341380000004
_cell_angle_alpha    86.66686493539935
_cell_angle_beta     89.94252065409124
_cell_angle_gamma    103.55289531803277

_space_group_name_H-M_alt    "P 1"
_space_group_IT_number       1

loop_
  _space_group_symop_operation_xyz
  'x, y, z'

loop_
  _atom_site_type_symbol
  _atom_site_label
  _atom_site_symmetry_multiplicity
  _atom_site_fract_x
  _atom_site_fract_y
  _atom_site_fract_z
  _atom_site_occupancy
  C   C1        1.0  0.920540015  0.24904315499999996  0.5975273625334988  1.0000
  O   O1        1.0  0.885767565  0.248800435  0.6264481627638332  1.0000
  Ni  Ni1       1.0  0.6507589849999997  0.10382222499999996  0.41280724393634366  1.0000
  Ni  Ni2       1.0  0.025758984999999988  0.5413222249999999  0.4600516948441412  1.0000
  Ni  Ni3       1.0  0.27733401500000004  0.367120485  0.4645507196516376  1.0000
  Ni  Ni4       1.0  0.9023340149999999  0.9296204849999999  0.41730626874383997  1.0000
  Ni  Ni5       1.0  0.39918396500000003  0.278023965  0.4083082191288474  1.0000
  Ni  Ni6       1.0  0.774183965  0.7155239649999999  0.455552670036645  1.0000
  Ni  Ni7       1.0  0.41127203500000004  0.9679686250000001  0.5073391797773816  1.0000
  Ni  Ni8       1.0  0.7570761049999999  0.40951184499999993  0.548633339496029  1.0000
  Ni  Ni9       1.0  0.9781228149999999  0.23753363499999997  0.5549873023919596  1.0000
  Ni  Ni10      1.0  0.662649595  0.8048483250000001  0.51000629911115  1.0000
  Ni  Ni11      1.0  0.14405528500000003  0.15531258499999995  0.5027754565290341  1.0000
  Ni  Ni12      1.0  0.531253035  0.578551135  0.5431119825664487  1.0000
  Sn  Sn1       1.0  0.767442805  0.3120321849999999  0.37355183723616686  1.0000
  Sn  Sn2       1.0  0.142442805  0.749532185  0.4207962881439644  1.0000
  Sn  Sn3       1.0  0.159075165  0.4581122549999999  0.4048182072878352  1.0000
  Sn  Sn4       1.0  0.534075165  0.895612255  0.45206265819563274  1.0000
  Sn  Sn5       1.0  0.02187718500000001  0.16449899499999995  0.4379148349267836  1.0000
  Sn  Sn6       1.0  0.6468771849999998  0.7269989949999999  0.39067038401898607  1.0000
  Sn  Sn7       1.0  0.6546407949999999  0.48064544499999995  0.4349441038537014  1.0000
  Sn  Sn8       1.0  0.279640795  0.043145444999999956  0.3876996529459038  1.0000
  Sn  Sn9       1.0  0.517442805  0.18703218499999996  0.4680407390517619  1.0000
  Sn  Sn10      1.0  0.9001136149999999  0.629792035  0.5169743264822001  1.0000
  Sn  Sn11      1.0  0.9078745049999999  0.336589405  0.49652735143958543  1.0000
  Sn  Sn12      1.0  0.32989907500000004  0.7612905249999999  0.5481841543750218  1.0000
  Sn  Sn13      1.0  0.7751688249999998  0.03203137499999996  0.5341068047087031  1.0000
  Sn  Sn14      1.0  0.394403195  0.6002790649999998  0.48386841625353727  1.0000
  Sn  Sn15      1.0  0.365765945  0.34061474499999994  0.5366225679399871  1.0000
  Sn  Sn16      1.0  0.03999574499999994  0.918172785  0.4830725626904369  1.0000
