data_image0
_chemical_formula_structural       COAu6Pd12Zn6
_chemical_formula_sum              "C1 O1 Au6 Pd12 Zn6"
_cell_length_a       7.8117154066369565
_cell_length_b       6.37823892
_cell_length_c       104.34786776
_cell_angle_alpha    90.0
_cell_angle_beta     85.65224682421895
_cell_angle_gamma    114.09484254930052

_space_group_name_H-M_alt    "P 1"
_space_group_IT_number       1

loop_
  _space_group_symop_operation_xyz
  'x, y, z'

loop_
  _atom_site_type_symbol
  _atom_site_label
  _atom_site_symmetry_multiplicity
  _atom_site_fract_x
  _atom_site_fract_y
  _atom_site_fract_z
  _atom_site_occupancy
  C   C1        1.0  0.48523878000000004  0.26346699500000004  0.5387933782196929  1.0000
  O   O1        1.0  0.5521510900000002  0.29705666500000005  0.5487832819754572  1.0000
  Au  Au1       1.0  0.3541666700000001  0.19791666500000005  0.47864729810024176  1.0000
  Au  Au2       1.0  0.52078144  0.781659235  0.5067434142176191  1.0000
  Au  Au3       1.0  0.18750000000000003  0.6145833350000001  0.4512167180245428  1.0000
  Au  Au4       1.0  0.9375000000000001  0.4895833350000001  0.4923625848464218  1.0000
  Au  Au5       1.0  0.09372843000000003  0.066897955  0.5214943193900206  1.0000
  Au  Au6       1.0  0.7708333300000001  0.906249995  0.4649320080623923  1.0000
  Pd  Pd1       1.0  0.4791666700000001  0.01041666500000005  0.4580743646893022  1.0000
  Pd  Pd2       1.0  0.6458333300000001  0.593749995  0.48550494147333173  1.0000
  Pd  Pd3       1.0  0.81998508  0.18141937500000002  0.5125003464031757  1.0000
  Pd  Pd4       1.0  0.4219898600000001  0.014868575000000049  0.52560401794323  1.0000
  Pd  Pd5       1.0  0.06250000000000003  0.8020833350000001  0.47178965143548235  1.0000
  Pd  Pd6       1.0  0.23031885000000002  0.37883645500000007  0.4994829297666575  1.0000
  Pd  Pd7       1.0  0.4216050700000001  0.44771095500000013  0.5255715324584568  1.0000
  Pd  Pd8       1.0  0.06250000000000003  0.302083335  0.47178965143548235  1.0000
  Pd  Pd9       1.0  0.23032928000000003  0.893294095  0.49945429553501886  1.0000
  Pd  Pd10      1.0  0.4791666700000001  0.510416665  0.4580743646893022  1.0000
  Pd  Pd11      1.0  0.6458333300000001  0.09374999500000006  0.48550494147333173  1.0000
  Pd  Pd12      1.0  0.8194027700000001  0.6801175150000001  0.5124729366725337  1.0000
  Zn  Zn1       1.0  0.3541666700000001  0.697916665  0.47864729810024176  1.0000
  Zn  Zn2       1.0  0.5358665  0.288561165  0.5048664286482774  1.0000
  Zn  Zn3       1.0  0.18750000000000003  0.11458333500000001  0.4512167180245428  1.0000
  Zn  Zn4       1.0  0.9375000000000001  0.9895833350000002  0.4923625848464218  1.0000
  Zn  Zn5       1.0  0.11381626  0.5780077450000001  0.5185720247199035  1.0000
  Zn  Zn6       1.0  0.7708333300000001  0.4062499950000001  0.4649320080623923  1.0000
