data_image0
_chemical_formula_structural       COSn8Ir8Sn8Ir8
_chemical_formula_sum              "C1 O1 Sn16 Ir16"
_cell_length_a       6.984967632635578
_cell_length_b       7.00814867
_cell_length_c       111.9098058
_cell_angle_alpha    90.0
_cell_angle_beta     109.20208754888273
_cell_angle_gamma    90.0

_space_group_name_H-M_alt    "P 1"
_space_group_IT_number       1

loop_
  _space_group_symop_operation_xyz
  'x, y, z'

loop_
  _atom_site_type_symbol
  _atom_site_label
  _atom_site_symmetry_multiplicity
  _atom_site_fract_x
  _atom_site_fract_y
  _atom_site_fract_z
  _atom_site_occupancy
  C   C1        1.0  0.487812995  0.192836015  0.558732668920845  1.0000
  O   O1        1.0  0.514965725  0.250547095  0.5690176399755638  1.0000
  Sn  Sn1       1.0  0.5611335550000001  0.25000000499999997  0.5012004122435922  1.0000
  Sn  Sn2       1.0  0.06614473499999998  0.24549857499999997  0.5322703162313106  1.0000
  Sn  Sn3       1.0  0.28054223500000003  0.7720049649999999  0.5463497697139573  1.0000
  Sn  Sn4       1.0  0.811133555  0.750000005  0.51680442509617  1.0000
  Sn  Sn5       1.0  0.571275435  0.420953805  0.5328020410273792  1.0000
  Sn  Sn6       1.0  0.061133554999999985  0.41666666499999994  0.5012004122435922  1.0000
  Sn  Sn7       1.0  0.311133555  0.916666665  0.51680442509617  1.0000
  Sn  Sn8       1.0  0.773717455  0.8728719250000001  0.5462464611705696  1.0000
  Ir  Ir1       1.0  0.45188114500000004  0.09671006499999998  0.5425442209209995  1.0000
  Ir  Ir2       1.0  0.9361335550000001  0.08333333499999998  0.5090024167973998  1.0000
  Ir  Ir3       1.0  0.19805233500000002  0.5771652349999999  0.5249714811323359  1.0000
  Ir  Ir4       1.0  0.6861335550000002  0.5833333350000001  0.49339840768978466  1.0000
  Ir  Ir5       1.0  0.690364685  0.08477860499999998  0.5252084698672976  1.0000
  Ir  Ir6       1.0  0.18613355500000003  0.08333333499999998  0.49339840768978466  1.0000
  Ir  Ir7       1.0  0.436133555  0.5833333350000001  0.5090024167973998  1.0000
  Ir  Ir8       1.0  0.938866445  0.582408045  0.5396726995512913  1.0000
  Sn  Sn9       1.0  0.5611335550000001  0.25000000499999997  0.4387843645782438  1.0000
  Sn  Sn10      1.0  0.061133554999999985  0.25000000499999997  0.4699923902833994  1.0000
  Sn  Sn11      1.0  0.311133555  0.750000005  0.4855963993910144  1.0000
  Sn  Sn12      1.0  0.811133555  0.750000005  0.4543883774308216  1.0000
  Sn  Sn13      1.0  0.5611335550000001  0.41666666499999994  0.4699923902833994  1.0000
  Sn  Sn14      1.0  0.061133554999999985  0.41666666499999994  0.4387843645782437  1.0000
  Sn  Sn15      1.0  0.311133555  0.916666665  0.4543883774308216  1.0000
  Sn  Sn16      1.0  0.811133555  0.916666665  0.48559639939101445  1.0000
  Ir  Ir9       1.0  0.436133555  0.08333333499999998  0.47779439483720687  1.0000
  Ir  Ir10      1.0  0.9361335550000001  0.08333333499999998  0.4465863728770141  1.0000
  Ir  Ir11      1.0  0.18613355500000003  0.5833333350000001  0.4621903819846291  1.0000
  Ir  Ir12      1.0  0.6861335550000002  0.5833333350000001  0.43098236002443624  1.0000
  Ir  Ir13      1.0  0.6861335550000002  0.08333333499999998  0.4621903819846291  1.0000
  Ir  Ir14      1.0  0.18613355500000003  0.08333333499999998  0.4309823600244363  1.0000
  Ir  Ir15      1.0  0.436133555  0.5833333350000001  0.4465863728770141  1.0000
  Ir  Ir16      1.0  0.9361335550000001  0.5833333350000001  0.47779439483720687  1.0000
