data_image0
_chemical_formula_structural       CONi18Sn6Ni18Sn6
_chemical_formula_sum              "C1 O1 Ni36 Sn12"
_cell_length_a       5.364292308872536
_cell_length_b       10.117599402971742
_cell_length_c       111.20963993000001
_cell_angle_alpha    83.37308366287157
_cell_angle_beta     112.98638857183585
_cell_angle_gamma    74.62727807227878

_space_group_name_H-M_alt    "P 1"
_space_group_IT_number       1

loop_
  _space_group_symop_operation_xyz
  'x, y, z'

loop_
  _atom_site_type_symbol
  _atom_site_label
  _atom_site_symmetry_multiplicity
  _atom_site_fract_x
  _atom_site_fract_y
  _atom_site_fract_z
  _atom_site_occupancy
  C   C1        1.0  0.6785336449999999  0.89102546  0.5543418822077611  1.0000
  O   O1        1.0  0.7725946050000001  0.8910022400000002  0.5659570389577345  1.0000
  Ni  Ni1       1.0  0.6815641850000002  0.80642705  0.45550033530362105  1.0000
  Ni  Ni2       1.0  0.681564185  0.13976039000000004  0.47608689788087755  1.0000
  Ni  Ni3       1.0  0.681564185  0.47309372000000005  0.4349137690207829  1.0000
  Ni  Ni4       1.0  0.841180885  0.20001593000000004  0.4377643247489109  1.0000
  Ni  Ni5       1.0  0.8411808850000001  0.53334926  0.4583508910317491  1.0000
  Ni  Ni6       1.0  0.8411808850000001  0.86668259  0.47893745360900564  1.0000
  Ni  Ni7       1.0  0.841180885  0.026299290000000038  0.45922169901026666  1.0000
  Ni  Ni8       1.0  0.8411808850000001  0.35963262  0.47980826158752315  1.0000
  Ni  Ni9       1.0  0.8411808849999998  0.6929659500000002  0.43863513272742843  1.0000
  Ni  Ni10      1.0  0.16041426500000003  0.98014369  0.4340429610422655  1.0000
  Ni  Ni11      1.0  0.16041426500000003  0.31347703000000005  0.4546295273251036  1.0000
  Ni  Ni12      1.0  0.1604142650000001  0.64681036  0.4752160899023601  1.0000
  Ni  Ni13      1.0  0.16041426500000003  0.80642705  0.45550033530362105  1.0000
  Ni  Ni14      1.0  0.16041426500000003  0.13976039000000004  0.47608689788087755  1.0000
  Ni  Ni15      1.0  0.16041426500000003  0.47309372000000005  0.4349137690207829  1.0000
  Ni  Ni16      1.0  0.320030965  0.20001593000000004  0.4377643247489109  1.0000
  Ni  Ni17      1.0  0.32003096499999995  0.53334926  0.4583508910317491  1.0000
  Ni  Ni18      1.0  0.32003096500000006  0.86668259  0.4789374536090057  1.0000
  Sn  Sn1       1.0  0.6674642449999998  0.9754437100000002  0.4346234996946104  1.0000
  Sn  Sn2       1.0  0.667464245  0.30877705  0.4552100659774486  1.0000
  Sn  Sn3       1.0  0.667464245  0.6421103800000001  0.4757966285547051  1.0000
  Sn  Sn4       1.0  0.334130905  0.030999270000000034  0.45864116035792163  1.0000
  Sn  Sn5       1.0  0.334130905  0.36433260000000006  0.47922772293517824  1.0000
  Sn  Sn6       1.0  0.3341309049999999  0.6976659300000001  0.4380545940750835  1.0000
  Ni  Ni19      1.0  0.6773470149999999  0.8062221100000002  0.5172444225367095  1.0000
  Ni  Ni20      1.0  0.6745212649999999  0.14452807000000004  0.5372480934172833  1.0000
  Ni  Ni21      1.0  0.681564185  0.47309372000000005  0.4966734641637157  1.0000
  Ni  Ni22      1.0  0.841180885  0.20001593000000004  0.49952401989184386  1.0000
  Ni  Ni23      1.0  0.844271335  0.53290196  0.5203155307781393  1.0000
  Ni  Ni24      1.0  0.820951575  0.8732198600000002  0.5410937497431119  1.0000
  Ni  Ni25      1.0  0.849000845  0.01985631000000004  0.5215919813670183  1.0000
  Ni  Ni26      1.0  0.8227888350000002  0.36717552999999997  0.539903364993275  1.0000
  Ni  Ni27      1.0  0.841180875  0.6929659500000002  0.5003948278703613  1.0000
  Ni  Ni28      1.0  0.16041426500000003  0.98014369  0.4958026561851983  1.0000
  Ni  Ni29      1.0  0.15554728500000004  0.31779182  0.5160682375756959  1.0000
  Ni  Ni30      1.0  0.15099915499999994  0.6535289300000001  0.5362013629506696  1.0000
  Ni  Ni31      1.0  0.16460950499999996  0.8061698100000001  0.5172394978187174  1.0000
  Ni  Ni32      1.0  0.15201511500000003  0.14443044000000005  0.5372721092918561  1.0000
  Ni  Ni33      1.0  0.16041426500000003  0.47309372000000005  0.4966734641637157  1.0000
  Ni  Ni34      1.0  0.320030965  0.20001593000000004  0.49952401989184386  1.0000
  Ni  Ni35      1.0  0.32050952499999996  0.5329169300000001  0.5203251764071337  1.0000
  Ni  Ni36      1.0  0.339682745  0.8730644500000001  0.5410788125435434  1.0000
  Sn  Sn7       1.0  0.6674642449999998  0.9754437100000002  0.4963831948375433  1.0000
  Sn  Sn8       1.0  0.6667553050000001  0.30610370000000003  0.5167111671060204  1.0000
  Sn  Sn9       1.0  0.6749209950000001  0.64065691  0.5384021227057044  1.0000
  Sn  Sn10      1.0  0.33089678499999997  0.03379051000000004  0.5201893186676695  1.0000
  Sn  Sn11      1.0  0.342526895  0.35856897000000004  0.5418281107946852  1.0000
  Sn  Sn12      1.0  0.3341309049999999  0.6976659300000001  0.4998142892180164  1.0000
