data_image0
_chemical_formula_structural       COCu2Pt14
_chemical_formula_sum              "C1 O1 Cu2 Pt14"
_cell_length_a       5.5943569
_cell_length_b       5.5943569
_cell_length_c       101.64646159
_cell_angle_alpha    90.0
_cell_angle_beta     90.0
_cell_angle_gamma    90.0

_space_group_name_H-M_alt    "P 1"
_space_group_IT_number       1

loop_
  _space_group_symop_operation_xyz
  'x, y, z'

loop_
  _atom_site_type_symbol
  _atom_site_label
  _atom_site_symmetry_multiplicity
  _atom_site_fract_x
  _atom_site_fract_y
  _atom_site_fract_z
  _atom_site_occupancy
  C   C1        1.0  0.36082380999999997  0.36081979000000003  0.5335290209861555  1.0000
  O   O1        1.0  0.35475958  0.35475411  0.5449838323697566  1.0000
  Cu  Cu1       1.0  0.12455347000000003  0.12455514999999999  0.4937694758874245  1.0000
  Cu  Cu2       1.0  0.6200792500000001  0.62007915  0.4550161676302432  1.0000
  Pt  Pt1       1.0  0.61761136  0.61761346  0.49412601145051377  1.0000
  Pt  Pt2       1.0  0.12007925000000003  0.62007915  0.4550161676302432  1.0000
  Pt  Pt3       1.0  0.3700792500000001  0.8700791499999999  0.47447482677524183  1.0000
  Pt  Pt4       1.0  0.87007925  0.37007914999999997  0.47447482677524183  1.0000
  Pt  Pt5       1.0  0.6200792500000001  0.12007914999999998  0.4550161676302432  1.0000
  Pt  Pt6       1.0  0.3794235  0.37942304  0.5153886003801303  1.0000
  Pt  Pt7       1.0  0.3700792500000001  0.37007914999999997  0.47447482677524183  1.0000
  Pt  Pt8       1.0  0.12007925000000003  0.12007914999999998  0.4550161676302432  1.0000
  Pt  Pt9       1.0  0.61665095  0.12470770999999999  0.49381685850078894  1.0000
  Pt  Pt10      1.0  0.87992075  0.3705418  0.5124280541227045  1.0000
  Pt  Pt11      1.0  0.37053972  0.8799208500000001  0.5124281226171847  1.0000
  Pt  Pt12      1.0  0.12470678000000003  0.61665248  0.49381688963464354  1.0000
  Pt  Pt13      1.0  0.87007925  0.8700791499999999  0.47447482677524183  1.0000
  Pt  Pt14      1.0  0.87821003  0.87821254  0.5123673462195576  1.0000
