data_image0
_chemical_formula_structural       COAs16Pt8
_chemical_formula_sum              "C1 O1 As16 Pt8"
_cell_length_a       6.09497558
_cell_length_b       8.61959713
_cell_length_c       104.47838851
_cell_angle_alpha    90.0
_cell_angle_beta     90.0
_cell_angle_gamma    90.0

_space_group_name_H-M_alt    "P 1"
_space_group_IT_number       1

loop_
  _space_group_symop_operation_xyz
  'x, y, z'

loop_
  _atom_site_type_symbol
  _atom_site_label
  _atom_site_symmetry_multiplicity
  _atom_site_fract_x
  _atom_site_fract_y
  _atom_site_fract_z
  _atom_site_occupancy
  C   C1        1.0  0.05710053000000006  0.9835740150000001  0.5400842264975051  1.0000
  O   O1        1.0  0.05306836000000006  0.9664018250000002  0.5511220944662375  1.0000
  As  As1       1.0  0.67584893  0.516425985  0.4488779055337625  1.0000
  As  As2       1.0  0.67584893  0.016425984999999983  0.49012852803295515  1.0000
  As  As3       1.0  0.17584893000000007  0.266425985  0.450251214657906  1.0000
  As  As4       1.0  0.17584893000000007  0.7664259849999999  0.4915018371570987  1.0000
  As  As5       1.0  0.4699056400000001  0.904009295  0.5224385170120712  1.0000
  As  As6       1.0  0.44249485000000016  0.39974894499999997  0.48050252697022877  1.0000
  As  As7       1.0  0.9469316400000001  0.37672058500000005  0.500345766017838  1.0000
  As  As8       1.0  0.9424948500000001  0.883103025  0.4598772157206324  1.0000
  As  As9       1.0  0.4620709400000001  0.515517835  0.513561647054229  1.0000
  As  As10      1.0  0.44249485000000016  0.016425984999999983  0.47087652590750234  1.0000
  As  As11      1.0  0.9421277600000002  0.764929525  0.5113846009011618  1.0000
  As  As12      1.0  0.9424948500000001  0.266425985  0.4695032167833588  1.0000
  As  As13      1.0  0.68486903  0.144563835  0.5223709088918199  1.0000
  As  As14      1.0  0.67584893  0.633103025  0.48050252697022877  1.0000
  As  As15      1.0  0.17584893000000007  0.649748945  0.4598772157206324  1.0000
  As  As16      1.0  0.18333152000000008  0.147464515  0.501545921528979  1.0000
  Pt  Pt1       1.0  0.05917189000000006  0.516425985  0.48050252697022877  1.0000
  Pt  Pt2       1.0  0.07899460000000005  0.025139474999999984  0.5220514574710866  1.0000
  Pt  Pt3       1.0  0.5591718900000001  0.7664259849999999  0.4598772157206324  1.0000
  Pt  Pt4       1.0  0.5660229300000001  0.267330705  0.5011244721690291  1.0000
  Pt  Pt5       1.0  0.07521202000000006  0.514235435  0.5188651702879044  1.0000
  Pt  Pt6       1.0  0.05917189000000006  0.016425984999999983  0.48050252697022877  1.0000
  Pt  Pt7       1.0  0.5591718900000001  0.266425985  0.4598772157206324  1.0000
  Pt  Pt8       1.0  0.5587168000000001  0.766777055  0.501079855495734  1.0000
