data_image0
_chemical_formula_structural       COCo12Ti6
_chemical_formula_sum              "C1 O1 Co12 Ti6"
_cell_length_a       4.720309521692621
_cell_length_b       4.72030953
_cell_length_c       104.6870493
_cell_angle_alpha    90.0
_cell_angle_beta     90.0
_cell_angle_gamma    119.99999998813817

_space_group_name_H-M_alt    "P 1"
_space_group_IT_number       1

loop_
  _space_group_symop_operation_xyz
  'x, y, z'

loop_
  _atom_site_type_symbol
  _atom_site_label
  _atom_site_symmetry_multiplicity
  _atom_site_fract_x
  _atom_site_fract_y
  _atom_site_fract_z
  _atom_site_occupancy
  C   C1        1.0  0.26934832000000003  0.37910079500000005  0.5554081705799735  1.0000
  O   O1        1.0  0.26071089000000003  0.2575423149999999  0.5653436743790039  1.0000
  Co  Co1       1.0  0.43901228000000003  0.41666666499999994  0.4484621769284972  1.0000
  Co  Co2       1.0  0.7723456200000001  0.08333333499999997  0.48527777710176256  1.0000
  Co  Co3       1.0  0.06098772000000001  0.7110669049999999  0.5225542088235291  1.0000
  Co  Co4       1.0  0.93901228  0.41666666499999994  0.4484621769284972  1.0000
  Co  Co5       1.0  0.27234562  0.08333333499999991  0.48527777710176256  1.0000
  Co  Co6       1.0  0.6045722700000001  0.809777715  0.5217593563262798  1.0000
  Co  Co7       1.0  0.60567895  0.24999999499999997  0.46686997535842784  1.0000
  Co  Co8       1.0  0.93901228  0.916666665  0.5036855788450973  1.0000
  Co  Co9       1.0  0.27441017  0.5466773949999999  0.5404295266558089  1.0000
  Co  Co10      1.0  0.43901228000000003  0.916666665  0.4484621769284972  1.0000
  Co  Co11      1.0  0.7723456200000001  0.5833333350000001  0.48527777710176256  1.0000
  Co  Co12      1.0  0.15777648000000002  0.259568765  0.5210931500546263  1.0000
  Ti  Ti1       1.0  0.27234562  0.583333335  0.4990836284092636  1.0000
  Ti  Ti2       1.0  0.6137780700000001  0.27826003499999996  0.5352018001045243  1.0000
  Ti  Ti3       1.0  0.93901228  0.916666665  0.4622680282359982  1.0000
  Ti  Ti4       1.0  0.93901228  0.916666665  0.43465632562099615  1.0000
  Ti  Ti5       1.0  0.27234562  0.583333335  0.4714719257942615  1.0000
  Ti  Ti6       1.0  0.60567895  0.24999999499999997  0.5082875259675269  1.0000
