data_image0
_chemical_formula_structural       COGe4Pd4Ge4Pd4
_chemical_formula_sum              "C1 O1 Ge8 Pd8"
_cell_length_a       5.88973573
_cell_length_b       6.35946757
_cell_length_c       99.07307176
_cell_angle_alpha    90.0
_cell_angle_beta     90.0
_cell_angle_gamma    90.0

_space_group_name_H-M_alt    "P 1"
_space_group_IT_number       1

loop_
  _space_group_symop_operation_xyz
  'x, y, z'

loop_
  _atom_site_type_symbol
  _atom_site_label
  _atom_site_symmetry_multiplicity
  _atom_site_fract_x
  _atom_site_fract_y
  _atom_site_fract_z
  _atom_site_occupancy
  C   C1        1.0  0.5045813000000001  0.6056742799999999  0.5293425427076376  1.0000
  O   O1        1.0  0.5480007200000001  0.6180199  0.5409717307088383  1.0000
  Ge  Ge1       1.0  0.8148366600000001  0.08745546999999997  0.47736894403476676  1.0000
  Ge  Ge2       1.0  0.1871327  0.92847047  0.45902826929116175  1.0000
  Ge  Ge3       1.0  0.31483666  0.42847046999999994  0.47736894403476676  1.0000
  Ge  Ge4       1.0  0.6871327  0.5874554699999999  0.45902826929116175  1.0000
  Pd  Pd1       1.0  0.9967181199999999  0.6982935599999999  0.47736894403476676  1.0000
  Pd  Pd2       1.0  0.005251240000000032  0.31763237999999994  0.45902826929116175  1.0000
  Pd  Pd3       1.0  0.4967181200000001  0.81763238  0.47736894403476676  1.0000
  Pd  Pd4       1.0  0.5052512400000001  0.19829355999999995  0.45902826929116175  1.0000
  Ge  Ge5       1.0  0.84137568  0.06790718999999998  0.5136245081551611  1.0000
  Ge  Ge6       1.0  0.20357004000000004  0.93209281  0.49583882222929754  1.0000
  Ge  Ge7       1.0  0.29094669  0.3993344499999999  0.5162124888727863  1.0000
  Ge  Ge8       1.0  0.6898159500000001  0.5783282699999999  0.4952605833049971  1.0000
  Pd  Pd5       1.0  0.003281880000000032  0.69324416  0.5115187874100222  1.0000
  Pd  Pd6       1.0  0.01291621000000003  0.31302235999999994  0.4950029804583263  1.0000
  Pd  Pd7       1.0  0.50686737  0.8086225899999999  0.5132278008277109  1.0000
  Pd  Pd8       1.0  0.51787117  0.20695744999999993  0.49783132378836326  1.0000
