data_image0
_chemical_formula_structural       COCr6Ge2Cr6Ge2
_chemical_formula_sum              "C1 O1 Cr12 Ge4"
_cell_length_a       4.60647478
_cell_length_b       4.60647478
_cell_length_c       102.24532346000001
_cell_angle_alpha    90.0
_cell_angle_beta     90.0
_cell_angle_gamma    90.0

_space_group_name_H-M_alt    "P 1"
_space_group_IT_number       1

loop_
  _space_group_symop_operation_xyz
  'x, y, z'

loop_
  _atom_site_type_symbol
  _atom_site_label
  _atom_site_symmetry_multiplicity
  _atom_site_fract_x
  _atom_site_fract_y
  _atom_site_fract_z
  _atom_site_occupancy
  C   C1        1.0  0.47935514500000004  0.722979945  0.5417850433031284  1.0000
  O   O1        1.0  0.464945755  0.648395165  0.5527878558784712  1.0000
  Cr  Cr1       1.0  0.0005855349999999902  0.628405775  0.44721214412152854  1.0000
  Cr  Cr2       1.0  0.0005855349999999902  0.628405775  0.4697387230005744  1.0000
  Cr  Cr3       1.0  0.500585535  0.37840577500000006  0.48100201401695797  1.0000
  Cr  Cr4       1.0  0.500585535  0.8784057750000002  0.48100201401695797  1.0000
  Cr  Cr5       1.0  0.750585535  0.12840577500000003  0.458475431984191  1.0000
  Cr  Cr6       1.0  0.25058553499999997  0.12840577500000003  0.458475431984191  1.0000
  Ge  Ge1       1.0  0.0005855349999999902  0.12840577500000003  0.48100201401695797  1.0000
  Ge  Ge2       1.0  0.500585535  0.628405775  0.458475431984191  1.0000
  Cr  Cr7       1.0  0.0005855349999999902  0.628405775  0.49226530187962036  1.0000
  Cr  Cr8       1.0  0.9994144650000001  0.621347615  0.5151546312214579  1.0000
  Cr  Cr9       1.0  0.5007650450000001  0.362591685  0.5239363410961679  1.0000
  Cr  Cr10      1.0  0.497692495  0.879951285  0.5245741622675583  1.0000
  Cr  Cr11      1.0  0.753241205  0.133230595  0.50351204532136  1.0000
  Cr  Cr12      1.0  0.24707021499999998  0.132818925  0.5035079139467109  1.0000
  Ge  Ge3       1.0  0.998921645  0.12004871500000003  0.5268946986409466  1.0000
  Ge  Ge4       1.0  0.499980135  0.635112675  0.5029179851840384  1.0000
