data_image0
_chemical_formula_structural       COCo8Ge8
_chemical_formula_sum              "C1 O1 Co8 Ge8"
_cell_length_a       4.967982904200156
_cell_length_b       6.206602696113774
_cell_length_c       99.02023493
_cell_angle_alpha    96.01741491849036
_cell_angle_beta     91.95456192723906
_cell_angle_gamma    99.17635955198064

_space_group_name_H-M_alt    "P 1"
_space_group_IT_number       1

loop_
  _space_group_symop_operation_xyz
  'x, y, z'

loop_
  _atom_site_type_symbol
  _atom_site_label
  _atom_site_symmetry_multiplicity
  _atom_site_fract_x
  _atom_site_fract_y
  _atom_site_fract_z
  _atom_site_occupancy
  C   C1        1.0  0.7411052399999999  0.058360659999999995  0.5359733035007486  1.0000
  O   O1        1.0  0.75773416  0.14560051  0.5470965702094895  1.0000
  Co  Co1       1.0  0.08890950000000007  0.44282921  0.4910837400743331  1.0000
  Co  Co2       1.0  0.5878171799999999  0.44188086000000004  0.4897218379236703  1.0000
  Co  Co3       1.0  0.41853006  0.8194840099999998  0.4958992500706855  1.0000
  Co  Co4       1.0  0.7158184100000001  0.93914217  0.518891374917268  1.0000
  Co  Co5       1.0  0.09213866000000005  0.57233399  0.4529034297905105  1.0000
  Co  Co6       1.0  0.59213866  0.57233399  0.4529034297905105  1.0000
  Co  Co7       1.0  0.41818777000000007  0.9416393399999998  0.46011901185579507  1.0000
  Co  Co8       1.0  0.76608955  0.07802864  0.4823220707081788  1.0000
  Ge  Ge1       1.0  0.9000071599999999  0.7872653599999999  0.49519669066526995  1.0000
  Ge  Ge2       1.0  0.21752313000000004  0.9088204399999998  0.5178717917383713  1.0000
  Ge  Ge3       1.0  0.78428938  0.24118835  0.5062531453435035  1.0000
  Ge  Ge4       1.0  0.40211266  0.52544194  0.5117465555170974  1.0000
  Ge  Ge5       1.0  0.9110904999999998  0.9157609199999999  0.45961339217166003  1.0000
  Ge  Ge6       1.0  0.2731868200000001  0.10390706000000001  0.48282769039231377  1.0000
  Ge  Ge7       1.0  0.8098764  0.37848839  0.468654278793177  1.0000
  Ge  Ge8       1.0  0.37440092  0.6411795899999999  0.4737868037707968  1.0000
