data_image0
_chemical_formula_structural       COAg4As4Se8
_chemical_formula_sum              "C1 O1 Ag4 As4 Se8"
_cell_length_a       6.86504321
_cell_length_b       7.023939269748647
_cell_length_c       101.70827636
_cell_angle_alpha    90.0
_cell_angle_beta     90.0
_cell_angle_gamma    109.01360394260307

_space_group_name_H-M_alt    "P 1"
_space_group_IT_number       1

loop_
  _space_group_symop_operation_xyz
  'x, y, z'

loop_
  _atom_site_type_symbol
  _atom_site_label
  _atom_site_symmetry_multiplicity
  _atom_site_fract_x
  _atom_site_fract_y
  _atom_site_fract_z
  _atom_site_occupancy
  C   C1        1.0  0.5961408099999999  0.7366939299999999  0.5361575016711531  1.0000
  O   O1        1.0  0.70530571  0.8135269599999999  0.5446107951913207  1.0000
  Ag  Ag1       1.0  0.5050705  0.6149646799999999  0.47487402299088377  1.0000
  Ag  Ag2       1.0  0.005070500000000011  0.6149646799999999  0.45538920480867934  1.0000
  Ag  Ag3       1.0  0.53591377  0.6059901099999999  0.5168573060381887  1.0000
  Ag  Ag4       1.0  0.9949295000000001  0.59427906  0.4966225000575112  1.0000
  As  As1       1.0  0.5050705  0.11496467999999997  0.45538920480867934  1.0000
  As  As2       1.0  0.005070500000000011  0.11496467999999997  0.47487402299088377  1.0000
  As  As3       1.0  0.51993811  0.12645177999999996  0.4975586161919734  1.0000
  As  As4       1.0  0.036463680000000005  0.10728145999999997  0.5126633314212328  1.0000
  Se  Se1       1.0  0.7597342899999999  0.8789560499999999  0.45538920480867934  1.0000
  Se  Se2       1.0  0.25973429000000003  0.8789560499999999  0.47487402299088377  1.0000
  Se  Se3       1.0  0.7504067100000001  0.35097331  0.47487402299088377  1.0000
  Se  Se4       1.0  0.25040671  0.35097331  0.45538920480867934  1.0000
  Se  Se5       1.0  0.7715630099999999  0.8927185400000001  0.4975241202698636  1.0000
  Se  Se6       1.0  0.25760212  0.88425256  0.512878490577528  1.0000
  Se  Se7       1.0  0.7403537400000001  0.34346880999999996  0.5146974778528949  1.0000
  Se  Se8       1.0  0.26224492000000005  0.36161791  0.4972862994906298  1.0000
