data_image0
_chemical_formula_structural       COAl4Pb2Se8
_chemical_formula_sum              "C1 O1 Al4 Pb2 Se8"
_cell_length_a       6.32907854
_cell_length_b       6.40522117673879
_cell_length_c       103.30166041
_cell_angle_alpha    90.0
_cell_angle_beta     90.0
_cell_angle_gamma    119.60753469871304

_space_group_name_H-M_alt    "P 1"
_space_group_IT_number       1

loop_
  _space_group_symop_operation_xyz
  'x, y, z'

loop_
  _atom_site_type_symbol
  _atom_site_label
  _atom_site_symmetry_multiplicity
  _atom_site_fract_x
  _atom_site_fract_y
  _atom_site_fract_z
  _atom_site_occupancy
  C   C1        1.0  0.15176187999999993  0.5899624749999999  0.5471597881076771  1.0000
  O   O1        1.0  0.15160310999999996  0.6033523849999999  0.5585107683587309  1.0000
  Al  Al1       1.0  0.8755920599999999  0.5762838949999999  0.5314546970277859  1.0000
  Al  Al2       1.0  0.8493853799999999  0.518468015  0.47716326020550465  1.0000
  Al  Al3       1.0  0.33287419999999995  0.48153219499999994  0.47716326020550465  1.0000
  Al  Al4       1.0  0.39405728999999995  0.5604874249999999  0.5319939495939725  1.0000
  Pb  Pb1       1.0  0.5911299299999999  0.999999895  0.5004258337050836  1.0000
  Pb  Pb2       1.0  0.5911297899999999  1.0499999995331124e-07  0.45029884926109137  1.0000
  Se  Se1       1.0  0.12556537999999995  0.5444794249999999  0.5149105014113641  1.0000
  Se  Se2       1.0  0.90887021  0.16708534499999994  0.47716326020550465  1.0000
  Se  Se3       1.0  0.5911297899999999  0.5000001049999999  0.495218056753825  1.0000
  Se  Se4       1.0  0.7948228199999999  0.9045143749999998  0.5315032786304811  1.0000
  Se  Se5       1.0  0.4820088899999999  0.24535734499999995  0.5363067031977947  1.0000
  Se  Se6       1.0  0.5911297899999999  0.5000001049999999  0.45910846688091367  1.0000
  Se  Se7       1.0  0.2733893699999999  0.8329148649999999  0.47716326020550465  1.0000
  Se  Se8       1.0  0.09112978999999992  0.5000001049999999  0.4414892316412691  1.0000
