data_image0
_chemical_formula_structural       COTi4Ga2Ti4Ga2
_chemical_formula_sum              "C1 O1 Ti8 Ga4"
_cell_length_a       4.558386895082538
_cell_length_b       4.55838689
_cell_length_c       102.99107404
_cell_angle_alpha    90.0
_cell_angle_beta     90.0
_cell_angle_gamma    120.0000000356855

_space_group_name_H-M_alt    "P 1"
_space_group_IT_number       1

loop_
  _space_group_symop_operation_xyz
  'x, y, z'

loop_
  _atom_site_type_symbol
  _atom_site_label
  _atom_site_symmetry_multiplicity
  _atom_site_fract_x
  _atom_site_fract_y
  _atom_site_fract_z
  _atom_site_occupancy
  C   C1        1.0  0.51889774  0.378400825  0.5509438182154065  1.0000
  O   O1        1.0  0.52993682  0.402638105  0.5622066048594863  1.0000
  Ti  Ti1       1.0  0.5010630500000002  0.3367478750000001  0.5302987581796968  1.0000
  Ti  Ti2       1.0  0.83441848  0.9995645749999998  0.5047617613311707  1.0000
  Ti  Ti3       1.0  0.16558152000000007  0.6637910650000001  0.49118163777438234  1.0000
  Ti  Ti4       1.0  0.1670811100000001  0.666653045  0.5176450978630425  1.0000
  Ga  Ga1       1.0  0.50098055  0.33300303500000006  0.5042966045311128  1.0000
  Ga  Ga2       1.0  0.8332722300000001  0.0004354250000000245  0.5315692936880166  1.0000
  Ti  Ti5       1.0  0.49891486  0.3304577250000001  0.47783457631509163  1.0000
  Ti  Ti6       1.0  0.8322481900000002  0.997124395  0.45114045659980456  1.0000
  Ti  Ti7       1.0  0.16558152000000007  0.6637910650000001  0.4377933951405138  1.0000
  Ti  Ti8       1.0  0.16558152000000007  0.6637910650000001  0.46448751805909533  1.0000
  Ga  Ga3       1.0  0.49891486  0.3304577250000001  0.45114045659980456  1.0000
  Ga  Ga4       1.0  0.8322481900000002  0.997124395  0.47783457631509163  1.0000
