data_image0
_chemical_formula_structural       COTi4Fe8
_chemical_formula_sum              "C1 O1 Ti4 Fe8"
_cell_length_a       4.72936848
_cell_length_b       4.729368482132677
_cell_length_c       100.731584
_cell_angle_alpha    90.0
_cell_angle_beta     90.0
_cell_angle_gamma    119.99999998508291

_space_group_name_H-M_alt    "P 1"
_space_group_IT_number       1

loop_
  _space_group_symop_operation_xyz
  'x, y, z'

loop_
  _atom_site_type_symbol
  _atom_site_label
  _atom_site_symmetry_multiplicity
  _atom_site_fract_x
  _atom_site_fract_y
  _atom_site_fract_z
  _atom_site_occupancy
  C   C1        1.0  0.08757161499999999  0.8466907349999999  0.5379073893801221  1.0000
  O   O1        1.0  0.0809182549999999  0.6764109549999998  0.5467812639573876  1.0000
  Ti  Ti1       1.0  0.42181692499999995  0.756092895  0.4818378477637425  1.0000
  Ti  Ti2       1.0  0.751528975  0.44531622499999995  0.519818831006445  1.0000
  Ti  Ti3       1.0  0.755150265  0.4227595549999999  0.49135422292227865  1.0000
  Ti  Ti4       1.0  0.42181692499999995  0.756092895  0.45321873604261237  1.0000
  Fe  Fe1       1.0  0.739056105  0.9166064349999999  0.5057043900255316  1.0000
  Fe  Fe2       1.0  0.42728730499999995  0.25882807499999994  0.46752829037775795  1.0000
  Fe  Fe3       1.0  0.919081745  0.25882807499999994  0.46752829037775795  1.0000
  Fe  Fe4       1.0  0.25246180499999993  0.43449666499999995  0.505924267039524  1.0000
  Fe  Fe5       1.0  0.2633655749999999  0.919205025  0.5058128565027342  1.0000
  Fe  Fe6       1.0  0.919081745  0.750622515  0.46752829037775795  1.0000
  Fe  Fe7       1.0  0.08848359499999994  0.08942622499999997  0.4865960338175911  1.0000
  Fe  Fe8       1.0  0.10125815499999995  0.08079497499999996  0.5237932839914933  1.0000
