data_image0
_chemical_formula_structural       COTi4Cr8
_chemical_formula_sum              "C1 O1 Ti4 Cr8"
_cell_length_a       4.893060920879139
_cell_length_b       4.89306092
_cell_length_c       101.37027484000001
_cell_angle_alpha    90.0
_cell_angle_beta     90.0
_cell_angle_gamma    119.99999999405655

_space_group_name_H-M_alt    "P 1"
_space_group_IT_number       1

loop_
  _space_group_symop_operation_xyz
  'x, y, z'

loop_
  _atom_site_type_symbol
  _atom_site_label
  _atom_site_symmetry_multiplicity
  _atom_site_fract_x
  _atom_site_fract_y
  _atom_site_fract_z
  _atom_site_occupancy
  C   C1        1.0  0.11390990500000003  0.3829360900000001  0.53381688046076  1.0000
  O   O1        1.0  0.21248878500000007  0.40728564000000017  0.5448006865193753  1.0000
  Ti  Ti1       1.0  0.9147703650000001  0.8177013799999999  0.5033846707981158  1.0000
  Ti  Ti2       1.0  0.5835696950000001  0.1541690300000002  0.46458075178347363  1.0000
  Ti  Ti3       1.0  0.5809948950000001  0.1499542700000002  0.49328165314308114  1.0000
  Ti  Ti4       1.0  0.9169030250000001  0.8208357000000003  0.4551993134806247  1.0000
  Cr  Cr1       1.0  0.08012093500000005  0.14727151000000016  0.47923142573220595  1.0000
  Cr  Cr2       1.0  0.42454863500000006  0.8527284900000002  0.5183417649976302  1.0000
  Cr  Cr3       1.0  0.38663753500000003  0.2624631600000001  0.5173349945060308  1.0000
  Cr  Cr4       1.0  0.5904672150000001  0.6576177900000001  0.47923142573220595  1.0000
  Cr  Cr5       1.0  0.08012093500000005  0.6576177900000001  0.47923142573220595  1.0000
  Cr  Cr6       1.0  0.919879065  0.32844752000000027  0.5171784375462455  1.0000
  Cr  Cr7       1.0  0.26303215500000005  0.4907034200000002  0.4989493183603304  1.0000
  Cr  Cr8       1.0  0.25023636500000007  0.48750236000000013  0.4598900341793605  1.0000
