data_image0
_chemical_formula_structural       COAl6Ti6
_chemical_formula_sum              "C1 O1 Al6 Ti6"
_cell_length_a       4.9778699348191795
_cell_length_b       5.731185147711275
_cell_length_c       99.14404068
_cell_angle_alpha    92.3719141755485
_cell_angle_beta     90.45600607599776
_cell_angle_gamma    107.63848088744258

_space_group_name_H-M_alt    "P 1"
_space_group_IT_number       1

loop_
  _space_group_symop_operation_xyz
  'x, y, z'

loop_
  _atom_site_type_symbol
  _atom_site_label
  _atom_site_symmetry_multiplicity
  _atom_site_fract_x
  _atom_site_fract_y
  _atom_site_fract_z
  _atom_site_occupancy
  C   C1        1.0  0.05609464499999998  0.05056917000000002  0.5336467538214131  1.0000
  O   O1        1.0  0.182349985  0.040295940000000016  0.5435668821776818  1.0000
  Al  Al1       1.0  0.402238685  0.45970405999999997  0.48092949939303853  1.0000
  Al  Al2       1.0  0.48557201499999997  0.70970406  0.45643311782231843  1.0000
  Al  Al3       1.0  0.9439053550000002  0.08470406000000001  0.4686813086076785  1.0000
  Al  Al4       1.0  0.7686721650000001  0.5978557999999999  0.5169185269732106  1.0000
  Al  Al5       1.0  0.8580762049999999  0.83611002  0.4929947668931465  1.0000
  Al  Al6       1.0  0.32167040499999994  0.2093535  0.5061826250824123  1.0000
  Ti  Ti1       1.0  0.9439053550000001  0.58470406  0.4686813086076784  1.0000
  Ti  Ti2       1.0  0.402238685  0.95970406  0.4809294993930384  1.0000
  Ti  Ti3       1.0  0.485572015  0.20970406000000003  0.45643311782231843  1.0000
  Ti  Ti4       1.0  0.312882065  0.7092308599999999  0.5052923982315478  1.0000
  Ti  Ti5       1.0  0.8006601950000001  0.08138989  0.5171336473199684  1.0000
  Ti  Ti6       1.0  0.859890185  0.33895688  0.49349493985117515  1.0000
