data_image0
_chemical_formula_structural       COAl10Mo2
_chemical_formula_sum              "C1 O1 Al10 Mo2"
_cell_length_a       4.938638315476488
_cell_length_b       4.93863832
_cell_length_c       105.64791692
_cell_angle_alpha    90.0
_cell_angle_beta     90.0
_cell_angle_gamma    120.00000003029918

_space_group_name_H-M_alt    "P 1"
_space_group_IT_number       1

loop_
  _space_group_symop_operation_xyz
  'x, y, z'

loop_
  _atom_site_type_symbol
  _atom_site_label
  _atom_site_symmetry_multiplicity
  _atom_site_fract_x
  _atom_site_fract_y
  _atom_site_fract_z
  _atom_site_occupancy
  C   C1        1.0  0.009500434999999948  0.015803215000000006  0.5351271815469555  1.0000
  O   O1        1.0  0.021959584999999934  0.036829345  0.5462301559148671  1.0000
  Al  Al1       1.0  0.32255761499999996  0.307316285  0.453769844085133  1.0000
  Al  Al2       1.0  0.984117365  0.645756535  0.453769844085133  1.0000
  Al  Al3       1.0  0.9860289949999999  0.3183414549999999  0.49596797745138604  1.0000
  Al  Al4       1.0  0.32255761499999996  0.645756535  0.47485871050534934  1.0000
  Al  Al5       1.0  0.33026033499999996  0.983720055  0.4959505361153018  1.0000
  Al  Al6       1.0  0.6568508249999999  0.317126815  0.518632323910375  1.0000
  Al  Al7       1.0  0.6609978649999999  0.984196785  0.453769844085133  1.0000
  Al  Al8       1.0  0.3249136549999999  0.6505914150000001  0.5177052067292629  1.0000
  Al  Al9       1.0  0.9892242749999999  0.9790898650000001  0.47485871050534934  1.0000
  Al  Al10      1.0  0.6502181549999999  0.639298425  0.4959294539973189  1.0000
  Mo  Mo1       1.0  0.990499565  0.9824498450000001  0.5159273613025406  1.0000
  Mo  Mo2       1.0  0.655890945  0.312423195  0.47485871050534934  1.0000
