data_image0
_chemical_formula_structural       COGa12Ir6Ga12Ir6
_chemical_formula_sum              "C1 O1 Ga24 Ir12"
_cell_length_a       7.91434684
_cell_length_b       6.893231932531822
_cell_length_c       103.18774612
_cell_angle_alpha    90.0
_cell_angle_beta     90.0
_cell_angle_gamma    106.68042364383889

_space_group_name_H-M_alt    "P 1"
_space_group_IT_number       1

loop_
  _space_group_symop_operation_xyz
  'x, y, z'

loop_
  _atom_site_type_symbol
  _atom_site_label
  _atom_site_symmetry_multiplicity
  _atom_site_fract_x
  _atom_site_fract_y
  _atom_site_fract_z
  _atom_site_occupancy
  C   C1        1.0  0.44382303000000006  0.63614542  0.5562693029816543  1.0000
  O   O1        1.0  0.4534963600000001  0.7658092  0.5635913184365268  1.0000
  Ga  Ga1       1.0  0.22091576999999998  0.8799525599999999  0.4900128287477069  1.0000
  Ga  Ga2       1.0  0.27967665  0.11499602000000002  0.46731615358324957  1.0000
  Ga  Ga3       1.0  0.27967665  0.11499602000000002  0.43640868156347323  1.0000
  Ga  Ga4       1.0  0.21999937  0.90377595  0.5220167810807878  1.0000
  Ga  Ga5       1.0  0.41105222  0.64049832  0.4805558351989922  1.0000
  Ga  Ga6       1.0  0.08954019999999999  0.35445025999999996  0.4767731471319643  1.0000
  Ga  Ga7       1.0  0.12218538999999999  0.47908516  0.5061723753738269  1.0000
  Ga  Ga8       1.0  0.38342309  0.5299818  0.4518624191814858  1.0000
  Ga  Ga9       1.0  0.019906090000000008  0.08379688000000003  0.5043491482729435  1.0000
  Ga  Ga10      1.0  0.48009390999999996  0.91666509  0.4518624191814858  1.0000
  Ga  Ga11      1.0  0.39936225000000003  0.6493823599999999  0.53050768425745  1.0000
  Ga  Ga12      1.0  0.06525474  0.25517356  0.5328202764731863  1.0000
  Ir  Ir1       1.0  0.32044364000000003  0.27806399000000004  0.491831122122982  1.0000
  Ir  Ir2       1.0  0.18014878  0.7168845899999999  0.4654978602079744  1.0000
  Ir  Ir3       1.0  0.18014878  0.7168845899999999  0.43822697493874835  1.0000
  Ir  Ir4       1.0  0.32739306  0.30059356000000004  0.5191183748821819  1.0000
  Ir  Ir5       1.0  0.07463826000000003  0.29484248  0.4518624191814858  1.0000
  Ir  Ir6       1.0  0.42958245  0.70716388  0.5047408616427411  1.0000
  Ga  Ga13      1.0  0.72091577  0.8799525599999999  0.4900128287477069  1.0000
  Ga  Ga14      1.0  0.7796766500000001  0.11499602000000002  0.46731615358324957  1.0000
  Ga  Ga15      1.0  0.7796766500000001  0.11499602000000002  0.43640868156347323  1.0000
  Ga  Ga16      1.0  0.7210753400000002  0.8963438199999999  0.5220470781441703  1.0000
  Ga  Ga17      1.0  0.91105222  0.64049832  0.4805558351989922  1.0000
  Ga  Ga18      1.0  0.5895402000000001  0.35445025999999996  0.4767731471319643  1.0000
  Ga  Ga19      1.0  0.6233372500000002  0.48018393  0.5057494483097483  1.0000
  Ga  Ga20      1.0  0.8834230900000001  0.5299818  0.4518624191814858  1.0000
  Ga  Ga21      1.0  0.52051957  0.08333491000000001  0.5047670676376924  1.0000
  Ga  Ga22      1.0  0.98009391  0.91666509  0.4518624191814858  1.0000
  Ga  Ga23      1.0  0.90904347  0.65099999  0.5305948574640235  1.0000
  Ga  Ga24      1.0  0.57314659  0.29061039000000005  0.5331248102039128  1.0000
  Ir  Ir7       1.0  0.82044364  0.27806399000000004  0.491831122122982  1.0000
  Ir  Ir8       1.0  0.68014878  0.7168845899999999  0.4654978602079744  1.0000
  Ir  Ir9       1.0  0.68014878  0.7168845899999999  0.43822697493874835  1.0000
  Ir  Ir10      1.0  0.8253301700000001  0.29700166  0.5191234855014722  1.0000
  Ir  Ir11      1.0  0.5746382600000002  0.29484248  0.4518624191814858  1.0000
  Ir  Ir12      1.0  0.9307931000000002  0.7073857999999998  0.5047911058809749  1.0000
