data_image0
_chemical_formula_structural       COAs6In6
_chemical_formula_sum              "C1 O1 As6 In6"
_cell_length_a       7.683096772707192
_cell_length_b       6.27322225
_cell_length_c       103.78233567000001
_cell_angle_alpha    90.0
_cell_angle_beta     85.6522468726096
_cell_angle_gamma    114.09484252820667

_space_group_name_H-M_alt    "P 1"
_space_group_IT_number       1

loop_
  _space_group_symop_operation_xyz
  'x, y, z'

loop_
  _atom_site_type_symbol
  _atom_site_label
  _atom_site_symmetry_multiplicity
  _atom_site_fract_x
  _atom_site_fract_y
  _atom_site_fract_z
  _atom_site_occupancy
  C   C1        1.0  0.5491121299999999  0.91833286  0.5383293914863884  1.0000
  O   O1        1.0  0.51953247  0.99257924  0.5480045121477226  1.0000
  As  As1       1.0  0.35416665999999997  0.7157540999999998  0.47912143860665674  1.0000
  As  As2       1.0  0.50967751  0.3064376  0.50702939474631  1.0000
  As  As3       1.0  0.18749999999999994  0.13242075999999994  0.4519954878522774  1.0000
  As  As4       1.0  0.9375  0.007420759999999804  0.4926844156114034  1.0000
  As  As5       1.0  0.07161816999999995  0.63105026  0.5222165923693455  1.0000
  As  As6       1.0  0.7708333299999999  0.4240874299999999  0.4655584616019099  1.0000
  In  In1       1.0  0.22902877999999996  0.8984063800000001  0.5000045164709812  1.0000
  In  In2       1.0  0.33762  0.46026615000000004  0.527398031104076  1.0000
  In  In3       1.0  0.06249999999999996  0.3199207599999999  0.4723399517318404  1.0000
  In  In4       1.0  0.84418054  0.2748061099999999  0.5092340412915255  1.0000
  In  In5       1.0  0.47916665999999997  0.02825409999999995  0.45877697472709367  1.0000
  In  In6       1.0  0.6458333299999999  0.6115874299999998  0.4859029254814729  1.0000
