data_image0
_chemical_formula_structural       COIn28Pt12
_chemical_formula_sum              "C1 O1 In28 Pt12"
_cell_length_a       8.382001043880841
_cell_length_b       8.38200104
_cell_length_c       111.06325115
_cell_angle_alpha    90.0
_cell_angle_beta     90.0
_cell_angle_gamma    109.4712206492791

_space_group_name_H-M_alt    "P 1"
_space_group_IT_number       1

loop_
  _space_group_symop_operation_xyz
  'x, y, z'

loop_
  _atom_site_type_symbol
  _atom_site_label
  _atom_site_symmetry_multiplicity
  _atom_site_fract_x
  _atom_site_fract_y
  _atom_site_fract_z
  _atom_site_occupancy
  C   C1        1.0  0.6586108549999999  0.349110485  0.5571800236590876  1.0000
  O   O1        1.0  0.634863985  0.326241855  0.5675136953879946  1.0000
  In  In1       1.0  0.18987595499999996  0.6294045549999999  0.46329701313641386  1.0000
  In  In2       1.0  0.704480115  0.12588468499999994  0.5262897310713772  1.0000
  In  In3       1.0  0.939875955  0.879404555  0.46329701313641386  1.0000
  In  In4       1.0  0.43609341499999993  0.39426877499999996  0.5262741248306712  1.0000
  In  In5       1.0  0.6898759550000001  0.12940455500000003  0.4324863046120053  1.0000
  In  In6       1.0  0.18987595499999996  0.6294045549999999  0.49410772535810754  1.0000
  In  In7       1.0  0.5648759550000001  0.7544045549999999  0.4478916607228522  1.0000
  In  In8       1.0  0.06487595499999996  0.254404555  0.5095130777716692  1.0000
  In  In9       1.0  0.06487595499999996  0.254404555  0.4478916607228522  1.0000
  In  In10      1.0  0.5648759550000001  0.7544045549999999  0.5095130777716692  1.0000
  In  In11      1.0  0.43987595499999993  0.379404555  0.4324863046120053  1.0000
  In  In12      1.0  0.939875955  0.879404555  0.49410772535810754  1.0000
  In  In13      1.0  0.060124044999999966  0.43404286499999994  0.5412986642662087  1.0000
  In  In14      1.0  0.5648759550000001  0.9276799649999999  0.47870236924726073  1.0000
  In  In15      1.0  0.22823824499999995  0.917766845  0.4372141821431958  1.0000
  In  In16      1.0  0.728238245  0.417766845  0.49883560288929796  1.0000
  In  In17      1.0  0.7433610549999999  0.7493793550000002  0.5412450684203725  1.0000
  In  In18      1.0  0.23815136499999995  0.254404555  0.47870236924726073  1.0000
  In  In19      1.0  0.4015136549999999  0.09104225499999997  0.45856913560522344  1.0000
  In  In20      1.0  0.894674015  0.584216635  0.5205974795572262  1.0000
  In  In21      1.0  0.9015136549999999  0.591042255  0.4372141821431958  1.0000
  In  In22      1.0  0.4015136549999999  0.09104225499999997  0.49883560288929796  1.0000
  In  In23      1.0  0.38198645499999995  0.767853745  0.541503316394984  1.0000
  In  In24      1.0  0.891600545  0.2544045549999999  0.47870236924726073  1.0000
  In  In25      1.0  0.728238245  0.417766845  0.45856913560522344  1.0000
  In  In26      1.0  0.22052033499999993  0.9097335350000001  0.51977313285554  1.0000
  In  In27      1.0  0.07803715499999996  0.07232003499999998  0.5414587012548276  1.0000
  In  In28      1.0  0.5648759550000001  0.581129145  0.47870236924726073  1.0000
  Pt  Pt1       1.0  0.892600235  0.9266802649999999  0.4383126973294389  1.0000
  Pt  Pt2       1.0  0.3926002349999999  0.42668026499999995  0.49993411807554117  1.0000
  Pt  Pt3       1.0  0.22032452499999997  0.9098531249999999  0.47870236924726073  1.0000
  Pt  Pt4       1.0  0.718387365  0.408203875  0.5408588943788506  1.0000
  Pt  Pt5       1.0  0.23715166499999996  0.5821288349999999  0.4383126973294389  1.0000
  Pt  Pt6       1.0  0.7371516650000001  0.08212883500000001  0.49993411807554117  1.0000
  Pt  Pt7       1.0  0.3926002349999999  0.42668026499999995  0.45747062041898034  1.0000
  Pt  Pt8       1.0  0.8918811249999999  0.9235633550000001  0.5190187240001451  1.0000
  Pt  Pt9       1.0  0.7371516650000001  0.08212883500000001  0.45747062041898034  1.0000
  Pt  Pt10      1.0  0.23417185499999998  0.581206505  0.5190526946562947  1.0000
  Pt  Pt11      1.0  0.909427385  0.598955985  0.47870236924726073  1.0000
  Pt  Pt12      1.0  0.409208535  0.09860388499999995  0.5378472411646774  1.0000
