data_image0
_chemical_formula_structural       COAl8Ag16Al8Ag16
_chemical_formula_sum              "C1 O1 Al16 Ag32"
_cell_length_a       4.667067
_cell_length_b       18.476888085894213
_cell_length_c       105.5012449
_cell_angle_alpha    105.93125424171731
_cell_angle_beta     90.0
_cell_angle_gamma    90.0

_space_group_name_H-M_alt    "P 1"
_space_group_IT_number       1

loop_
  _space_group_symop_operation_xyz
  'x, y, z'

loop_
  _atom_site_type_symbol
  _atom_site_label
  _atom_site_symmetry_multiplicity
  _atom_site_fract_x
  _atom_site_fract_y
  _atom_site_fract_z
  _atom_site_occupancy
  C   C1        1.0  0.75010071  0.54594954  0.5451606327097697  1.0000
  O   O1        1.0  0.7503059499999999  0.5547876600000001  0.5565343166753758  1.0000
  Al  Al1       1.0  0.24998834999999997  0.5400106800000001  0.4469055417477124  1.0000
  Al  Al2       1.0  0.24998834999999997  0.040010680000000014  0.47094130700176584  1.0000
  Al  Al3       1.0  0.7499883500000001  0.29001068  0.4904054003900608  1.0000
  Al  Al4       1.0  0.7499883500000001  0.79001068  0.46636963513600743  1.0000
  Al  Al5       1.0  0.24998834999999997  0.29001068  0.4589234226922355  1.0000
  Al  Al6       1.0  0.24998834999999997  0.79001068  0.48295918794628884  1.0000
  Al  Al7       1.0  0.7499883500000001  0.5400106800000001  0.4783875194455378  1.0000
  Al  Al8       1.0  0.7499883500000001  0.040010680000000014  0.45435175419148444  1.0000
  Ag  Ag1       1.0  0.24998834999999997  0.12052064000000003  0.4512061555532654  1.0000
  Ag  Ag2       1.0  0.24998834999999997  0.62052064  0.4752419208073187  1.0000
  Ag  Ag3       1.0  0.24998834999999997  0.20950072000000003  0.4795193295232007  1.0000
  Ag  Ag4       1.0  0.24998834999999997  0.70950072  0.4554835642691473  1.0000
  Ag  Ag5       1.0  0.7499883500000001  0.12052064000000003  0.4818273778686259  1.0000
  Ag  Ag6       1.0  0.7499883500000001  0.62052064  0.45779160924956536  1.0000
  Ag  Ag7       1.0  0.7499883500000001  0.20950072000000003  0.4620690179654473  1.0000
  Ag  Ag8       1.0  0.7499883500000001  0.70950072  0.48610478658450784  1.0000
  Ag  Ag9       1.0  0.24998834999999997  0.37052064  0.487259805116849  1.0000
  Ag  Ag10      1.0  0.24998834999999997  0.8705206400000001  0.46322403986279564  1.0000
  Ag  Ag11      1.0  0.24998834999999997  0.4595007200000001  0.4675014485786776  1.0000
  Ag  Ag12      1.0  0.24998834999999997  0.9595007200000002  0.4434656833246242  1.0000
  Ag  Ag13      1.0  0.7499883500000001  0.37052064  0.4698094935590957  1.0000
  Ag  Ag14      1.0  0.7499883500000001  0.8705206400000001  0.44577372830504236  1.0000
  Ag  Ag15      1.0  0.7499883500000001  0.4595007200000001  0.4500511370209242  1.0000
  Ag  Ag16      1.0  0.7499883500000001  0.9595007200000002  0.4740869022749776  1.0000
  Al  Al9       1.0  0.24998834999999997  0.5400106800000001  0.4949770722558191  1.0000
  Al  Al10      1.0  0.24968894999999997  0.03855407000000002  0.5194883836927889  1.0000
  Al  Al11      1.0  0.7500279300000001  0.28382789  0.5350055221675453  1.0000
  Al  Al12      1.0  0.7496547799999999  0.7998979100000001  0.5159688217090935  1.0000
  Al  Al13      1.0  0.24998834999999997  0.29001068  0.5069949565653494  1.0000
  Al  Al14      1.0  0.24969110999999997  0.7769862900000001  0.5297671245996468  1.0000
  Al  Al15      1.0  0.75007763  0.53982375  0.5257191555348851  1.0000
  Al  Al16      1.0  0.7499883500000001  0.040010680000000014  0.5024232846995911  1.0000
  Ag  Ag17      1.0  0.24998834999999997  0.12052064000000003  0.4992776894263792  1.0000
  Ag  Ag18      1.0  0.24970075999999997  0.6210102599999999  0.524422914380254  1.0000
  Ag  Ag19      1.0  0.24994546  0.20467003000000003  0.528493116047605  1.0000
  Ag  Ag20      1.0  0.24998834999999997  0.70950072  0.5035550981422612  1.0000
  Ag  Ag21      1.0  0.74938876  0.12128191  0.5287402219865404  1.0000
  Ag  Ag22      1.0  0.7499883500000001  0.62052064  0.5058631431226792  1.0000
  Ag  Ag23      1.0  0.74992682  0.21014218  0.5087278646096749  1.0000
  Ag  Ag24      1.0  0.7496126999999999  0.71502717  0.5334219733329262  1.0000
  Ag  Ag25      1.0  0.2503084  0.36334921000000003  0.5343919534841888  1.0000
  Ag  Ag26      1.0  0.24992779999999998  0.8737908700000001  0.5134991991778154  1.0000
  Ag  Ag27      1.0  0.24983758999999994  0.46242852  0.5163648897868856  1.0000
  Ag  Ag28      1.0  0.24998834999999997  0.9595007200000002  0.49153721383273086  1.0000
  Ag  Ag29      1.0  0.75031105  0.37606487  0.5183521519956615  1.0000
  Ag  Ag30      1.0  0.7499883500000001  0.8705206400000001  0.49384525881314895  1.0000
  Ag  Ag31      1.0  0.7499883500000001  0.4595007200000001  0.49812266752903095  1.0000
  Ag  Ag32      1.0  0.7498362299999999  0.9614459300000001  0.5216450605542005  1.0000
