data_image0
_chemical_formula_structural       COAs24Pt12
_chemical_formula_sum              "C1 O1 As24 Pt12"
_cell_length_a       6.09497558
_cell_length_b       13.628779715600682
_cell_length_c       104.47838851
_cell_angle_alpha    71.56505119037229
_cell_angle_beta     90.0
_cell_angle_gamma    90.0

_space_group_name_H-M_alt    "P 1"
_space_group_IT_number       1

loop_
  _space_group_symop_operation_xyz
  'x, y, z'

loop_
  _atom_site_type_symbol
  _atom_site_label
  _atom_site_symmetry_multiplicity
  _atom_site_fract_x
  _atom_site_fract_y
  _atom_site_fract_z
  _atom_site_occupancy
  C   C1        1.0  0.45424324000000005  0.8629017049999999  0.5362824272258383  1.0000
  O   O1        1.0  0.4188122200000001  0.8514426049999998  0.5476265563162536  1.0000
  As  As1       1.0  0.6362759  0.705559015  0.47254098522529514  1.0000
  As  As2       1.0  0.6334496400000001  0.36189425500000005  0.528434245491582  1.0000
  As  As3       1.0  0.6362759  0.038892344999999995  0.5000414024247901  1.0000
  As  As4       1.0  0.13627590000000003  0.538892345  0.48078940029933726  1.0000
  As  As5       1.0  0.13627590000000003  0.20555901499999998  0.4532889830998422  1.0000
  As  As6       1.0  0.14428954000000005  0.8685168549999999  0.5089690535489538  1.0000
  As  As7       1.0  0.4029218200000001  0.9611076550000001  0.4523734436837466  1.0000
  As  As8       1.0  0.39084305  0.625061545  0.507682760137935  1.0000
  As  As9       1.0  0.4029218200000001  0.294440985  0.4798738608832415  1.0000
  As  As10      1.0  0.7911301300000001  0.678896545  0.5270472642611174  1.0000
  As  As11      1.0  0.9074329300000002  0.274797555  0.5003562172755546  1.0000
  As  As12      1.0  0.9029218200000001  0.9500103750000002  0.47345652464139076  1.0000
  As  As13      1.0  0.4029218200000001  0.705559015  0.45328898309984234  1.0000
  As  As14      1.0  0.38978369000000007  0.369456495  0.5087156955256136  1.0000
  As  As15      1.0  0.4029218200000001  0.038892344999999995  0.48078940029933726  1.0000
  As  As16      1.0  0.9275284400000002  0.8691389049999999  0.5290026196687244  1.0000
  As  As17      1.0  0.9029218200000001  0.538892345  0.5000414024247901  1.0000
  As  As18      1.0  0.9029218200000001  0.20555901499999998  0.47254098522529514  1.0000
  As  As19      1.0  0.6362759  0.450010375  0.4734565246413908  1.0000
  As  As20      1.0  0.6892054200000002  0.170977145  0.5284418323060721  1.0000
  As  As21      1.0  0.62889497  0.781529045  0.5007081015857217  1.0000
  As  As22      1.0  0.13627590000000003  0.794440985  0.47987386088324163  1.0000
  As  As23      1.0  0.13627590000000003  0.461107655  0.4523734436837466  1.0000
  As  As24      1.0  0.14922519000000006  0.12167634499999999  0.5080461517217545  1.0000
  Pt  Pt1       1.0  0.009671470000000033  0.7045018649999999  0.5047849765084622  1.0000
  Pt  Pt2       1.0  0.019598860000000034  0.3722256749999999  0.4766651927623162  1.0000
  Pt  Pt3       1.0  0.9655130800000002  0.046493274999999994  0.5293996222597563  1.0000
  Pt  Pt4       1.0  0.5195988600000001  0.8722256749999999  0.47666519276231617  1.0000
  Pt  Pt5       1.0  0.5508905400000002  0.535749435  0.5294389423531226  1.0000
  Pt  Pt6       1.0  0.5248510500000001  0.204436935  0.5046232377677176  1.0000
  Pt  Pt7       1.0  0.019598860000000034  0.705559015  0.46291498416256877  1.0000
  Pt  Pt8       1.0  0.9903285300000001  0.36804285499999995  0.516222972215387  1.0000
  Pt  Pt9       1.0  0.019598860000000034  0.038892344999999995  0.49041540136206363  1.0000
  Pt  Pt10      1.0  0.5195988600000001  0.538892345  0.49041540136206374  1.0000
  Pt  Pt11      1.0  0.5195988600000001  0.20555901499999998  0.46291498416256865  1.0000
  Pt  Pt12      1.0  0.5435747900000001  0.861250515  0.5186621677244615  1.0000
