data_image0
_chemical_formula_structural       COAl48Fe8
_chemical_formula_sum              "C1 O1 Al48 Fe8"
_cell_length_a       4.947734490604028
_cell_length_b       18.407742289896696
_cell_length_c       108.60557465
_cell_angle_alpha    78.10872210995402
_cell_angle_beta     89.85274548834842
_cell_angle_gamma    87.84356992784333

_space_group_name_H-M_alt    "P 1"
_space_group_IT_number       1

loop_
  _space_group_symop_operation_xyz
  'x, y, z'

loop_
  _atom_site_type_symbol
  _atom_site_label
  _atom_site_symmetry_multiplicity
  _atom_site_fract_x
  _atom_site_fract_y
  _atom_site_fract_z
  _atom_site_occupancy
  C   C1        1.0  0.866471615  0.5186124  0.5419135987756719  1.0000
  O   O1        1.0  0.863218745  0.5106082299999999  0.5530008244089835  1.0000
  Al  Al1       1.0  0.214320635  0.7870006399999998  0.4792165648696916  1.0000
  Al  Al2       1.0  0.15182063499999998  0.22450063999999997  0.5014331814973445  1.0000
  Al  Al3       1.0  0.27682063500000004  0.3495006399999999  0.4569999482420385  1.0000
  Al  Al4       1.0  0.092109415  0.6586983099999999  0.5252149676530623  1.0000
  Al  Al5       1.0  0.28966444500000005  0.89479793  0.5122067867063641  1.0000
  Al  Al6       1.0  0.24231985499999997  0.3339737099999999  0.5335043996572443  1.0000
  Al  Al7       1.0  0.36161755500000003  0.4592233499999999  0.48951746801538926  1.0000
  Al  Al8       1.0  0.424117555  0.021723349999999947  0.4673008513877362  1.0000
  Al  Al9       1.0  0.183070635  0.005750639999999943  0.490324873183518  1.0000
  Al  Al10      1.0  0.11697045500000003  0.44099564999999996  0.5122721248872013  1.0000
  Al  Al11      1.0  0.245570635  0.5682506399999999  0.4681082565558651  1.0000
  Al  Al12      1.0  0.0042322650000000085  0.8894854400000001  0.5340553788589274  1.0000
  Al  Al13      1.0  0.730877755  0.6329839299999999  0.46244405016682505  1.0000
  Al  Al14      1.0  0.6683777550000001  0.07048392999999996  0.48466066679447806  1.0000
  Al  Al15      1.0  0.500747915  0.9583686699999998  0.5300101453114364  1.0000
  Al  Al16      1.0  0.6050988750000001  0.51392138  0.5065991171633181  1.0000
  Al  Al17      1.0  0.20419401499999995  0.72158494  0.45803638006765846  1.0000
  Al  Al18      1.0  0.14169401500000003  0.15908493999999995  0.4802529966953115  1.0000
  Al  Al19      1.0  0.0066022750000000125  0.041465449999999945  0.5246975017732297  1.0000
  Al  Al20      1.0  0.079194015  0.59658494  0.5024696133229645  1.0000
  Al  Al21      1.0  0.909424665  0.08645663999999996  0.46163664499869617  1.0000
  Al  Al22      1.0  0.846924665  0.5239566399999999  0.4838532616263493  1.0000
  Al  Al23      1.0  0.718699695  0.3931774799999999  0.528198001654304  1.0000
  Al  Al24      1.0  0.784424665  0.96145664  0.5060698782540022  1.0000
  Al  Al25      1.0  0.31816787500000004  0.7633710499999999  0.5049623461458564  1.0000
  Al  Al26      1.0  0.234319285  0.18671462999999994  0.5272662260889642  1.0000
  Al  Al27      1.0  0.3806678750000001  0.32587104999999994  0.48274572951820344  1.0000
  Al  Al28      1.0  0.44316787500000004  0.8883710499999999  0.4605291128905505  1.0000
  Al  Al29      1.0  0.9508012849999998  0.9331223299999999  0.4717085250415614  1.0000
  Al  Al30      1.0  0.8883012849999999  0.37062232999999994  0.4939251416692145  1.0000
  Al  Al31      1.0  0.013301285000000019  0.4956223299999999  0.4494919084139084  1.0000
  Al  Al32      1.0  0.8270869250000001  0.80238782  0.5168588573617282  1.0000
  Al  Al33      1.0  0.353066525  0.7703177499999998  0.5326688913577461  1.0000
  Al  Al34      1.0  0.6041562250000001  0.4501617699999999  0.4656515857450831  1.0000
  Al  Al35      1.0  0.4798575250000001  0.3223332199999999  0.5103551259089038  1.0000
  Al  Al36      1.0  0.5416562250000001  0.8876617699999999  0.48786820237273604  1.0000
  Al  Al37      1.0  0.48833907500000007  0.6420454999999999  0.4863099359917898  1.0000
  Al  Al38      1.0  0.4358698250000001  0.08064434999999993  0.5089138362351546  1.0000
  Al  Al39      1.0  0.5508390750000001  0.20454549999999994  0.4640933193641368  1.0000
  Al  Al40      1.0  0.36481403500000004  0.5127539699999999  0.5287061010085664  1.0000
  Al  Al41      1.0  0.7118274250000001  0.7663362199999999  0.4692157922186694  1.0000
  Al  Al42      1.0  0.6493274250000001  0.20383621999999993  0.49143240884632244  1.0000
  Al  Al43      1.0  0.7743274250000001  0.32883621999999996  0.44699917559101643  1.0000
  Al  Al44      1.0  0.601325885  0.64593737  0.5162758151389281  1.0000
  Al  Al45      1.0  0.9406746650000001  0.8677066399999999  0.45052833668486975  1.0000
  Al  Al46      1.0  0.8781746650000001  0.3052066399999999  0.47274495331252275  1.0000
  Al  Al47      1.0  0.7410807050000001  0.18144265999999992  0.5182376134803229  1.0000
  Al  Al48      1.0  0.8156746650000001  0.74270664  0.49496156994017576  1.0000
  Fe  Fe1       1.0  0.034227565000000036  0.86924936  0.4944131856393147  1.0000
  Fe  Fe2       1.0  0.9801774550000001  0.30708870999999993  0.5159539656798372  1.0000
  Fe  Fe3       1.0  0.09672756500000002  0.4317493599999999  0.47219656901166174  1.0000
  Fe  Fe4       1.0  0.15922756500000002  0.99424936  0.4499799523840087  1.0000
  Fe  Fe5       1.0  0.995767735  0.6604579099999999  0.47976495272521125  1.0000
  Fe  Fe6       1.0  0.933267735  0.09795790999999995  0.5019815693528642  1.0000
  Fe  Fe7       1.0  0.058267735000000015  0.2229579099999999  0.45754833609755813  1.0000
  Fe  Fe8       1.0  0.873567615  0.53200962  0.5252377956709796  1.0000
