data_image0
_chemical_formula_structural       COSb24Pt12
_chemical_formula_sum              "C1 O1 Sb24 Pt12"
_cell_length_a       14.730226196367505
_cell_length_b       6.58755742
_cell_length_c       107.26485219
_cell_angle_alpha    90.0
_cell_angle_beta     108.43494881062179
_cell_angle_gamma    90.0

_space_group_name_H-M_alt    "P 1"
_space_group_IT_number       1

loop_
  _space_group_symop_operation_xyz
  'x, y, z'

loop_
  _atom_site_type_symbol
  _atom_site_label
  _atom_site_symmetry_multiplicity
  _atom_site_fract_x
  _atom_site_fract_y
  _atom_site_fract_z
  _atom_site_occupancy
  C   C1        1.0  0.383282575  0.6513041700000001  0.5405790776175379  1.0000
  O   O1        1.0  0.439641965  0.69079625  0.5506595666700846  1.0000
  Sb  Sb1       1.0  0.8859937950000001  0.15367925999999998  0.5073097158880815  1.0000
  Sb  Sb2       1.0  0.5415721050000001  0.18064821000000003  0.44934043332991547  1.0000
  Sb  Sb3       1.0  0.208238775  0.18064821000000003  0.4782912421134846  1.0000
  Sb  Sb4       1.0  0.5522731150000001  0.71425087  0.5151934638035556  1.0000
  Sb  Sb5       1.0  0.208617025  0.68064821  0.4565945636629091  1.0000
  Sb  Sb6       1.0  0.875283695  0.68064821  0.4855453724464782  1.0000
  Sb  Sb7       1.0  0.9584278949999999  0.9300808300000001  0.45656170912575494  1.0000
  Sb  Sb8       1.0  0.625094565  0.9300808300000001  0.48551252138342127  1.0000
  Sb  Sb9       1.0  0.292080705  0.98333959  0.5157222978264672  1.0000
  Sb  Sb10      1.0  0.791761235  0.43008083  0.44937328439297236  1.0000
  Sb  Sb11      1.0  0.458427895  0.43008083  0.47832409665063863  1.0000
  Sb  Sb12      1.0  0.129221255  0.42522752  0.5079301826985555  1.0000
  Sb  Sb13      1.0  0.7950519450000001  0.63464343  0.5156287264926711  1.0000
  Sb  Sb14      1.0  0.458427895  0.68064821  0.45656170912575494  1.0000
  Sb  Sb15      1.0  0.12509456500000002  0.68064821  0.4855125213834212  1.0000
  Sb  Sb16      1.0  0.620593315  0.18891708  0.5074560344395588  1.0000
  Sb  Sb17      1.0  0.291761235  0.18064821000000003  0.44937328439297236  1.0000
  Sb  Sb18      1.0  0.9584278949999999  0.18064821000000003  0.47832409665063863  1.0000
  Sb  Sb19      1.0  0.041572105000000005  0.43008083  0.44934043332991547  1.0000
  Sb  Sb20      1.0  0.708238775  0.43008083  0.4782912421134845  1.0000
  Sb  Sb21      1.0  0.383448915  0.45395217  0.5074716435582469  1.0000
  Sb  Sb22      1.0  0.7086170249999999  0.9300808300000001  0.45659456366290907  1.0000
  Sb  Sb23      1.0  0.375283695  0.9300808300000001  0.4855453724464782  1.0000
  Sb  Sb24      1.0  0.05375947500000001  0.88869335  0.5150904047103255  1.0000
  Pt  Pt1       1.0  0.625094565  0.55536452  0.49639371340881455  1.0000
  Pt  Pt2       1.0  0.289818115  0.58477819  0.5241061142400949  1.0000
  Pt  Pt3       1.0  0.9584278949999999  0.55536452  0.4674429046252454  1.0000
  Pt  Pt4       1.0  0.782436865  0.016660410000000007  0.5209931876653834  1.0000
  Pt  Pt5       1.0  0.458427895  0.05536452000000001  0.4674429046252454  1.0000
  Pt  Pt6       1.0  0.12509456500000002  0.05536452000000001  0.4963937134088145  1.0000
  Pt  Pt7       1.0  0.953188015  0.53921509  0.5093704565423404  1.0000
  Pt  Pt8       1.0  0.625094565  0.55536452  0.45296749849641227  1.0000
  Pt  Pt9       1.0  0.291761235  0.55536452  0.4819183072799814  1.0000
  Pt  Pt10      1.0  0.791761235  0.05536452000000001  0.4819183072799814  1.0000
  Pt  Pt11      1.0  0.450189165  0.06742896000000001  0.509553954881977  1.0000
  Pt  Pt12      1.0  0.12509456500000002  0.05536452000000001  0.45296749849641227  1.0000
