data_image0
_chemical_formula_structural       COAl16Se24
_chemical_formula_sum              "C1 O1 Al16 Se24"
_cell_length_a       6.949570793772086
_cell_length_b       15.701291738450564
_cell_length_c       100.44183905
_cell_angle_alpha    82.35164481442074
_cell_angle_beta     88.76095349684863
_cell_angle_gamma    77.34046262499487

_space_group_name_H-M_alt    "P 1"
_space_group_IT_number       1

loop_
  _space_group_symop_operation_xyz
  'x, y, z'

loop_
  _atom_site_type_symbol
  _atom_site_label
  _atom_site_symmetry_multiplicity
  _atom_site_fract_x
  _atom_site_fract_y
  _atom_site_fract_z
  _atom_site_occupancy
  C   C1        1.0  0.6358551700000001  0.280351975  0.5581188441156371  1.0000
  O   O1        1.0  0.5100553400000001  0.29125175500000006  0.565704178678806  1.0000
  Al  Al1       1.0  0.1975128000000001  0.7708582149999998  0.4622951054384716  1.0000
  Al  Al2       1.0  0.53084614  0.10419155500000002  0.4875517100900222  1.0000
  Al  Al3       1.0  0.8641794700000001  0.437524885  0.43703849775612813  1.0000
  Al  Al4       1.0  0.8573607499999999  0.43338704499999997  0.5148770944242387  1.0000
  Al  Al5       1.0  0.4763873600000001  0.879422625  0.507929611396002  1.0000
  Al  Al6       1.0  0.83546139  0.270037495  0.5236516423265795  1.0000
  Al  Al7       1.0  0.15951175000000012  0.539858745  0.482677225607861  1.0000
  Al  Al8       1.0  0.82617842  0.20652541500000002  0.4574206209563103  1.0000
  Al  Al9       1.0  0.10206071000000011  0.9841654049999998  0.4774827924657044  1.0000
  Al  Al10      1.0  0.4271252100000001  0.33432143500000006  0.5021290954877787  1.0000
  Al  Al11      1.0  0.7687273800000001  0.650832075  0.4522261878141537  1.0000
  Al  Al12      1.0  0.7254399600000002  0.694192165  0.5164139214989837  1.0000
  Al  Al13      1.0  0.021272170000000114  0.7745596849999999  0.4994859139149244  1.0000
  Al  Al14      1.0  0.31722287000000005  0.158840835  0.5125486424863859  1.0000
  Al  Al15      1.0  0.6879388300000001  0.44122634499999996  0.4742293092633737  1.0000
  Al  Al16      1.0  0.3546055000000001  0.10789301500000004  0.44897270158103036  1.0000
  Se  Se1       1.0  0.6453945000000001  0.575503195  0.436680882404713  1.0000
  Se  Se2       1.0  0.97872783  0.908836525  0.46193749008705637  1.0000
  Se  Se3       1.0  0.62350376  0.556093955  0.5197897456786119  1.0000
  Se  Se4       1.0  0.31206117000000005  0.242169865  0.48719409473860703  1.0000
  Se  Se5       1.0  0.6927268700000003  0.8018370049999999  0.49171506453184827  1.0000
  Se  Se6       1.0  0.03632210000000007  0.12811798500000002  0.5240092546472022  1.0000
  Se  Se7       1.0  0.35939354  0.468503675  0.46645845684950493  1.0000
  Se  Se8       1.0  0.02606021000000006  0.13517034500000005  0.44120185219795427  1.0000
  Se  Se9       1.0  0.86491559  0.12484065500000002  0.48044010054581704  1.0000
  Se  Se10      1.0  0.18218001000000006  0.464745305  0.5059286790382578  1.0000
  Se  Se11      1.0  0.5315822600000001  0.791507325  0.4551834928634736  1.0000
  Se  Se12      1.0  0.5061146300000001  0.793909275  0.5289609091725667  1.0000
  Se  Se13      1.0  0.24959438000000006  0.682501265  0.484809033655088  1.0000
  Se  Se14      1.0  0.56766081  0.02549783500000003  0.5100141451390153  1.0000
  Se  Se15      1.0  0.9162610400000001  0.349167925  0.4595524290035373  1.0000
  Se  Se16      1.0  0.5829277100000002  0.015834595000000035  0.434295821321194  1.0000
  Se  Se17      1.0  0.42669876000000007  0.016645925000000034  0.4712968779295737  1.0000
  Se  Se18      1.0  0.76003209  0.349979255  0.49655348258112436  1.0000
  Se  Se19      1.0  0.09336542000000007  0.683312585  0.4460402732780231  1.0000
  Se  Se20      1.0  0.06098407000000012  0.6893362749999999  0.5208920813456283  1.0000
  Se  Se21      1.0  0.12898848000000013  0.9135168749999999  0.5007598712482055  1.0000
  Se  Se22      1.0  0.47339418000000016  0.254840635  0.5249059358769567  1.0000
  Se  Se23      1.0  0.8066852800000002  0.576652655  0.4758435791526632  1.0000
  Se  Se24      1.0  0.4733519500000001  0.243319325  0.45058697147031984  1.0000
