data_image0
_chemical_formula_structural       COIn8As6Se2
_chemical_formula_sum              "C1 O1 In8 As6 Se2"
_cell_length_a       6.38857257
_cell_length_b       6.38857257
_cell_length_c       108.17627390999999
_cell_angle_alpha    90.0
_cell_angle_beta     90.0
_cell_angle_gamma    90.0

_space_group_name_H-M_alt    "P 1"
_space_group_IT_number       1

loop_
  _space_group_symop_operation_xyz
  'x, y, z'

loop_
  _atom_site_type_symbol
  _atom_site_label
  _atom_site_symmetry_multiplicity
  _atom_site_fract_x
  _atom_site_fract_y
  _atom_site_fract_z
  _atom_site_occupancy
  C   C1        1.0  0.8522719649999999  0.8528000549999999  0.5569213398573212  1.0000
  O   O1        1.0  0.791646225  0.7921043449999999  0.5662982575207121  1.0000
  In  In1       1.0  0.365170905  0.365170905  0.47746433005672867  1.0000
  In  In2       1.0  0.8782763650000001  0.878276365  0.47746433005672867  1.0000
  In  In3       1.0  0.378276365  0.8651709049999999  0.44875715476305944  1.0000
  In  In4       1.0  0.865170905  0.378276365  0.44875715476305944  1.0000
  In  In5       1.0  0.773111155  0.772388075  0.5315008110076826  1.0000
  In  In6       1.0  0.42918500499999995  0.428794195  0.5391868652105888  1.0000
  In  In7       1.0  0.8782763650000001  0.365170905  0.5075751581533519  1.0000
  In  In8       1.0  0.365170905  0.878276365  0.5075751581533519  1.0000
  As  As1       1.0  0.621723635  0.621723635  0.43370174247928783  1.0000
  As  As2       1.0  0.621723635  0.121723635  0.463110742409894  1.0000
  As  As3       1.0  0.12172363499999998  0.621723635  0.463110742409894  1.0000
  As  As4       1.0  0.12172363499999998  0.121723635  0.4925197458695803  1.0000
  As  As5       1.0  0.135050485  0.610411905  0.5216906952289061  1.0000
  As  As6       1.0  0.610985455  0.13480088499999998  0.5216811420089865  1.0000
  Se  Se1       1.0  0.12172363499999998  0.121723635  0.43370174247928783  1.0000
  Se  Se2       1.0  0.621723635  0.621723635  0.4925197458695803  1.0000
