data_image0
_chemical_formula_structural       COIn24As18Se6
_chemical_formula_sum              "C1 O1 In24 As18 Se6"
_cell_length_a       14.285282535118897
_cell_length_b       12.72542464
_cell_length_c       106.13922387
_cell_angle_alpha    90.0
_cell_angle_beta     108.43494881023867
_cell_angle_gamma    90.0

_space_group_name_H-M_alt    "P 1"
_space_group_IT_number       1

loop_
  _space_group_symop_operation_xyz
  'x, y, z'

loop_
  _atom_site_type_symbol
  _atom_site_label
  _atom_site_symmetry_multiplicity
  _atom_site_fract_x
  _atom_site_fract_y
  _atom_site_fract_z
  _atom_site_occupancy
  C   C1        1.0  0.057303695  0.8240408250000001  0.5474669466027837  1.0000
  O   O1        1.0  0.08041688500000001  0.881239635  0.5562780663785392  1.0000
  In  In1       1.0  0.8355175749999999  0.372558635  0.4928187765868928  1.0000
  In  In2       1.0  0.4846393949999999  0.400338465  0.5267422916842793  1.0000
  In  In3       1.0  0.168850905  0.372558635  0.46444470563654167  1.0000
  In  In4       1.0  0.8355175749999999  0.372558635  0.4513732359616197  1.0000
  In  In5       1.0  0.5021842449999999  0.372558635  0.47974730691197087  1.0000
  In  In6       1.0  0.171290115  0.32638834499999997  0.5026359354072453  1.0000
  In  In7       1.0  0.032216825000000004  0.043816705000000004  0.5159233431203653  1.0000
  In  In8       1.0  0.664482425  0.12852473499999997  0.4648165603358114  1.0000
  In  In9       1.0  0.33114908499999995  0.12852473499999997  0.4931906312861626  1.0000
  In  In10      1.0  0.6837114849999999  0.091385815  0.5030297856871955  1.0000
  In  In11      1.0  0.33988606499999996  0.12852473499999997  0.4510013812623499  1.0000
  In  In12      1.0  0.006552725000000004  0.12852473499999997  0.4793754522127011  1.0000
  In  In13      1.0  0.8355175749999999  0.872558635  0.4502576684589218  1.0000
  In  In14      1.0  0.5021842449999999  0.872558635  0.4786317428141616  1.0000
  In  In15      1.0  0.166279125  0.8471238649999999  0.5039819627982345  1.0000
  In  In16      1.0  0.8355175749999999  0.872558635  0.49393434408959075  1.0000
  In  In17      1.0  0.45852658499999993  0.9112799650000001  0.5255025751316165  1.0000
  In  In18      1.0  0.168850905  0.872558635  0.46556026973435094  1.0000
  In  In19      1.0  0.6584212949999999  0.592153045  0.50202992311061  1.0000
  In  In20      1.0  0.33114908499999995  0.628524735  0.4506295231581915  1.0000
  In  In21      1.0  0.997815755  0.628524735  0.4790035975134313  1.0000
  In  In22      1.0  0.026872285000000003  0.590905165  0.5225573600687154  1.0000
  In  In23      1.0  0.673219395  0.628524735  0.4651884150350811  1.0000
  In  In24      1.0  0.33988606499999996  0.628524735  0.49356248939032094  1.0000
  As  As1       1.0  0.8386552449999999  0.9797841250000001  0.5158335800408791  1.0000
  As  As2       1.0  0.5021842449999999  0.0005416850000000054  0.45790897079908066  1.0000
  As  As3       1.0  0.168850905  0.0005416850000000054  0.4862830417494318  1.0000
  As  As4       1.0  0.6688509049999999  0.250541685  0.4862830417494318  1.0000
  As  As5       1.0  0.3393788649999999  0.237691585  0.5152620184076069  1.0000
  As  As6       1.0  0.002184245000000004  0.250541685  0.45790897079908066  1.0000
  As  As7       1.0  0.9977913649999999  0.241550245  0.5015870185998758  1.0000
  As  As8       1.0  0.6688509049999999  0.250541685  0.44372193362146084  1.0000
  As  As9       1.0  0.33551757499999996  0.250541685  0.4720960045718119  1.0000
  As  As10      1.0  0.8355175749999999  0.500541685  0.472096004571812  1.0000
  As  As11      1.0  0.49525011499999994  0.488497635  0.5011908053272022  1.0000
  As  As12      1.0  0.168850905  0.500541685  0.4437219336214607  1.0000
  As  As13      1.0  0.996942835  0.743187315  0.5009896274813028  1.0000
  As  As14      1.0  0.6688509049999999  0.7505416850000001  0.44372193362146084  1.0000
  As  As15      1.0  0.33551757499999996  0.7505416850000001  0.4720960045718119  1.0000
  As  As16      1.0  0.6688509049999999  0.7505416850000001  0.4862830417494318  1.0000
  As  As17      1.0  0.32835284499999995  0.7354715450000001  0.5149737639393664  1.0000
  As  As18      1.0  0.002184245000000004  0.7505416850000001  0.45790897079908066  1.0000
  Se  Se1       1.0  0.8355175749999999  0.0005416850000000054  0.472096004571812  1.0000
  Se  Se2       1.0  0.5031323449999999  0.999458315  0.5005863831135666  1.0000
  Se  Se3       1.0  0.168850905  0.0005416850000000054  0.4437219336214607  1.0000
  Se  Se4       1.0  0.826469295  0.49251566499999994  0.5137206729840854  1.0000
  Se  Se5       1.0  0.5021842449999999  0.500541685  0.45790897079908066  1.0000
  Se  Se6       1.0  0.168850905  0.500541685  0.4862830417494318  1.0000
