data_image0
_chemical_formula_structural       COGa48
_chemical_formula_sum              "C1 O1 Ga48"
_cell_length_a       7.85148198
_cell_length_b       10.377692385178706
_cell_length_c       109.46543183
_cell_angle_alpha    108.06539957619576
_cell_angle_beta     90.0
_cell_angle_gamma    90.0

_space_group_name_H-M_alt    "P 1"
_space_group_IT_number       1

loop_
  _space_group_symop_operation_xyz
  'x, y, z'

loop_
  _atom_site_type_symbol
  _atom_site_label
  _atom_site_symmetry_multiplicity
  _atom_site_fract_x
  _atom_site_fract_y
  _atom_site_fract_z
  _atom_site_occupancy
  C   C1        1.0  0.2348929899999999  0.150396665  0.5557683090709722  1.0000
  O   O1        1.0  0.2202272899999999  0.19021514500000003  0.5670280355498449  1.0000
  Ga  Ga1       1.0  0.7202768799999999  0.695807445  0.4530013356831499  1.0000
  Ga  Ga2       1.0  0.7202768799999999  0.029140785000000006  0.43297196445015507  1.0000
  Ga  Ga3       1.0  0.7202768799999999  0.362474115  0.47303071052143186  1.0000
  Ga  Ga4       1.0  0.90776116  0.862474115  0.47303071052143186  1.0000
  Ga  Ga5       1.0  0.90776116  0.195807445  0.4530013356831498  1.0000
  Ga  Ga6       1.0  0.90776116  0.5291407850000001  0.43297196445015507  1.0000
  Ga  Ga7       1.0  0.40776115999999984  0.9746047050000001  0.4865061419493211  1.0000
  Ga  Ga8       1.0  0.40776115999999984  0.307938045  0.46647677071632626  1.0000
  Ga  Ga9       1.0  0.40776115999999984  0.641271375  0.44644739587804433  1.0000
  Ga  Ga10      1.0  0.22027687999999995  0.8079380450000001  0.4664767707163263  1.0000
  Ga  Ga11      1.0  0.22027687999999995  0.141271375  0.4464473958780444  1.0000
  Ga  Ga12      1.0  0.22027687999999995  0.47460470500000007  0.4865061419493212  1.0000
  Ga  Ga13      1.0  0.22027687999999995  0.5291407850000001  0.4630160231022909  1.0000
  Ga  Ga14      1.0  0.22027687999999995  0.862474115  0.4429866518692961  1.0000
  Ga  Ga15      1.0  0.22027687999999995  0.195807445  0.4830453979405728  1.0000
  Ga  Ga16      1.0  0.40776115999999984  0.695807445  0.4830453979405729  1.0000
  Ga  Ga17      1.0  0.40776115999999984  0.029140785000000006  0.4630160231022909  1.0000
  Ga  Ga18      1.0  0.40776115999999984  0.362474115  0.4429866518692961  1.0000
  Ga  Ga19      1.0  0.90776116  0.8079380450000001  0.43643271206419054  1.0000
  Ga  Ga20      1.0  0.90776116  0.141271375  0.47649145813546734  1.0000
  Ga  Ga21      1.0  0.90776116  0.47460470500000007  0.45646208329718535  1.0000
  Ga  Ga22      1.0  0.7202768799999999  0.641271375  0.4764914581354673  1.0000
  Ga  Ga23      1.0  0.7202768799999999  0.9746047050000001  0.45646208329718535  1.0000
  Ga  Ga24      1.0  0.7202768799999999  0.307938045  0.4364327120641905  1.0000
  Ga  Ga25      1.0  0.7202768799999999  0.695807445  0.5130894565927087  1.0000
  Ga  Ga26      1.0  0.7202768799999999  0.029140785000000006  0.4930600853597138  1.0000
  Ga  Ga27      1.0  0.74848584  0.400273635  0.5401179809396847  1.0000
  Ga  Ga28      1.0  0.8908374199999999  0.892917625  0.5375581008550813  1.0000
  Ga  Ga29      1.0  0.90776116  0.195807445  0.5130894565927087  1.0000
  Ga  Ga30      1.0  0.90776116  0.5291407850000001  0.4930600853597139  1.0000
  Ga  Ga31      1.0  0.2303715599999999  0.9424713550000001  0.5394239162883263  1.0000
  Ga  Ga32      1.0  0.5044881799999998  0.27250498500000003  0.5227278277410308  1.0000
  Ga  Ga33      1.0  0.40776115999999984  0.641271375  0.5065355167876031  1.0000
  Ga  Ga34      1.0  0.09223883999999995  0.7056068050000002  0.519096322910172  1.0000
  Ga  Ga35      1.0  0.22027687999999995  0.141271375  0.5065355167876031  1.0000
  Ga  Ga36      1.0  0.41417296999999986  0.4954039250000001  0.5468396963891137  1.0000
  Ga  Ga37      1.0  0.2147162699999999  0.469530335  0.5247764636820117  1.0000
  Ga  Ga38      1.0  0.22027687999999995  0.862474115  0.5030747691735676  1.0000
  Ga  Ga39      1.0  0.22616192999999996  0.24376155500000002  0.5387368134465172  1.0000
  Ga  Ga40      1.0  0.40440142999999995  0.705344335  0.5345875100599382  1.0000
  Ga  Ga41      1.0  0.4021564599999999  0.020777515000000003  0.5223904053083365  1.0000
  Ga  Ga42      1.0  0.40776115999999984  0.362474115  0.5030747691735676  1.0000
  Ga  Ga43      1.0  0.90776116  0.8079380450000001  0.49652082936846215  1.0000
  Ga  Ga44      1.0  0.9033145699999999  0.159317605  0.5372041481806553  1.0000
  Ga  Ga45      1.0  0.8839332799999999  0.475510315  0.5183501185955809  1.0000
  Ga  Ga46      1.0  0.73278112  0.668169505  0.5388010668746832  1.0000
  Ga  Ga47      1.0  0.7249701799999998  0.9792224850000001  0.5175996960949862  1.0000
  Ga  Ga48      1.0  0.7202768799999999  0.307938045  0.49652082936846215  1.0000
