data_image0
_chemical_formula_structural       CORe16
_chemical_formula_sum              "C1 O1 Re16"
_cell_length_a       5.564642576096533
_cell_length_b       5.289994601639941
_cell_length_c       107.02996224
_cell_angle_alpha    63.46567611823749
_cell_angle_beta     105.24693459627292
_cell_angle_gamma    74.75306544585281

_space_group_name_H-M_alt    "P 1"
_space_group_IT_number       1

loop_
  _space_group_symop_operation_xyz
  'x, y, z'

loop_
  _atom_site_type_symbol
  _atom_site_label
  _atom_site_symmetry_multiplicity
  _atom_site_fract_x
  _atom_site_fract_y
  _atom_site_fract_z
  _atom_site_occupancy
  C   C1        1.0  0.32103171999999996  0.8502600749999999  0.5423277908683624  1.0000
  O   O1        1.0  0.4001187399999998  0.744739705  0.5557067524296933  1.0000
  Re  Re1       1.0  0.3333333299999999  0.988933535  0.44841202706018235  1.0000
  Re  Re2       1.0  0.33333332999999987  0.4889335349999999  0.47312471091898617  1.0000
  Re  Re3       1.0  0.1666666699999999  0.072266875  0.4690059279693352  1.0000
  Re  Re4       1.0  0.1666666699999999  0.572266875  0.4442932475703069  1.0000
  Re  Re5       1.0  0.33184844999999996  0.9848111049999999  0.4974485748474337  1.0000
  Re  Re6       1.0  0.3434471099999999  0.465759505  0.5212964636453116  1.0000
  Re  Re7       1.0  0.18882511999999999  0.010953734999999984  0.5200128039651066  1.0000
  Re  Re8       1.0  0.1727254199999999  0.566650005  0.4942476668317457  1.0000
  Re  Re9       1.0  0.83333333  0.988933535  0.44841202706018235  1.0000
  Re  Re10      1.0  0.83333333  0.4889335349999999  0.47312471091898617  1.0000
  Re  Re11      1.0  0.66666667  0.072266875  0.46900592796933527  1.0000
  Re  Re12      1.0  0.66666667  0.572266875  0.44429324757030686  1.0000
  Re  Re13      1.0  0.82929893  0.989046265  0.4971686721040857  1.0000
  Re  Re14      1.0  0.7900799  0.527448335  0.5219881523076234  1.0000
  Re  Re15      1.0  0.6739937199999999  0.09421487499999998  0.5176792408647592  1.0000
  Re  Re16      1.0  0.67697627  0.5614087649999999  0.4947884712323565  1.0000
