data_image0
_chemical_formula_structural       COSn8Pt8Sn8Pt8
_chemical_formula_sum              "C1 O1 Sn16 Pt16"
_cell_length_a       11.853849821425506
_cell_length_b       7.27984488
_cell_length_c       99.4211428
_cell_angle_alpha    90.0
_cell_angle_beta     79.78833936635716
_cell_angle_gamma    72.11745572089369

_space_group_name_H-M_alt    "P 1"
_space_group_IT_number       1

loop_
  _space_group_symop_operation_xyz
  'x, y, z'

loop_
  _atom_site_type_symbol
  _atom_site_label
  _atom_site_symmetry_multiplicity
  _atom_site_fract_x
  _atom_site_fract_y
  _atom_site_fract_z
  _atom_site_occupancy
  C   C1        1.0  0.8026312200000001  0.209353355  0.5407756046564887  1.0000
  O   O1        1.0  0.77709535  0.27539398500000006  0.5522417314575826  1.0000
  Sn  Sn1       1.0  0.05462765000000002  0.8462008149999999  0.5010074657684211  1.0000
  Sn  Sn2       1.0  0.5520465000000001  0.09855538499999998  0.5118519264107096  1.0000
  Sn  Sn3       1.0  0.5603481100000001  0.593749995  0.4900331830884568  1.0000
  Sn  Sn4       1.0  0.07694241000000003  0.340386325  0.5225089396554028  1.0000
  Sn  Sn5       1.0  0.80695722  0.308930645  0.505567302823173  1.0000
  Sn  Sn6       1.0  0.31400592000000005  0.561768115  0.5166346359739074  1.0000
  Sn  Sn7       1.0  0.31034811  0.052083335000000036  0.49531754666690075  1.0000
  Sn  Sn8       1.0  0.8184187700000001  0.7709202449999999  0.5271606730757344  1.0000
  Pt  Pt1       1.0  0.94537235  0.088130035  0.525681065833251  1.0000
  Pt  Pt2       1.0  0.43534811  0.322916665  0.49267536487767877  1.0000
  Pt  Pt3       1.0  0.43637027  0.826290835  0.5121046695288728  1.0000
  Pt  Pt4       1.0  0.9381761599999999  0.564781335  0.5035118000500293  1.0000
  Pt  Pt5       1.0  0.70374207  0.15202995500000002  0.5269222704543703  1.0000
  Pt  Pt6       1.0  0.18534811000000004  0.447916665  0.4979597284561227  1.0000
  Pt  Pt7       1.0  0.18499557000000005  0.946716565  0.5174262781532749  1.0000
  Pt  Pt8       1.0  0.6857073499999999  0.7044499450000001  0.5079078991707341  1.0000
  Sn  Sn9       1.0  0.060348110000000024  0.843749995  0.4583269956993052  1.0000
  Sn  Sn10      1.0  0.5603481100000001  0.09374999500000003  0.4688957258154371  1.0000
  Sn  Sn11      1.0  0.5603481100000001  0.593749995  0.4477582685424173  1.0000
  Sn  Sn12      1.0  0.060348110000000024  0.343749995  0.479464452972325  1.0000
  Sn  Sn13      1.0  0.8103481100000001  0.30208333500000006  0.4636113622369932  1.0000
  Sn  Sn14      1.0  0.31034811  0.552083335  0.474180089393881  1.0000
  Sn  Sn15      1.0  0.31034811  0.052083335000000036  0.4530426321208612  1.0000
  Sn  Sn16      1.0  0.8103481100000001  0.8020833349999997  0.48474881951001286  1.0000
  Pt  Pt9       1.0  0.9353481100000001  0.07291666499999994  0.4821066377207909  1.0000
  Pt  Pt10      1.0  0.43534811  0.322916665  0.4504004503316393  1.0000
  Pt  Pt11      1.0  0.43534811  0.8229166649999999  0.4715379076046591  1.0000
  Pt  Pt12      1.0  0.9353481100000001  0.5729166649999999  0.4609691774885271  1.0000
  Pt  Pt13      1.0  0.6853481100000001  0.19791666500000005  0.48739100129923485  1.0000
  Pt  Pt14      1.0  0.18534811000000004  0.447916665  0.4556848139100832  1.0000
  Pt  Pt15      1.0  0.18534811000000004  0.9479166649999999  0.476822271183103  1.0000
  Pt  Pt16      1.0  0.6853481100000001  0.6979166649999999  0.46625354402621505  1.0000
