data_image0
_chemical_formula_structural       COIn27Ni39
_chemical_formula_sum              "C1 O1 In27 Ni39"
_cell_length_a       8.55121602
_cell_length_b       13.688288985657177
_cell_length_c       106.80419687
_cell_angle_alpha    90.25145473668958
_cell_angle_beta     90.0
_cell_angle_gamma    108.20122221407088

_space_group_name_H-M_alt    "P 1"
_space_group_IT_number       1

loop_
  _space_group_symop_operation_xyz
  'x, y, z'

loop_
  _atom_site_type_symbol
  _atom_site_label
  _atom_site_symmetry_multiplicity
  _atom_site_fract_x
  _atom_site_fract_y
  _atom_site_fract_z
  _atom_site_occupancy
  C   C1        1.0  0.014663734999999995  0.501315925  0.5406163202461042  1.0000
  O   O1        1.0  0.008432774999999998  0.499916645  0.5516280685111506  1.0000
  In  In1       1.0  0.473881615  0.5135126449999999  0.4621742207542832  1.0000
  In  In2       1.0  0.8072149449999999  0.18017931499999998  0.49089047323344176  1.0000
  In  In3       1.0  0.126498475  0.845955995  0.5197469104222603  1.0000
  In  In4       1.0  0.154619925  0.295993285  0.46406165395647814  1.0000
  In  In5       1.0  0.48795325499999986  0.9626599549999999  0.49277790988158726  1.0000
  In  In6       1.0  0.813951065  0.617805405  0.521862524124432  1.0000
  In  In7       1.0  0.356280595  0.6993146349999999  0.49116819616282736  1.0000
  In  In8       1.0  0.6946275149999999  0.374672925  0.5206901876646773  1.0000
  In  In9       1.0  0.022947264999999984  0.03264796499999998  0.4624519436836687  1.0000
  In  In10      1.0  0.38621092500000004  0.18017931499999998  0.49089047323344176  1.0000
  In  In11      1.0  0.733483675  0.847439775  0.5198719639635587  1.0000
  In  In12      1.0  0.05287759499999995  0.5135126449999999  0.4621742207542832  1.0000
  In  In13      1.0  0.991567225  0.969887885  0.4967615423012012  1.0000
  In  In14      1.0  0.33125175500000004  0.647336985  0.5243851114649177  1.0000
  In  In15      1.0  0.658233895  0.303221215  0.4680452863760922  1.0000
  In  In16      1.0  0.505953025  0.998732075  0.5237760776309268  1.0000
  In  In17      1.0  0.8405905749999999  0.667934595  0.4652486150298804  1.0000
  In  In18      1.0  0.17392391499999998  0.334601255  0.49396486750903906  1.0000
  In  In19      1.0  0.20729954500000006  0.822356535  0.4683230093054777  1.0000
  In  In20      1.0  0.540632875  0.489023205  0.4970392652305867  1.0000
  In  In21      1.0  0.867459045  0.155832225  0.5250292285202911  1.0000
  In  In22      1.0  0.961636895  0.489023205  0.4970392652305867  1.0000
  In  In23      1.0  0.29956818500000004  0.15340687499999997  0.5253441194710722  1.0000
  In  In24      1.0  0.6283035650000002  0.822356535  0.4683230093054777  1.0000
  In  In25      1.0  0.526561235  0.039875894999999974  0.4664355761032828  1.0000
  In  In26      1.0  0.859894565  0.706542565  0.4951518285824413  1.0000
  In  In27      1.0  0.19274879499999997  0.370413825  0.5233914819947396  1.0000
  Ni  Ni1       1.0  0.426245895  0.358154185  0.47822246679710523  1.0000
  Ni  Ni2       1.0  0.7541643849999999  0.02137465499999998  0.5067050666069959  1.0000
  Ni  Ni3       1.0  0.09291256499999999  0.6914875250000001  0.44950621087199627  1.0000
  Ni  Ni4       1.0  0.673923915  0.834601255  0.49396486750903906  1.0000
  Ni  Ni5       1.0  0.022696385000000013  0.505610485  0.5239656876076808  1.0000
  Ni  Ni6       1.0  0.340590575  0.16793459499999996  0.4652486150298805  1.0000
  Ni  Ni7       1.0  0.599993335  0.18674009499999997  0.44837193148884946  1.0000
  Ni  Ni8       1.0  0.933326665  0.853406765  0.4770881874139585  1.0000
  Ni  Ni9       1.0  0.26264401499999995  0.520113905  0.5055965457033531  1.0000
  Ni  Ni10      1.0  0.28029318499999994  0.021511984999999983  0.5066739565664655  1.0000
  Ni  Ni11      1.0  0.611821525  0.6914875250000001  0.44950621087199627  1.0000
  Ni  Ni12      1.0  0.945154855  0.358154185  0.47822246679710523  1.0000
  Ni  Ni13      1.0  0.08118782499999999  0.14912908499999997  0.48212529857091146  1.0000
  Ni  Ni14      1.0  0.41718898499999996  0.8206944249999999  0.5114754612002538  1.0000
  Ni  Ni15      1.0  0.7478544949999999  0.482462415  0.4534090460917529  1.0000
  Ni  Ni16      1.0  0.7736717249999999  0.0012679249999999786  0.4796067429924349  1.0000
  Ni  Ni17      1.0  0.10430160500000002  0.6703206049999999  0.5083195598590095  1.0000
  Ni  Ni18      1.0  0.44033839500000005  0.334601255  0.450890487067326  1.0000
  Ni  Ni19      1.0  0.26120474500000007  0.5091629150000001  0.48069085622914415  1.0000
  Ni  Ni20      1.0  0.5952903150000001  0.177350475  0.5104077644714186  1.0000
  Ni  Ni21      1.0  0.927871405  0.842496255  0.45197460374998566  1.0000
  Ni  Ni22      1.0  0.06935963499999995  0.6443816649999999  0.4809910191877646  1.0000
  Ni  Ni23      1.0  0.41008744500000005  0.310694505  0.5104545191269252  1.0000
  Ni  Ni24      1.0  0.736026305  0.9777149949999999  0.45227476326265564  1.0000
  Ni  Ni25      1.0  0.088430815  0.162289835  0.5068957034769795  1.0000
  Ni  Ni26      1.0  0.419976415  0.826706265  0.4498063738306167  1.0000
  Ni  Ni27      1.0  0.753309745  0.493372935  0.4785226263097753  1.0000
  Ni  Ni28      1.0  0.2549352550000001  0.9777149949999999  0.45227476326265564  1.0000
  Ni  Ni29      1.0  0.588268595  0.6443816649999999  0.4809910191877646  1.0000
  Ni  Ni30      1.0  0.9151653949999999  0.311616275  0.5098585557829354  1.0000
  Ni  Ni31      1.0  0.907509435  0.334601255  0.450890487067326  1.0000
  Ni  Ni32      1.0  0.240842765  0.0012679249999999786  0.4796067429924349  1.0000
  Ni  Ni33      1.0  0.5785413850000002  0.670978555  0.5085784610071172  1.0000
  Ni  Ni34      1.0  0.340590575  0.667934595  0.4652486150298804  1.0000
  Ni  Ni35      1.0  0.673923915  0.334601255  0.49396486750903906  1.0000
  Ni  Ni36      1.0  0.009573074999999983  0.005845454999999978  0.5208935711053213  1.0000
  Ni  Ni37      1.0  0.17392391499999998  0.834601255  0.49396486750903906  1.0000
  Ni  Ni38      1.0  0.496570875  0.500003365  0.5207600026204972  1.0000
  Ni  Ni39      1.0  0.8405905749999999  0.16793459499999996  0.4652486150298805  1.0000
