data_image0
_chemical_formula_structural       COAs5Cu5Zn5As5Cu5Zn5
_chemical_formula_sum              "C1 O1 As10 Cu10 Zn10"
_cell_length_a       8.469072002963978
_cell_length_b       5.985379202537623
_cell_length_c       101.92581905
_cell_angle_alpha    94.57374604986042
_cell_angle_beta     93.67131111393111
_cell_angle_gamma    90.75579911935304

_space_group_name_H-M_alt    "P 1"
_space_group_IT_number       1

loop_
  _space_group_symop_operation_xyz
  'x, y, z'

loop_
  _atom_site_type_symbol
  _atom_site_label
  _atom_site_symmetry_multiplicity
  _atom_site_fract_x
  _atom_site_fract_y
  _atom_site_fract_z
  _atom_site_occupancy
  C   C1        1.0  0.3120015299999998  0.6828247449999999  0.5452739181725016  1.0000
  O   O1        1.0  0.3211142199999999  0.670538425  0.5565939442691208  1.0000
  As  As1       1.0  0.04804825999999982  0.03754248500000002  0.5302810694952304  1.0000
  As  As2       1.0  0.4837495899999998  0.8985085449999999  0.4436881032365035  1.0000
  As  As3       1.0  0.2504162599999998  0.431841875  0.4645698392178644  1.0000
  As  As4       1.0  0.2848689999999998  0.5139651150000001  0.5064182768718724  1.0000
  As  As5       1.0  0.01708291999999982  0.9651752049999999  0.4854515751992252  1.0000
  Cu  Cu1       1.0  0.2634810799999998  0.714724975  0.485169527693601  1.0000
  Cu  Cu2       1.0  0.030835259999999826  0.22485543500000002  0.5075213555640207  1.0000
  Cu  Cu3       1.0  0.29996000999999983  0.764017035  0.5278873429709465  1.0000
  Cu  Cu4       1.0  0.49681440999999993  0.18139164500000002  0.46428779171224005  1.0000
  Cu  Cu5       1.0  0.23014774999999982  0.6480583150000001  0.44340605573087927  1.0000
  Zn  Zn1       1.0  0.04278929999999983  0.772981415  0.5080944620879814  1.0000
  Zn  Zn2       1.0  0.2986194999999998  0.19390297500000003  0.5216106818490718  1.0000
  Zn  Zn3       1.0  0.23651891999999983  0.148854705  0.44390495900974036  1.0000
  Zn  Zn4       1.0  0.26985224999999985  0.21552137499999996  0.48566843097246215  1.0000
  Zn  Zn5       1.0  0.003185589999999824  0.6821880349999999  0.4647866949911013  1.0000
  As  As6       1.0  0.5601191199999997  0.03482479500000002  0.5301255715678465  1.0000
  As  As7       1.0  0.9837495899999996  0.8985085449999999  0.4436881032365035  1.0000
  As  As8       1.0  0.7504162599999998  0.431841875  0.4645698392178644  1.0000
  As  As9       1.0  0.7857217699999999  0.5051566150000001  0.5056229740709647  1.0000
  As  As10      1.0  0.5170829199999999  0.9651752049999999  0.4854515751992252  1.0000
  Cu  Cu6       1.0  0.7634810799999999  0.714724975  0.485169527693601  1.0000
  Cu  Cu7       1.0  0.5443560499999998  0.220893115  0.5074239360060179  1.0000
  Cu  Cu8       1.0  0.7983169199999999  0.818181745  0.5226795907142554  1.0000
  Cu  Cu9       1.0  0.9968144099999999  0.18139164500000002  0.46428779171224005  1.0000
  Cu  Cu10      1.0  0.7301477499999999  0.6480583150000001  0.44340605573087927  1.0000
  Zn  Zn6       1.0  0.5333630299999998  0.7687301649999999  0.5080473466294425  1.0000
  Zn  Zn7       1.0  0.8004170399999999  0.251470645  0.5239358150063469  1.0000
  Zn  Zn8       1.0  0.73651892  0.148854705  0.44390495900974036  1.0000
  Zn  Zn9       1.0  0.7698522499999999  0.21552137499999996  0.48566843097246215  1.0000
  Zn  Zn10      1.0  0.5031855899999998  0.6821880349999999  0.4647866949911013  1.0000
