data_image0
_chemical_formula_structural       CORe6Ir2Re6Ir2Re6Ir2Re6Ir2
_chemical_formula_sum              "C1 O1 Re24 Ir8"
_cell_length_a       7.8057664
_cell_length_b       7.8057664
_cell_length_c       101.35181632
_cell_angle_alpha    90.0
_cell_angle_beta     90.0
_cell_angle_gamma    90.0

_space_group_name_H-M_alt    "P 1"
_space_group_IT_number       1

loop_
  _space_group_symop_operation_xyz
  'x, y, z'

loop_
  _atom_site_type_symbol
  _atom_site_label
  _atom_site_symmetry_multiplicity
  _atom_site_fract_x
  _atom_site_fract_y
  _atom_site_fract_z
  _atom_site_occupancy
  C   C1        1.0  0.32648141  0.20220332000000005  0.5325988936455603  1.0000
  O   O1        1.0  0.29753757000000003  0.17325930000000003  0.5437800130810369  1.0000
  Re  Re1       1.0  0.37597553000000006  0.0016980900000000273  0.45621998691896315  1.0000
  Re  Re2       1.0  0.12597553  0.25169809000000004  0.45621998691896315  1.0000
  Re  Re3       1.0  0.37198978  0.24771210000000005  0.513670342532723  1.0000
  Re  Re4       1.0  0.12514514  0.25092036000000006  0.49528310555126226  1.0000
  Re  Re5       1.0  0.37519781  0.0008687800000000272  0.49528300656358165  1.0000
  Re  Re6       1.0  0.12597553  0.0016980900000000273  0.4755535182867017  1.0000
  Ir  Ir1       1.0  0.12439446  0.00011666000000002727  0.5133221904865829  1.0000
  Ir  Ir2       1.0  0.37597553000000006  0.25169809000000004  0.4755535182867017  1.0000
  Re  Re7       1.0  0.37597553000000006  0.5016980900000001  0.45621998691896315  1.0000
  Re  Re8       1.0  0.12597553  0.7516980900000002  0.45621998691896315  1.0000
  Re  Re9       1.0  0.37598279000000007  0.7500642600000001  0.5126577820810116  1.0000
  Re  Re10      1.0  0.12402447000000001  0.7507283100000001  0.4955517766766085  1.0000
  Re  Re11      1.0  0.37543858  0.50123537  0.4953242287458227  1.0000
  Re  Re12      1.0  0.12597553  0.5016980900000001  0.4755535182867017  1.0000
  Ir  Ir3       1.0  0.12452917999999999  0.50103761  0.5133880327610089  1.0000
  Ir  Ir4       1.0  0.37597553000000006  0.7516980900000002  0.4755535182867017  1.0000
  Re  Re13      1.0  0.8759755300000001  0.0016980900000000273  0.45621998691896315  1.0000
  Re  Re14      1.0  0.6259755300000001  0.25169809000000004  0.45621998691896315  1.0000
  Re  Re15      1.0  0.87434087  0.25170623000000003  0.5126577511473616  1.0000
  Re  Re16      1.0  0.62551312  0.25116136000000006  0.49532422255909264  1.0000
  Re  Re17      1.0  0.87500743  0.99974912  0.4955517952367985  1.0000
  Re  Re18      1.0  0.6259755300000001  0.0016980900000000273  0.4755535182867017  1.0000
  Ir  Ir5       1.0  0.62531589  0.0002508800000000644  0.5133878780927579  1.0000
  Ir  Ir6       1.0  0.8759755300000001  0.25169809000000004  0.4755535182867017  1.0000
  Re  Re19      1.0  0.8759755300000001  0.5016980900000001  0.45621998691896315  1.0000
  Re  Re20      1.0  0.6259755300000001  0.7516980900000002  0.45621998691896315  1.0000
  Re  Re21      1.0  0.8752556300000001  0.7509784700000002  0.5128482714988717  1.0000
  Re  Re22      1.0  0.62604981  0.7509148000000002  0.4955298447186249  1.0000
  Re  Re23      1.0  0.8751937000000001  0.5017711600000001  0.49552997463995563  1.0000
  Re  Re24      1.0  0.6259755300000001  0.5016980900000001  0.4755535182867017  1.0000
  Ir  Ir7       1.0  0.62564956  0.50137076  0.5134597617090656  1.0000
  Ir  Ir8       1.0  0.8759755300000001  0.7516980900000002  0.4755535182867017  1.0000
