data_image0
_chemical_formula_structural       COAs24Rh12
_chemical_formula_sum              "C1 O1 As24 Rh12"
_cell_length_a       6.263385302577898
_cell_length_b       13.82717452533669
_cell_length_c       104.95445058
_cell_angle_alpha    71.43797114516123
_cell_angle_beta     106.87825354457674
_cell_angle_gamma    79.42684079897224

_space_group_name_H-M_alt    "P 1"
_space_group_IT_number       1

loop_
  _space_group_symop_operation_xyz
  'x, y, z'

loop_
  _atom_site_type_symbol
  _atom_site_label
  _atom_site_symmetry_multiplicity
  _atom_site_fract_x
  _atom_site_fract_y
  _atom_site_fract_z
  _atom_site_occupancy
  C   C1        1.0  0.8652453149999999  0.6672233  0.5437800998712403  1.0000
  O   O1        1.0  0.916741735  0.62977342  0.5562971325086623  1.0000
  As  As1       1.0  0.8308308849999999  0.9050505699999999  0.4437028674913377  1.0000
  As  As2       1.0  0.8397646749999998  0.5692898000000001  0.5001863081469238  1.0000
  As  As3       1.0  0.8308308849999999  0.23838391  0.4714565334774365  1.0000
  As  As4       1.0  0.5902353649999998  0.50917919  0.46799366180767715  1.0000
  As  As5       1.0  0.578473185  0.18390964000000004  0.5224317893057253  1.0000
  As  As6       1.0  0.592588235  0.83814666  0.4960779106037328  1.0000
  As  As7       1.0  0.09023536499999983  0.42828276000000004  0.4612581465430231  1.0000
  As  As8       1.0  0.08325826499999987  0.09466301000000003  0.5173229475536892  1.0000
  As  As9       1.0  0.09023536499999997  0.7616160899999999  0.4890118125291219  1.0000
  As  As10      1.0  0.36604260499999997  0.82696979  0.5205396763905586  1.0000
  As  As11      1.0  0.33083088499999974  0.49082081000000005  0.49247468419888113  1.0000
  As  As12      1.0  0.33083088499999985  0.15748748000000004  0.46472101821278244  1.0000
  As  As13      1.0  0.1480937449999999  0.69509214  0.5207310068410802  1.0000
  As  As14      1.0  0.14037202499999984  0.3434602400000001  0.4951609805096203  1.0000
  As  As15      1.0  0.14309430499999984  0.010586720000000042  0.46767204787277916  1.0000
  As  As16      1.0  0.2779719449999999  0.73627793  0.47171999459859437  1.0000
  As  As17      1.0  0.2779719449999999  0.40294460000000004  0.44396632861249563  1.0000
  As  As18      1.0  0.28199061499999983  0.06815745000000004  0.5004653990232437  1.0000
  As  As19      1.0  0.7779719449999999  0.65607995  0.46504263214768043  1.0000
  As  As20      1.0  0.794319945  0.31915329000000003  0.5216734247929072  1.0000
  As  As21      1.0  0.7779719450000001  0.9894132799999998  0.4927962981337791  1.0000
  As  As22      1.0  0.656202215  0.58069545  0.5181611860102637  1.0000
  As  As23      1.0  0.6430943049999999  0.26372207000000003  0.4887483514079639  1.0000
  As  As24      1.0  0.6430943049999999  0.93038874  0.46099468542186517  1.0000
  Rh  Rh1       1.0  0.7673583350000001  0.7320650499999999  0.5231352814882542  1.0000
  Rh  Rh2       1.0  0.7490767849999999  0.40924352  0.49544237272001584  1.0000
  Rh  Rh3       1.0  0.7499207149999999  0.07579378000000005  0.4675738232043389  1.0000
  Rh  Rh4       1.0  0.6711455349999998  0.75722714  0.47899167740714754  1.0000
  Rh  Rh5       1.0  0.6711455349999998  0.42389381000000004  0.4512380114210487  1.0000
  Rh  Rh6       1.0  0.6738212549999998  0.09870126000000003  0.5063364053201966  1.0000
  Rh  Rh7       1.0  0.17114553499999993  0.59087289  0.4651408568161207  1.0000
  Rh  Rh8       1.0  0.1655206449999999  0.25452253  0.518987188430089  1.0000
  Rh  Rh9       1.0  0.17114553499999985  0.92420622  0.4928945228022195  1.0000
  Rh  Rh10      1.0  0.2500989349999998  0.58697241  0.5078543765999722  1.0000
  Rh  Rh11      1.0  0.24992071499999988  0.24277286  0.4814766685994109  1.0000
  Rh  Rh12      1.0  0.249920715  0.9094395299999999  0.4537230026133121  1.0000
