data_image0
_chemical_formula_structural       COAl8Ir4Rh4Al8Ir4Rh4Al8Ir4Rh4Al8Ir4Rh4
_chemical_formula_sum              "C1 O1 Al32 Ir16 Rh16"
_cell_length_a       8.55715464
_cell_length_b       8.55715464
_cell_length_c       106.30493242
_cell_angle_alpha    90.0
_cell_angle_beta     90.0
_cell_angle_gamma    90.0

_space_group_name_H-M_alt    "P 1"
_space_group_IT_number       1

loop_
  _space_group_symop_operation_xyz
  'x, y, z'

loop_
  _atom_site_type_symbol
  _atom_site_label
  _atom_site_symmetry_multiplicity
  _atom_site_fract_x
  _atom_site_fract_y
  _atom_site_fract_z
  _atom_site_occupancy
  C   C1        1.0  0.50000033  0.37530181999999995  0.553802393563787  1.0000
  O   O1        1.0  0.50000014  0.37530291  0.5647838869962788  1.0000
  Al  Al1       1.0  1.0999999998533155e-07  0.37530298999999995  0.506365468864283  1.0000
  Al  Al2       1.0  0.99999992  0.37530504000000003  0.5347290427777747  1.0000
  Al  Al3       1.0  0.24971142999999993  0.12469591000000001  0.5348303537701926  1.0000
  Al  Al4       1.0  0.25000010999999994  0.12530299  0.506365468864283  1.0000
  Al  Al5       1.0  1.0999999998533155e-07  0.37530298999999995  0.44944598212673204  1.0000
  Al  Al6       1.0  1.0999999998533155e-07  0.37530298999999995  0.4779057272030921  1.0000
  Al  Al7       1.0  0.25000010999999994  0.12530299  0.4779057272030921  1.0000
  Al  Al8       1.0  0.25000010999999994  0.12530299  0.44944598212673204  1.0000
  Ir  Ir1       1.0  0.25000010999999994  0.37530298999999995  0.49213559632610293  1.0000
  Ir  Ir2       1.0  8.999999998533155e-08  0.12513092  0.5214101666066092  1.0000
  Ir  Ir3       1.0  0.25000010999999994  0.37530298999999995  0.43521611300372115  1.0000
  Ir  Ir4       1.0  1.0999999998533155e-07  0.12530299  0.46367585466491207  1.0000
  Rh  Rh1       1.0  1.0999999998533155e-07  0.12530299  0.49213559632610293  1.0000
  Rh  Rh2       1.0  0.25148265999999997  0.37530313  0.5212087774978315  1.0000
  Rh  Rh3       1.0  1.0999999998533155e-07  0.12530299  0.43521611300372115  1.0000
  Rh  Rh4       1.0  0.25000010999999994  0.37530298999999995  0.46367585466491207  1.0000
  Al  Al9       1.0  1.0999999998533155e-07  0.87530299  0.506365468864283  1.0000
  Al  Al10      1.0  2.6999999998533157e-07  0.87530021  0.5347474949366162  1.0000
  Al  Al11      1.0  0.24970864999999998  0.6259099499999999  0.5348301010476766  1.0000
  Al  Al12      1.0  0.25000010999999994  0.62530299  0.506365468864283  1.0000
  Al  Al13      1.0  1.0999999998533155e-07  0.87530299  0.44944598212673204  1.0000
  Al  Al14      1.0  1.0999999998533155e-07  0.87530299  0.4779057272030921  1.0000
  Al  Al15      1.0  0.25000010999999994  0.62530299  0.4779057272030921  1.0000
  Al  Al16      1.0  0.25000010999999994  0.62530299  0.44944598212673204  1.0000
  Ir  Ir5       1.0  0.25000010999999994  0.87530299  0.49213559632610293  1.0000
  Ir  Ir6       1.0  7.999999998533155e-08  0.6254744699999999  0.5214098660717253  1.0000
  Ir  Ir7       1.0  0.25000010999999994  0.87530299  0.43521611300372115  1.0000
  Ir  Ir8       1.0  1.0999999998533155e-07  0.62530299  0.46367585466491207  1.0000
  Rh  Rh5       1.0  1.0999999998533155e-07  0.62530299  0.49213559632610293  1.0000
  Rh  Rh6       1.0  0.24985018999999997  0.87530269  0.5210854454948249  1.0000
  Rh  Rh7       1.0  1.0999999998533155e-07  0.62530299  0.43521611300372115  1.0000
  Rh  Rh8       1.0  0.25000010999999994  0.87530299  0.46367585466491207  1.0000
  Al  Al17      1.0  0.50000011  0.37530298999999995  0.506365468864283  1.0000
  Al  Al18      1.0  0.5000001699999999  0.37530337  0.5348919975730966  1.0000
  Al  Al19      1.0  0.7502887499999998  0.12469620000000001  0.5348303571853618  1.0000
  Al  Al20      1.0  0.7500001099999999  0.12530299  0.506365468864283  1.0000
  Al  Al21      1.0  0.50000011  0.37530298999999995  0.44944598212673204  1.0000
  Al  Al22      1.0  0.50000011  0.37530298999999995  0.4779057272030921  1.0000
  Al  Al23      1.0  0.7500001099999999  0.12530299  0.4779057272030921  1.0000
  Al  Al24      1.0  0.7500001099999999  0.12530299  0.44944598212673204  1.0000
  Ir  Ir9       1.0  0.7500001099999999  0.37530298999999995  0.49213559632610293  1.0000
  Ir  Ir10      1.0  0.50000007  0.12602495  0.5214971919465315  1.0000
  Ir  Ir11      1.0  0.7500001099999999  0.37530298999999995  0.43521611300372115  1.0000
  Ir  Ir12      1.0  0.50000011  0.12530299  0.46367585466491207  1.0000
  Rh  Rh9       1.0  0.50000011  0.12530299  0.49213559632610293  1.0000
  Rh  Rh10      1.0  0.7485173899999998  0.37530313  0.5212087399309709  1.0000
  Rh  Rh11      1.0  0.50000011  0.12530299  0.43521611300372115  1.0000
  Rh  Rh12      1.0  0.7500001099999999  0.37530298999999995  0.46367585466491207  1.0000
  Al  Al25      1.0  0.50000011  0.87530299  0.506365468864283  1.0000
  Al  Al26      1.0  0.49999993  0.87530409  0.5349603351075068  1.0000
  Al  Al27      1.0  0.7502915099999999  0.62590966  0.5348301010476766  1.0000
  Al  Al28      1.0  0.7500001099999999  0.62530299  0.506365468864283  1.0000
  Al  Al29      1.0  0.50000011  0.87530299  0.44944598212673204  1.0000
  Al  Al30      1.0  0.50000011  0.87530299  0.4779057272030921  1.0000
  Al  Al31      1.0  0.7500001099999999  0.62530299  0.4779057272030921  1.0000
  Al  Al32      1.0  0.7500001099999999  0.62530299  0.44944598212673204  1.0000
  Ir  Ir13      1.0  0.7500001099999999  0.87530299  0.49213559632610293  1.0000
  Ir  Ir14      1.0  0.50000006  0.6245818499999999  0.5214967411442055  1.0000
  Ir  Ir15      1.0  0.7500001099999999  0.87530299  0.43521611300372115  1.0000
  Ir  Ir16      1.0  0.50000011  0.62530299  0.46367585466491207  1.0000
  Rh  Rh13      1.0  0.50000011  0.62530299  0.49213559632610293  1.0000
  Rh  Rh14      1.0  0.7501500299999999  0.87530269  0.5210855001375311  1.0000
  Rh  Rh15      1.0  0.50000011  0.62530299  0.43521611300372115  1.0000
  Rh  Rh16      1.0  0.7500001099999999  0.87530299  0.46367585466491207  1.0000
