data_image0
_chemical_formula_structural       COTi5Al5Ti5Al5
_chemical_formula_sum              "C1 O1 Ti10 Al10"
_cell_length_a       6.351099938679182
_cell_length_b       4.977869939073717
_cell_length_c       104.38711089
_cell_angle_alpha    72.36151915659515
_cell_angle_beta     77.19503255724254
_cell_angle_gamma    75.2161399484521

_space_group_name_H-M_alt    "P 1"
_space_group_IT_number       1

loop_
  _space_group_symop_operation_xyz
  'x, y, z'

loop_
  _atom_site_type_symbol
  _atom_site_label
  _atom_site_symmetry_multiplicity
  _atom_site_fract_x
  _atom_site_fract_y
  _atom_site_fract_z
  _atom_site_occupancy
  C   C1        1.0  0.5416062700000001  0.800629375  0.5486267431754199  1.0000
  O   O1        1.0  0.6331732900000001  0.710693685  0.5589764761171133  1.0000
  Ti  Ti1       1.0  0.50035003  0.9004321849999999  0.4739654365355284  1.0000
  Ti  Ti2       1.0  0.9003500299999999  0.7004321849999999  0.48494607298834524  1.0000
  Ti  Ti3       1.0  0.10035003000000002  0.10043218499999997  0.4629847967885204  1.0000
  Ti  Ti4       1.0  0.30035003000000005  0.500432185  0.4410235238828867  1.0000
  Ti  Ti5       1.0  0.70035003  0.30043218499999996  0.45200416033570356  1.0000
  Al  Al1       1.0  0.50035003  0.9004321849999999  0.4465138404621995  1.0000
  Al  Al2       1.0  0.9003500299999999  0.7004321849999999  0.4574944802092076  1.0000
  Al  Al3       1.0  0.10035003000000002  0.10043218499999997  0.4904363928618493  1.0000
  Al  Al4       1.0  0.30035003000000005  0.500432185  0.46847511666202435  1.0000
  Al  Al5       1.0  0.70035003  0.30043218499999996  0.47945575311484123  1.0000
  Ti  Ti6       1.0  0.5025951200000001  0.8971038049999999  0.529116872347554  1.0000
  Ti  Ti7       1.0  0.89237938  0.6906876049999999  0.5412995262511531  1.0000
  Ti  Ti8       1.0  0.09964997000000002  0.09956781499999998  0.517680771127828  1.0000
  Ti  Ti9       1.0  0.30035003000000005  0.500432185  0.495926709441162  1.0000
  Ti  Ti10      1.0  0.70035003  0.30043218499999996  0.5069073491881702  1.0000
  Al  Al6       1.0  0.50035003  0.9004321849999999  0.5014170293146661  1.0000
  Al  Al7       1.0  0.9003500299999999  0.7004321849999999  0.5123976657674829  1.0000
  Al  Al8       1.0  0.10606386000000002  0.11284559499999998  0.5441095076365273  1.0000
  Al  Al9       1.0  0.29867202  0.4977869649999999  0.5237402646623356  1.0000
  Al  Al10      1.0  0.70800083  0.30266057499999993  0.5336472582979775  1.0000
