data_image0
_chemical_formula_structural       COAl8Pd4Ru4Al8Pd4Ru4Al8Pd4Ru4Al8Pd4Ru4
_chemical_formula_sum              "C1 O1 Al32 Pd16 Ru16"
_cell_length_a       8.61366038
_cell_length_b       8.61366038
_cell_length_c       106.54466596
_cell_angle_alpha    90.0
_cell_angle_beta     90.0
_cell_angle_gamma    90.0

_space_group_name_H-M_alt    "P 1"
_space_group_IT_number       1

loop_
  _space_group_symop_operation_xyz
  'x, y, z'

loop_
  _atom_site_type_symbol
  _atom_site_label
  _atom_site_symmetry_multiplicity
  _atom_site_fract_x
  _atom_site_fract_y
  _atom_site_fract_z
  _atom_site_occupancy
  C   C1        1.0  0.24512432499999995  0.5026454149999999  0.5525403704362642  1.0000
  O   O1        1.0  0.24660200499999999  0.5011676249999999  0.5638374255667106  1.0000
  Al  Al1       1.0  0.12079690499999995  0.372529085  0.5076803789471447  1.0000
  Al  Al2       1.0  0.37105949499999996  0.12115616499999998  0.5076045385377013  1.0000
  Al  Al3       1.0  0.374184135  0.132411365  0.5352889256433898  1.0000
  Al  Al4       1.0  0.13240877499999995  0.380046885  0.5372556210207079  1.0000
  Al  Al5       1.0  0.12339491499999995  0.374375375  0.450454178406599  1.0000
  Al  Al6       1.0  0.37339491499999994  0.124375375  0.450454178406599  1.0000
  Al  Al7       1.0  0.37339491499999994  0.124375375  0.4790373932131895  1.0000
  Al  Al8       1.0  0.12339491499999995  0.374375375  0.4790373932131895  1.0000
  Pd  Pd1       1.0  0.37339491499999994  0.374375375  0.49332899718649914  1.0000
  Pd  Pd2       1.0  0.12122575499999995  0.12572031499999997  0.5220451205013218  1.0000
  Pd  Pd3       1.0  0.37339491499999994  0.374375375  0.4361625744332893  1.0000
  Pd  Pd4       1.0  0.12339491499999995  0.124375375  0.4647457858098943  1.0000
  Ru  Ru1       1.0  0.12339491499999995  0.124375375  0.49332899718649914  1.0000
  Ru  Ru2       1.0  0.37372349499999996  0.374046245  0.5221582928729732  1.0000
  Ru  Ru3       1.0  0.12339491499999995  0.124375375  0.4361625744332893  1.0000
  Ru  Ru4       1.0  0.37339491499999994  0.374375375  0.4647457858098943  1.0000
  Al  Al9       1.0  0.12157359499999995  0.8745243149999999  0.5078362031885183  1.0000
  Al  Al10      1.0  0.37524134499999995  0.626973375  0.507680375517159  1.0000
  Al  Al11      1.0  0.367723345  0.6153618350000001  0.5372556038707803  1.0000
  Al  Al12      1.0  0.12662855499999995  0.868567435  0.5357186822469265  1.0000
  Al  Al13      1.0  0.12339491499999995  0.8743753750000001  0.450454178406599  1.0000
  Al  Al14      1.0  0.37339491499999994  0.624375375  0.450454178406599  1.0000
  Al  Al15      1.0  0.37339491499999994  0.624375375  0.4790373932131895  1.0000
  Al  Al16      1.0  0.12339491499999995  0.8743753750000001  0.4790373932131895  1.0000
  Pd  Pd5       1.0  0.37339491499999994  0.8743753750000001  0.49332899718649914  1.0000
  Pd  Pd6       1.0  0.12763955499999996  0.620131305  0.5213657672827616  1.0000
  Pd  Pd7       1.0  0.37339491499999994  0.8743753750000001  0.4361625744332893  1.0000
  Pd  Pd8       1.0  0.12339491499999995  0.624375375  0.4647457858098943  1.0000
  Ru  Ru5       1.0  0.12339491499999995  0.624375375  0.49332899718649914  1.0000
  Ru  Ru6       1.0  0.37350080499999994  0.8734528149999999  0.5244574944748788  1.0000
  Ru  Ru7       1.0  0.12339491499999995  0.624375375  0.4361625744332893  1.0000
  Ru  Ru8       1.0  0.37339491499999994  0.8743753750000001  0.4647457858098943  1.0000
  Al  Al17      1.0  0.626613895  0.376710735  0.5076045316777302  1.0000
  Al  Al18      1.0  0.8744291049999999  0.122105995  0.5077236653641848  1.0000
  Al  Al19      1.0  0.868926635  0.129068125  0.5360930548745562  1.0000
  Al  Al20      1.0  0.6153586249999998  0.373585605  0.5352889119234479  1.0000
  Al  Al21      1.0  0.623394915  0.374375375  0.450454178406599  1.0000
  Al  Al22      1.0  0.873394915  0.124375375  0.450454178406599  1.0000
  Al  Al23      1.0  0.873394915  0.124375375  0.4790373932131895  1.0000
  Al  Al24      1.0  0.623394915  0.374375375  0.4790373932131895  1.0000
  Pd  Pd9       1.0  0.873394915  0.374375375  0.49332899718649914  1.0000
  Pd  Pd10      1.0  0.623245265  0.12452507499999999  0.5211554542916969  1.0000
  Pd  Pd11      1.0  0.873394915  0.374375375  0.4361625744332893  1.0000
  Pd  Pd12      1.0  0.623394915  0.124375375  0.4647457858098943  1.0000
  Ru  Ru9       1.0  0.623394915  0.124375375  0.49332899718649914  1.0000
  Ru  Ru10      1.0  0.8743174549999999  0.374269735  0.5244574258751686  1.0000
  Ru  Ru11      1.0  0.623394915  0.124375375  0.4361625744332893  1.0000
  Ru  Ru12      1.0  0.873394915  0.374375375  0.4647457858098943  1.0000
  Al  Al25      1.0  0.6256642249999999  0.8733410549999999  0.5077236722241557  1.0000
  Al  Al26      1.0  0.8732461749999999  0.6261967649999999  0.5078362031885183  1.0000
  Al  Al27      1.0  0.8792030949999999  0.6211416749999998  0.535718617077202  1.0000
  Al  Al28      1.0  0.6187025349999999  0.878843835  0.5360930102847447  1.0000
  Al  Al29      1.0  0.623394915  0.8743753750000001  0.450454178406599  1.0000
  Al  Al30      1.0  0.873394915  0.624375375  0.450454178406599  1.0000
  Al  Al31      1.0  0.873394915  0.624375375  0.4790373932131895  1.0000
  Al  Al32      1.0  0.623394915  0.8743753750000001  0.4790373932131895  1.0000
  Pd  Pd13      1.0  0.873394915  0.8743753750000001  0.49332899718649914  1.0000
  Pd  Pd14      1.0  0.6220501549999999  0.626543545  0.5220448941222786  1.0000
  Pd  Pd15      1.0  0.873394915  0.8743753750000001  0.4361625744332893  1.0000
  Pd  Pd16      1.0  0.623394915  0.624375375  0.4647457858098943  1.0000
  Ru  Ru13      1.0  0.623394915  0.624375375  0.49332899718649914  1.0000
  Ru  Ru14      1.0  0.8722741249999999  0.8754967149999999  0.5257757167931144  1.0000
  Ru  Ru15      1.0  0.623394915  0.624375375  0.4361625744332893  1.0000
  Ru  Ru16      1.0  0.873394915  0.8743753750000001  0.4647457858098943  1.0000
