data_image0
_chemical_formula_structural       COGa18Ir4
_chemical_formula_sum              "C1 O1 Ga18 Ir4"
_cell_length_a       6.554213079135589
_cell_length_b       6.4929482
_cell_length_c       34.08246371
_cell_angle_alpha    90.0
_cell_angle_beta     86.77633146852344
_cell_angle_gamma    90.0

_space_group_name_H-M_alt    "P 1"
_space_group_IT_number       1

loop_
  _space_group_symop_operation_xyz
  'x, y, z'

loop_
  _atom_site_type_symbol
  _atom_site_label
  _atom_site_symmetry_multiplicity
  _atom_site_fract_x
  _atom_site_fract_y
  _atom_site_fract_z
  _atom_site_occupancy
  C   C1        1.0  0.24247536  0.658339815  0.6235293989999308  1.0000
  O   O1        1.0  0.23110599  0.661156625  0.6581689264857864  1.0000
  Ga  Ga1       1.0  0.97699294  0.749159535  0.5220446754893847  1.0000
  Ga  Ga2       1.0  0.023007059999999996  0.26143497499999996  0.37847592558169824  1.0000
  Ga  Ga3       1.0  0.20741803  0.661410485  0.3758614380928998  1.0000
  Ga  Ga4       1.0  0.20221906  0.37697604500000004  0.5072027844102073  1.0000
  Ga  Ga5       1.0  0.6271759200000001  0.831411655  0.5823632164094452  1.0000
  Ga  Ga6       1.0  0.5922348  0.24153108499999998  0.45778879066491074  1.0000
  Ga  Ga7       1.0  0.39008164999999995  0.740376605  0.44759097110208673  1.0000
  Ga  Ga8       1.0  0.43534822999999995  0.28867362499999993  0.5775987328908544  1.0000
  Ga  Ga9       1.0  0.5940299099999999  0.5554765349999999  0.5153991469920338  1.0000
  Ga  Ga10      1.0  0.6047271399999999  0.44842923500000004  0.38588077895189987  1.0000
  Ga  Ga11      1.0  0.37695291000000003  0.9634478449999999  0.5150677768714015  1.0000
  Ga  Ga12      1.0  0.39293374999999997  0.053401595000000024  0.3879146837322049  1.0000
  Ga  Ga13      1.0  0.8980085  0.439526015  0.587866232495582  1.0000
  Ga  Ga14      1.0  0.8845987799999999  0.527083225  0.4436300211338702  1.0000
  Ga  Ga15      1.0  0.08537666999999999  0.044865785000000026  0.45641722566585935  1.0000
  Ga  Ga16      1.0  0.10200623  0.03655215500000002  0.5840050813774602  1.0000
  Ga  Ga17      1.0  0.7940293199999999  0.17119263499999998  0.5261750727343362  1.0000
  Ga  Ga18      1.0  0.79319654  0.862782295  0.3974725681975452  1.0000
  Ir  Ir1       1.0  0.25750052  0.6564807749999999  0.568183348958881  1.0000
  Ir  Ir2       1.0  0.25179656  0.3800679450000001  0.4303462356498929  1.0000
  Ir  Ir3       1.0  0.73014747  0.878297605  0.47356134027109353  1.0000
  Ir  Ir4       1.0  0.73014747  0.125836825  0.3418310735142131  1.0000
