data_image0
_chemical_formula_structural       COSn12Pd24Sn12Pd24
_chemical_formula_sum              "C1 O1 Sn24 Pd48"
_cell_length_a       8.81640072
_cell_length_b       14.235850565740373
_cell_length_c       100.3786064
_cell_angle_alpha    89.03790544708473
_cell_angle_beta     90.0
_cell_angle_gamma    90.0

_space_group_name_H-M_alt    "P 1"
_space_group_IT_number       1

loop_
  _space_group_symop_operation_xyz
  'x, y, z'

loop_
  _atom_site_type_symbol
  _atom_site_label
  _atom_site_symmetry_multiplicity
  _atom_site_fract_x
  _atom_site_fract_y
  _atom_site_fract_z
  _atom_site_occupancy
  C   C1        1.0  0.37682373  0.46459868  0.5467776429945745  1.0000
  O   O1        1.0  0.37683798  0.45338857  0.5586975710424036  1.0000
  Sn  Sn1       1.0  0.12686534000000002  0.23142972999999997  0.45047047343567415  1.0000
  Sn  Sn2       1.0  0.12686534000000002  0.8980964  0.48409716739381126  1.0000
  Sn  Sn3       1.0  0.1265505  0.56051251  0.5177324472558026  1.0000
  Sn  Sn4       1.0  0.37686534000000005  0.44177418999999996  0.4518190807532918  1.0000
  Sn  Sn5       1.0  0.37686534000000005  0.10844086000000001  0.48544577471142886  1.0000
  Sn  Sn6       1.0  0.37691953  0.78319092  0.5208527862490773  1.0000
  Sn  Sn7       1.0  0.12309396000000002  0.30297358999999996  0.5168908591995528  1.0000
  Sn  Sn8       1.0  0.12686534000000002  0.9726673499999999  0.44870257621196746  1.0000
  Sn  Sn9       1.0  0.12686534000000002  0.63933402  0.48232927017010446  1.0000
  Sn  Sn10      1.0  0.37686534000000005  0.36720323999999993  0.4872136719351356  1.0000
  Sn  Sn11      1.0  0.37675985000000006  0.03085943  0.523322633318307  1.0000
  Sn  Sn12      1.0  0.37686534000000005  0.70053657  0.45358697797699854  1.0000
  Pd  Pd1       1.0  0.12686534000000002  0.58410233  0.4555788713543408  1.0000
  Pd  Pd2       1.0  0.12686534000000002  0.25076899999999996  0.4892055683388804  1.0000
  Pd  Pd3       1.0  0.12816608000000002  0.91622243  0.5211632194841297  1.0000
  Pd  Pd4       1.0  0.37686534000000005  0.08910159999999999  0.44671068283462506  1.0000
  Pd  Pd5       1.0  0.37686534000000005  0.75576826  0.4803373767927622  1.0000
  Pd  Pd6       1.0  0.37685067  0.41824131  0.5127912762329299  1.0000
  Pd  Pd7       1.0  0.12686534000000002  0.38979933999999994  0.46681630932463497  1.0000
  Pd  Pd8       1.0  0.12686534000000002  0.056466  0.5004430032827721  1.0000
  Pd  Pd9       1.0  0.12733388  0.71496452  0.5322294811033851  1.0000
  Pd  Pd10      1.0  0.37684597999999997  0.26914153  0.5336089153567302  1.0000
  Pd  Pd11      1.0  0.37686534000000005  0.95007126  0.4690999388224681  1.0000
  Pd  Pd12      1.0  0.37686534000000005  0.6167379199999999  0.5027266327806051  1.0000
  Pd  Pd13      1.0  0.16729354000000002  0.4281208999999999  0.5368011102242418  1.0000
  Pd  Pd14      1.0  0.12686534000000002  0.0924817  0.46968517848250174  1.0000
  Pd  Pd15      1.0  0.12686534000000002  0.75914836  0.5033118724406389  1.0000
  Pd  Pd16      1.0  0.37686534000000005  0.2473889  0.46623106966460126  1.0000
  Pd  Pd17      1.0  0.37686534000000005  0.91405556  0.49985776362273837  1.0000
  Pd  Pd18      1.0  0.37683442  0.58101243  0.5338482402389598  1.0000
  Pd  Pd19      1.0  0.12554624  0.13070266  0.5272983214199377  1.0000
  Pd  Pd20      1.0  0.12686534000000002  0.79937085  0.4609871252313695  1.0000
  Pd  Pd21      1.0  0.12686534000000002  0.4660375199999999  0.4946138222159091  1.0000
  Pd  Pd22      1.0  0.37686534000000005  0.54049974  0.47492912291573364  1.0000
  Pd  Pd23      1.0  0.37686877  0.20060487999999996  0.5080728454066606  1.0000
  Pd  Pd24      1.0  0.37686534000000005  0.8738330799999999  0.44130242895759647  1.0000
  Sn  Sn13      1.0  0.62686534  0.23142972999999997  0.45047047343567415  1.0000
  Sn  Sn14      1.0  0.62686534  0.8980964  0.48409716739381126  1.0000
  Sn  Sn15      1.0  0.6272211099999999  0.56050481  0.5177281104210395  1.0000
  Sn  Sn16      1.0  0.8768653399999999  0.44177418999999996  0.4518190807532918  1.0000
  Sn  Sn17      1.0  0.8768653399999999  0.10844086000000001  0.48544577471142886  1.0000
  Sn  Sn18      1.0  0.8768069999999999  0.78281581  0.5208197742507545  1.0000
  Sn  Sn19      1.0  0.63067782  0.30292988  0.5168974900474006  1.0000
  Sn  Sn20      1.0  0.62686534  0.9726673499999999  0.44870257621196746  1.0000
  Sn  Sn21      1.0  0.62686534  0.63933402  0.48232927017010446  1.0000
  Sn  Sn22      1.0  0.8768653399999999  0.36720323999999993  0.4872136719351356  1.0000
  Sn  Sn23      1.0  0.8767865899999999  0.02733265  0.5232522149852512  1.0000
  Sn  Sn24      1.0  0.8768653399999999  0.70053657  0.45358697797699854  1.0000
  Pd  Pd25      1.0  0.62686534  0.58410233  0.4555788713543408  1.0000
  Pd  Pd26      1.0  0.62686534  0.25076899999999996  0.4892055683388804  1.0000
  Pd  Pd27      1.0  0.6254372899999999  0.91623938  0.5211617395733137  1.0000
  Pd  Pd28      1.0  0.8768653399999999  0.08910159999999999  0.44671068283462506  1.0000
  Pd  Pd29      1.0  0.8768653399999999  0.75576826  0.4803373767927622  1.0000
  Pd  Pd30      1.0  0.8768403699999999  0.4238871899999999  0.51312178964848  1.0000
  Pd  Pd31      1.0  0.62686534  0.38979933999999994  0.46681630932463497  1.0000
  Pd  Pd32      1.0  0.62686534  0.056466  0.5004430032827721  1.0000
  Pd  Pd33      1.0  0.62634769  0.71493243  0.5322302104663844  1.0000
  Pd  Pd34      1.0  0.8769060399999999  0.2878665899999999  0.5337677742496488  1.0000
  Pd  Pd35      1.0  0.8768653399999999  0.95007126  0.4690999388224681  1.0000
  Pd  Pd36      1.0  0.8768653399999999  0.6167379199999999  0.5027266327806051  1.0000
  Pd  Pd37      1.0  0.58635164  0.42810804999999996  0.5368044029501471  1.0000
  Pd  Pd38      1.0  0.62686534  0.0924817  0.46968517848250174  1.0000
  Pd  Pd39      1.0  0.62686534  0.75914836  0.5033118724406389  1.0000
  Pd  Pd40      1.0  0.8768653399999999  0.2473889  0.46623106966460126  1.0000
  Pd  Pd41      1.0  0.8768653399999999  0.91405556  0.49985776362273837  1.0000
  Pd  Pd42      1.0  0.87683234  0.57782367  0.5326811807537022  1.0000
  Pd  Pd43      1.0  0.62811121  0.13063924999999998  0.5272959245091684  1.0000
  Pd  Pd44      1.0  0.62686534  0.79937085  0.4609871252313695  1.0000
  Pd  Pd45      1.0  0.62686534  0.4660375199999999  0.4946138222159091  1.0000
  Pd  Pd46      1.0  0.8768653399999999  0.54049974  0.47492912291573364  1.0000
  Pd  Pd47      1.0  0.8768181300000001  0.19693119999999997  0.5085357911686176  1.0000
  Pd  Pd48      1.0  0.8768653399999999  0.8738330799999999  0.44130242895759647  1.0000
