data_image0
_chemical_formula_structural       COAl6Cr2Al6Cr2Al6Cr2Al6Cr2
_chemical_formula_sum              "C1 O1 Al24 Cr8"
_cell_length_a       7.56591824
_cell_length_b       7.56591824
_cell_length_c       102.3768096
_cell_angle_alpha    90.0
_cell_angle_beta     90.0
_cell_angle_gamma    90.0

_space_group_name_H-M_alt    "P 1"
_space_group_IT_number       1

loop_
  _space_group_symop_operation_xyz
  'x, y, z'

loop_
  _atom_site_type_symbol
  _atom_site_label
  _atom_site_symmetry_multiplicity
  _atom_site_fract_x
  _atom_site_fract_y
  _atom_site_fract_z
  _atom_site_occupancy
  C   C1        1.0  0.38353418499999997  0.38319461  0.5335733279320554  1.0000
  O   O1        1.0  0.383501955  0.38319339  0.5449584226904033  1.0000
  Al  Al1       1.0  0.38343065499999995  0.38319905000000004  0.5139732234970285  1.0000
  Al  Al2       1.0  0.131105685  0.12997262  0.5145160816791492  1.0000
  Al  Al3       1.0  0.13346582499999998  0.38319878000000007  0.45504157730959655  1.0000
  Al  Al4       1.0  0.13346582499999998  0.13319878000000002  0.474807289953957  1.0000
  Al  Al5       1.0  0.383465825  0.38319878000000007  0.474807289953957  1.0000
  Al  Al6       1.0  0.38346011500000005  0.11677063000000001  0.49493547414307476  1.0000
  Cr  Cr1       1.0  0.383465825  0.13319878000000002  0.45504157730959655  1.0000
  Cr  Cr2       1.0  0.154111265  0.38320618  0.495078862528882  1.0000
  Al  Al7       1.0  0.38342909499999994  0.88318293  0.5160310713718581  1.0000
  Al  Al8       1.0  0.13110518499999999  0.6364244800000001  0.5145147597482876  1.0000
  Al  Al9       1.0  0.13346582499999998  0.88319878  0.45504157730959655  1.0000
  Al  Al10      1.0  0.13346582499999998  0.6331987800000001  0.474807289953957  1.0000
  Al  Al11      1.0  0.383465825  0.88319878  0.474807289953957  1.0000
  Al  Al12      1.0  0.38348662499999997  0.64962678  0.49493466137697084  1.0000
  Cr  Cr3       1.0  0.383465825  0.6331987800000001  0.45504157730959655  1.0000
  Cr  Cr4       1.0  0.11651539499999998  0.8831947400000001  0.49454839823921776  1.0000
  Al  Al13      1.0  0.8834846050000001  0.3831969800000001  0.5152884276913562  1.0000
  Al  Al14      1.0  0.635794975  0.12991902  0.5145155820019336  1.0000
  Al  Al15      1.0  0.633465825  0.38319878000000007  0.45504157730959655  1.0000
  Al  Al16      1.0  0.633465825  0.13319878000000002  0.474807289953957  1.0000
  Al  Al17      1.0  0.883465825  0.38319878000000007  0.474807289953957  1.0000
  Al  Al18      1.0  0.883457865  0.14696584  0.49477515049467385  1.0000
  Cr  Cr5       1.0  0.883465825  0.13319878000000002  0.45504157730959655  1.0000
  Cr  Cr6       1.0  0.612859475  0.38316146  0.4950736981434823  1.0000
  Al  Al19      1.0  0.8834792750000001  0.8832030900000001  0.5139655670505785  1.0000
  Al  Al20      1.0  0.635802215  0.6364770700000001  0.514515085487232  1.0000
  Al  Al21      1.0  0.633465825  0.88319878  0.45504157730959655  1.0000
  Al  Al22      1.0  0.633465825  0.6331987800000001  0.474807289953957  1.0000
  Al  Al23      1.0  0.883465825  0.88319878  0.474807289953957  1.0000
  Al  Al24      1.0  0.883433365  0.6194363600000001  0.4947748595433837  1.0000
  Cr  Cr7       1.0  0.883465825  0.6331987800000001  0.45504157730959655  1.0000
  Cr  Cr8       1.0  0.650444365  0.8832293700000001  0.49454768034853447  1.0000
