data_image0
_chemical_formula_structural       COGa6As6Ga6As6
_chemical_formula_sum              "C1 O1 Ga12 As12"
_cell_length_a       6.75822465
_cell_length_b       10.850767214811267
_cell_length_c       98.70843157
_cell_angle_alpha    79.10660532960733
_cell_angle_beta     90.0
_cell_angle_gamma    90.0

_space_group_name_H-M_alt    "P 1"
_space_group_IT_number       1

loop_
  _space_group_symop_operation_xyz
  'x, y, z'

loop_
  _atom_site_type_symbol
  _atom_site_label
  _atom_site_symmetry_multiplicity
  _atom_site_fract_x
  _atom_site_fract_y
  _atom_site_fract_z
  _atom_site_occupancy
  C   C1        1.0  0.068275125  0.825413885  0.5340785941976882  1.0000
  O   O1        1.0  0.06856659500000001  0.813579615  0.5459016360329408  1.0000
  Ga  Ga1       1.0  0.021575465000000002  0.5532826349999999  0.458714884574583  1.0000
  Ga  Ga2       1.0  0.021575465000000002  0.21994929499999996  0.4864139994945031  1.0000
  Ga  Ga3       1.0  0.021575465000000002  0.8866159649999998  0.4725644434887466  1.0000
  Ga  Ga4       1.0  0.5215754650000001  0.7755048549999999  0.4540983639670594  1.0000
  Ga  Ga5       1.0  0.5215754650000001  0.44217151499999996  0.4817974817953867  1.0000
  Ga  Ga6       1.0  0.5215754650000001  0.10883818499999996  0.46794792288122306  1.0000
  As  As1       1.0  0.647553305  0.5532826349999999  0.458714884574583  1.0000
  As  As2       1.0  0.647553305  0.21994929499999996  0.4864139994945031  1.0000
  As  As3       1.0  0.647553305  0.8866159649999998  0.4725644434887466  1.0000
  As  As4       1.0  0.14755330500000002  0.7755048549999999  0.4540983639670594  1.0000
  As  As5       1.0  0.14755330500000002  0.44217151499999996  0.4817974817953867  1.0000
  As  As6       1.0  0.14755330500000002  0.10883818499999996  0.46794792288122306  1.0000
  Ga  Ga7       1.0  0.024308975000000003  0.552190615  0.5010516146139594  1.0000
  Ga  Ga8       1.0  0.975583395  0.254321975  0.5224123155119468  1.0000
  Ga  Ga9       1.0  0.978424535  0.902900525  0.5106578044761735  1.0000
  Ga  Ga10      1.0  0.5215754650000001  0.7755048549999999  0.49564704070955035  1.0000
  Ga  Ga11      1.0  0.476975085  0.405579165  0.5191560947735765  1.0000
  Ga  Ga12      1.0  0.528122635  0.09709947499999996  0.5099559592778905  1.0000
  As  As7       1.0  0.6475784049999999  0.552891765  0.5004401016357258  1.0000
  As  As8       1.0  0.632046625  0.20482810499999995  0.5295511144774055  1.0000
  As  As9       1.0  0.623737805  0.8705555150000001  0.5159358713914491  1.0000
  As  As10      1.0  0.14755330500000002  0.7755048549999999  0.49564704070955035  1.0000
  As  As11      1.0  0.13389487500000002  0.452068255  0.525083152402607  1.0000
  As  As12      1.0  0.14891584500000002  0.10816060499999997  0.5099443460078348  1.0000
