data_image0
_chemical_formula_structural       COAs12Ru6
_chemical_formula_sum              "C1 O1 As12 Ru6"
_cell_length_a       6.964995697901597
_cell_length_b       6.288686786763927
_cell_length_c       105.53015163
_cell_angle_alpha    112.33638616793196
_cell_angle_beta     119.21092449620424
_cell_angle_gamma    77.92965506696677

_space_group_name_H-M_alt    "P 1"
_space_group_IT_number       1

loop_
  _space_group_symop_operation_xyz
  'x, y, z'

loop_
  _atom_site_type_symbol
  _atom_site_label
  _atom_site_symmetry_multiplicity
  _atom_site_fract_x
  _atom_site_fract_y
  _atom_site_fract_z
  _atom_site_occupancy
  C   C1        1.0  0.6116662800000001  0.42391550000000006  0.5430886000438085  1.0000
  O   O1        1.0  0.71907114  0.47128106999999997  0.556394688363664  1.0000
  As  As1       1.0  0.05697360000000004  0.4835304099999999  0.46075397040166005  1.0000
  As  As2       1.0  0.39030693000000005  0.8168637400000001  0.48881084476696357  1.0000
  As  As3       1.0  0.7445258600000001  0.1346970799999999  0.5172802830917791  1.0000
  As  As4       1.0  0.45593911000000004  0.9549684599999999  0.47166218263481485  1.0000
  As  As5       1.0  0.7994044200000002  0.29982811999999986  0.500850633299194  1.0000
  As  As6       1.0  0.12260577000000006  0.62163512  0.44360531163633593  1.0000
  As  As7       1.0  0.9430264  0.7114248099999999  0.4932482725260368  1.0000
  As  As8       1.0  0.27776748000000007  0.045031539999999946  0.521808571347803  1.0000
  As  As9       1.0  0.6096930700000001  0.3780914799999999  0.4651914015275579  1.0000
  As  As10      1.0  0.9032196400000001  0.06040738999999993  0.46722475487574155  1.0000
  As  As11      1.0  0.24226696000000003  0.39231869999999996  0.4951323408690404  1.0000
  As  As12      1.0  0.55627981  0.70703111  0.5214691886889812  1.0000
  Ru  Ru1       1.0  0.7564563500000001  0.71924943  0.4662080782016497  1.0000
  Ru  Ru2       1.0  0.08978969000000002  0.05258276999999994  0.4942649492001287  1.0000
  Ru  Ru3       1.0  0.43760495  0.35278188  0.5215149606701589  1.0000
  Ru  Ru4       1.0  0.7324291100000001  0.7155073599999997  0.5071079644570055  1.0000
  Ru  Ru5       1.0  0.08978969000000002  0.05258276999999994  0.45217964101899794  1.0000
  Ru  Ru6       1.0  0.42312302  0.38591609999999993  0.48023651201747686  1.0000
