data_image0
_chemical_formula_structural       COAl16Pd8Al16Pd8
_chemical_formula_sum              "C1 O1 Al32 Pd16"
_cell_length_a       8.45890186
_cell_length_b       10.359996669144625
_cell_length_c       109.22231436
_cell_angle_alpha    95.05115255195899
_cell_angle_beta     90.0
_cell_angle_gamma    90.0

_space_group_name_H-M_alt    "P 1"
_space_group_IT_number       1

loop_
  _space_group_symop_operation_xyz
  'x, y, z'

loop_
  _atom_site_type_symbol
  _atom_site_label
  _atom_site_symmetry_multiplicity
  _atom_site_fract_x
  _atom_site_fract_y
  _atom_site_fract_z
  _atom_site_occupancy
  C   C1        1.0  0.5000001900000001  0.7964342799999999  0.5412793381038439  1.0000
  O   O1        1.0  0.50000027  0.8758273400000001  0.5496179827332649  1.0000
  Al  Al1       1.0  0.25000006  0.421875  0.4728260998872529  1.0000
  Al  Al2       1.0  0.25000006  0.10937500000000003  0.49527018250777066  1.0000
  Al  Al3       1.0  0.25264981000000003  0.80198558  0.5174954909840632  1.0000
  Al  Al4       1.0  0.25000006  0.734375  0.45038201726673516  1.0000
  Al  Al5       1.0  6.000000002862066e-08  0.578125  0.46160405857699405  1.0000
  Al  Al6       1.0  6.000000002862066e-08  0.26562500000000006  0.48404814119751177  1.0000
  Al  Al7       1.0  0.9999999400000001  0.95206157  0.5065312047007248  1.0000
  Al  Al8       1.0  9.000000002862065e-08  0.6411025  0.5273658957731162  1.0000
  Al  Al9       1.0  6.000000002862066e-08  0.765625  0.48404814119751177  1.0000
  Al  Al10      1.0  4.0000000028620655e-08  0.45043845  0.5061044439361452  1.0000
  Al  Al11      1.0  0.9999999700000001  0.15693977000000003  0.5249782116697215  1.0000
  Al  Al12      1.0  6.000000002862066e-08  0.07812500000000004  0.46160405857699405  1.0000
  Al  Al13      1.0  0.25000006  0.609375  0.49527018250777066  1.0000
  Al  Al14      1.0  0.24956646000000002  0.31426486000000003  0.5182105666384593  1.0000
  Al  Al15      1.0  0.25000006  0.23437500000000003  0.45038201726673516  1.0000
  Al  Al16      1.0  0.25000006  0.9218750000000001  0.4728260998872529  1.0000
  Pd  Pd1       1.0  0.9999999200000002  0.40177142  0.5287744504878477  1.0000
  Pd  Pd2       1.0  6.000000002862066e-08  0.328125  0.46160405857699405  1.0000
  Pd  Pd3       1.0  6.000000002862066e-08  0.01562500000000003  0.48404814119751177  1.0000
  Pd  Pd4       1.0  3.000000002862066e-08  0.70515114  0.5061030075148575  1.0000
  Pd  Pd5       1.0  0.25000006  0.671875  0.4728260998872529  1.0000
  Pd  Pd6       1.0  0.25000006  0.35937500000000006  0.49527018250777066  1.0000
  Pd  Pd7       1.0  0.25035500000000005  0.05294734000000004  0.5175080919898096  1.0000
  Pd  Pd8       1.0  0.25000006  0.984375  0.45038201726673516  1.0000
  Al  Al17      1.0  0.7500000600000001  0.421875  0.4728260998872529  1.0000
  Al  Al18      1.0  0.7500000600000001  0.10937500000000003  0.49527018250777066  1.0000
  Al  Al19      1.0  0.74735028  0.8019855700000001  0.517495505348276  1.0000
  Al  Al20      1.0  0.7500000600000001  0.734375  0.45038201726673516  1.0000
  Al  Al21      1.0  0.5000000600000001  0.578125  0.46160405857699405  1.0000
  Al  Al22      1.0  0.5000000600000001  0.26562500000000006  0.48404814119751177  1.0000
  Al  Al23      1.0  0.5000000400000001  0.95301832  0.506443529136376  1.0000
  Al  Al24      1.0  0.50000005  0.65146032  0.5280133195759144  1.0000
  Al  Al25      1.0  0.5000000600000001  0.765625  0.48404814119751177  1.0000
  Al  Al26      1.0  0.5000000400000001  0.45383304  0.5060161794390684  1.0000
  Al  Al27      1.0  0.49999994000000003  0.16196100000000002  0.52464072089712  1.0000
  Al  Al28      1.0  0.5000000600000001  0.07812500000000004  0.46160405857699405  1.0000
  Al  Al29      1.0  0.7500000600000001  0.609375  0.49527018250777066  1.0000
  Al  Al30      1.0  0.7504334500000001  0.31426486000000003  0.5182105666384593  1.0000
  Al  Al31      1.0  0.7500000600000001  0.23437500000000003  0.45038201726673516  1.0000
  Al  Al32      1.0  0.7500000600000001  0.9218750000000001  0.4728260998872529  1.0000
  Pd  Pd9       1.0  0.4999999  0.40808737  0.5282975909398059  1.0000
  Pd  Pd10      1.0  0.5000000600000001  0.328125  0.46160405857699405  1.0000
  Pd  Pd11      1.0  0.5000000600000001  0.01562500000000003  0.48404814119751177  1.0000
  Pd  Pd12      1.0  0.5000000700000001  0.70492939  0.5060526465845103  1.0000
  Pd  Pd13      1.0  0.7500000600000001  0.671875  0.4728260998872529  1.0000
  Pd  Pd14      1.0  0.7500000600000001  0.35937500000000006  0.49527018250777066  1.0000
  Pd  Pd15      1.0  0.7496448900000001  0.05294735000000003  0.5175081027629693  1.0000
  Pd  Pd16      1.0  0.7500000600000001  0.984375  0.45038201726673516  1.0000
