data_image0
_chemical_formula_structural       COIr8Sn16
_chemical_formula_sum              "C1 O1 Ir8 Sn16"
_cell_length_a       4.57242106
_cell_length_b       11.20009849
_cell_length_c       101.67866237
_cell_angle_alpha    90.0
_cell_angle_beta     90.0
_cell_angle_gamma    90.0

_space_group_name_H-M_alt    "P 1"
_space_group_IT_number       1

loop_
  _space_group_symop_operation_xyz
  'x, y, z'

loop_
  _atom_site_type_symbol
  _atom_site_label
  _atom_site_symmetry_multiplicity
  _atom_site_fract_x
  _atom_site_fract_y
  _atom_site_fract_z
  _atom_site_occupancy
  C   C1        1.0  0.12435362499999998  0.34508895500000003  0.548728955467677  1.0000
  O   O1        1.0  0.17754364499999997  0.33932343499999995  0.5600046544752546  1.0000
  Ir  Ir1       1.0  0.03387281499999997  0.363992825  0.5307673506717792  1.0000
  Ir  Ir2       1.0  0.0014512349999999791  0.37723771500000003  0.45297687009892235  1.0000
  Ir  Ir3       1.0  0.0014512349999999791  0.04390437499999997  0.47893992547840875  1.0000
  Ir  Ir4       1.0  0.998548765  0.7084766749999999  0.5055097405291397  1.0000
  Ir  Ir5       1.0  0.501451235  0.710571045  0.46595839778866555  1.0000
  Ir  Ir6       1.0  0.501451235  0.37723771500000003  0.4919214500525856  1.0000
  Ir  Ir7       1.0  0.506933895  0.03942895499999997  0.5176676869354212  1.0000
  Ir  Ir8       1.0  0.501451235  0.04390437499999997  0.43999534552474545  1.0000
  Sn  Sn1       1.0  0.0014512349999999791  0.627237715  0.45297687009892235  1.0000
  Sn  Sn2       1.0  0.0014512349999999791  0.29390437499999994  0.47893992547840875  1.0000
  Sn  Sn3       1.0  0.00462752499999998  0.9557667450000001  0.5044134692968425  1.0000
  Sn  Sn4       1.0  0.003441374999999979  0.6057378649999999  0.5305097618732664  1.0000
  Sn  Sn5       1.0  0.501451235  0.46057104499999996  0.46595839778866555  1.0000
  Sn  Sn6       1.0  0.501451235  0.12723771499999997  0.4919214500525856  1.0000
  Sn  Sn7       1.0  0.501543455  0.7953320650000001  0.5188555277796719  1.0000
  Sn  Sn8       1.0  0.501451235  0.793904375  0.43999534552474545  1.0000
  Sn  Sn9       1.0  0.501451235  0.627237715  0.4919214500525856  1.0000
  Sn  Sn10      1.0  0.526688175  0.29192269499999995  0.5183608506095341  1.0000
  Sn  Sn11      1.0  0.501451235  0.29390437499999994  0.43999534552474545  1.0000
  Sn  Sn12      1.0  0.501451235  0.9605710450000001  0.46595839778866555  1.0000
  Sn  Sn13      1.0  0.0014512349999999791  0.793904375  0.47893992547840875  1.0000
  Sn  Sn14      1.0  0.004783444999999979  0.45634397499999996  0.5048155300247177  1.0000
  Sn  Sn15      1.0  0.00920059499999998  0.11158126499999996  0.5300941920494968  1.0000
  Sn  Sn16      1.0  0.0014512349999999791  0.12723771499999997  0.45297687009892235  1.0000
