data_image0
_chemical_formula_structural       COCu6Ti12
_chemical_formula_sum              "C1 O1 Cu6 Ti12"
_cell_length_a       5.801900206855205
_cell_length_b       6.603642665411191
_cell_length_c       101.51253986
_cell_angle_alpha    91.20075546759405
_cell_angle_beta     92.3501152405064
_cell_angle_gamma    109.9655974694555

_space_group_name_H-M_alt    "P 1"
_space_group_IT_number       1

loop_
  _space_group_symop_operation_xyz
  'x, y, z'

loop_
  _atom_site_type_symbol
  _atom_site_label
  _atom_site_symmetry_multiplicity
  _atom_site_fract_x
  _atom_site_fract_y
  _atom_site_fract_z
  _atom_site_occupancy
  C   C1        1.0  0.03891421000000004  0.44398418  0.5363695171438153  1.0000
  O   O1        1.0  0.19124255000000004  0.38552175000000005  0.5436006926740857  1.0000
  Cu  Cu1       1.0  0.56307248  0.9857375199999999  0.4908344558504817  1.0000
  Cu  Cu2       1.0  0.4797391400000001  0.15240419000000002  0.464965285381113  1.0000
  Cu  Cu3       1.0  0.5214058100000001  0.5690708500000001  0.47789987061579736  1.0000
  Cu  Cu4       1.0  0.6937502400000001  0.21954285  0.5287375050577898  1.0000
  Cu  Cu5       1.0  0.5940297800000002  0.3966718900000001  0.5036777560332503  1.0000
  Cu  Cu6       1.0  0.6490180499999999  0.8276154499999999  0.5163370860727932  1.0000
  Ti  Ti1       1.0  0.1828253  0.76608943  0.47353126343631174  1.0000
  Ti  Ti2       1.0  0.22449197000000004  0.18275609  0.4864658486709961  1.0000
  Ti  Ti3       1.0  0.14115864000000003  0.34942276000000005  0.46059668130592757  1.0000
  Ti  Ti4       1.0  0.77665298  0.5387189499999999  0.45639930732591416  1.0000
  Ti  Ti5       1.0  0.8183196500000001  0.9553856100000001  0.46933389256059854  1.0000
  Ti  Ti6       1.0  0.8599863100000001  0.37205228  0.4822684746909828  1.0000
  Ti  Ti7       1.0  0.30526147000000003  0.014262480000000046  0.5117619746348724  1.0000
  Ti  Ti8       1.0  0.34064355  0.43553931  0.5257089839221866  1.0000
  Ti  Ti9       1.0  0.26580864000000004  0.60481324  0.49973960043350385  1.0000
  Ti  Ti10      1.0  0.9016529800000002  0.7887189499999999  0.49520305992566716  1.0000
  Ti  Ti11      1.0  0.9555950900000002  0.20909862999999998  0.5081024579174941  1.0000
  Ti  Ti12      1.0  0.96108579  0.5992096600000001  0.5209053649459563  1.0000
