data_image0
_chemical_formula_structural       COGe8Mo4
_chemical_formula_sum              "C1 O1 Ge8 Mo4"
_cell_length_a       4.788013986293204
_cell_length_b       4.74967452
_cell_length_c       98.94804185
_cell_angle_alpha    90.0
_cell_angle_beta     94.21310413153812
_cell_angle_gamma    90.0

_space_group_name_H-M_alt    "P 1"
_space_group_IT_number       1

loop_
  _space_group_symop_operation_xyz
  'x, y, z'

loop_
  _atom_site_type_symbol
  _atom_site_label
  _atom_site_symmetry_multiplicity
  _atom_site_fract_x
  _atom_site_fract_y
  _atom_site_fract_z
  _atom_site_occupancy
  C   C1        1.0  0.14069399  0.2674524450000001  0.5414564671141869  1.0000
  O   O1        1.0  0.0767733  0.27747331500000005  0.5526742674236949  1.0000
  Ge  Ge1       1.0  0.13751240999999997  0.24792261500000004  0.4682227326076977  1.0000
  Ge  Ge2       1.0  0.35179812999999993  0.7479226150000001  0.4473257325763054  1.0000
  Ge  Ge3       1.0  0.6304142699999998  0.24792261500000004  0.45473585825255974  1.0000
  Ge  Ge4       1.0  0.41612855  0.7479226150000001  0.475632858283952  1.0000
  Ge  Ge5       1.0  0.7218153799999999  0.24947237500000002  0.5105313217244871  1.0000
  Ge  Ge6       1.0  0.9232267  0.7479226150000001  0.48911973263909  1.0000
  Ge  Ge7       1.0  0.19932078  0.24861176500000007  0.4953465811286812  1.0000
  Ge  Ge8       1.0  0.14538812  0.7520773850000001  0.5234789677903305  1.0000
  Mo  Mo1       1.0  0.66967763  0.24792261500000004  0.482376293998731  1.0000
  Mo  Mo2       1.0  0.88396334  0.7479226150000001  0.4614792939673387  1.0000
  Mo  Mo3       1.0  0.24402058  0.25212453500000004  0.5220230089883241  1.0000
  Mo  Mo4       1.0  0.4417589599999999  0.749100935  0.5024280412895085  1.0000
