data_image0
_chemical_formula_structural       COZn4Sn4As8
_chemical_formula_sum              "C1 O1 Zn4 Sn4 As8"
_cell_length_a       6.00615414
_cell_length_b       6.00615414
_cell_length_c       106.15093327
_cell_angle_alpha    90.0
_cell_angle_beta     90.0
_cell_angle_gamma    90.0

_space_group_name_H-M_alt    "P 1"
_space_group_IT_number       1

loop_
  _space_group_symop_operation_xyz
  'x, y, z'

loop_
  _atom_site_type_symbol
  _atom_site_label
  _atom_site_symmetry_multiplicity
  _atom_site_fract_x
  _atom_site_fract_y
  _atom_site_fract_z
  _atom_site_occupancy
  C   C1        1.0  0.30910576  0.12313671999999999  0.553228479481798  1.0000
  O   O1        1.0  0.31492931  0.17787817999999997  0.5638325056211906  1.0000
  Zn  Zn1       1.0  0.8087657600000001  0.9605244700000002  0.5188899208833031  1.0000
  Zn  Zn2       1.0  0.88144206  0.53947553  0.4929277612779096  1.0000
  Zn  Zn3       1.0  0.38144206  0.53947553  0.46454762782835946  1.0000
  Zn  Zn4       1.0  0.38144206  0.03947552999999998  0.4361674943788093  1.0000
  Sn  Sn1       1.0  0.88144206  0.03947552999999998  0.46454762782835946  1.0000
  Sn  Sn2       1.0  0.38144206  0.03947552999999998  0.4929277612779096  1.0000
  Sn  Sn3       1.0  0.37261445  0.50500371  0.5226606940083274  1.0000
  Sn  Sn4       1.0  0.88144206  0.53947553  0.4361674943788093  1.0000
  As  As1       1.0  0.11855794  0.7713946799999999  0.5074824519986106  1.0000
  As  As2       1.0  0.65828472  0.28570663  0.5072146888344197  1.0000
  As  As3       1.0  0.6314420600000001  0.7659046199999999  0.47873769625594254  1.0000
  As  As4       1.0  0.13144206  0.31304644  0.47873769625594254  1.0000
  As  As5       1.0  0.6078711500000001  0.28947553  0.45035755940077626  1.0000
  As  As6       1.0  0.15501297  0.7894755299999999  0.45035755940077626  1.0000
  As  As7       1.0  0.26851794  0.05040729999999999  0.5362744436372818  1.0000
  As  As8       1.0  0.6037597000000001  0.80262824  0.5372566131181425  1.0000
