data_image0
_chemical_formula_structural       COZn16As16Zn16As16
_chemical_formula_sum              "C1 O1 Zn32 As32"
_cell_length_a       7.41807053
_cell_length_b       16.537753221623785
_cell_length_c       104.8683997
_cell_angle_alpha    110.57309314676942
_cell_angle_beta     90.0
_cell_angle_gamma    90.0

_space_group_name_H-M_alt    "P 1"
_space_group_IT_number       1

loop_
  _space_group_symop_operation_xyz
  'x, y, z'

loop_
  _atom_site_type_symbol
  _atom_site_label
  _atom_site_symmetry_multiplicity
  _atom_site_fract_x
  _atom_site_fract_y
  _atom_site_fract_z
  _atom_site_occupancy
  C   C1        1.0  0.44035064  0.2472812950000001  0.5549160638760009  1.0000
  O   O1        1.0  0.46214128  0.304010125  0.5649955392414445  1.0000
  Zn  Zn1       1.0  0.63581096  0.3066900850000001  0.4361370776105135  1.0000
  Zn  Zn2       1.0  0.63581096  0.8066900850000001  0.46384514043752734  1.0000
  Zn  Zn3       1.0  0.9027675000000001  0.17298310500000008  0.4564356171174661  1.0000
  Zn  Zn4       1.0  0.9027675000000001  0.6729831050000001  0.48414367661951274  1.0000
  Zn  Zn5       1.0  0.13581096  0.422983105  0.43819235958092767  1.0000
  Zn  Zn6       1.0  0.13581096  0.9229831050000001  0.4659004190829742  1.0000
  Zn  Zn7       1.0  0.4027675  0.05669008500000004  0.4456018795760216  1.0000
  Zn  Zn8       1.0  0.4027675  0.5566900850000001  0.4733099424030354  1.0000
  Zn  Zn9       1.0  0.4027675  0.17298310500000008  0.4797544504964811  1.0000
  Zn  Zn10      1.0  0.4027675  0.6729831050000001  0.4520463876694673  1.0000
  Zn  Zn11      1.0  0.13581096  0.3066900850000001  0.4594559109895285  1.0000
  Zn  Zn12      1.0  0.13581096  0.8066900850000001  0.48716397049157506  1.0000
  Zn  Zn13      1.0  0.9027675000000001  0.05669008500000004  0.477699168526067  1.0000
  Zn  Zn14      1.0  0.9027675000000001  0.5566900850000001  0.44999110902402045  1.0000
  Zn  Zn15      1.0  0.63581096  0.422983105  0.47028964853097305  1.0000
  Zn  Zn16      1.0  0.63581096  0.9229831050000001  0.4425815857039592  1.0000
  As  As1       1.0  0.09313782  0.04059304500000004  0.4544839444522536  1.0000
  As  As2       1.0  0.09313782  0.540593045  0.4821920039543001  1.0000
  As  As3       1.0  0.44544064  0.4390801450000001  0.4488584921720625  1.0000
  As  As4       1.0  0.44544064  0.9390801450000001  0.47656655167410905  1.0000
  As  As5       1.0  0.5931378200000001  0.18908014500000006  0.44755355556620147  1.0000
  As  As6       1.0  0.5931378200000001  0.6890801450000001  0.47526161506824793  1.0000
  As  As7       1.0  0.94544064  0.29059304500000005  0.48088706734843906  1.0000
  As  As8       1.0  0.94544064  0.7905930450000002  0.45317900452142523  1.0000
  As  As9       1.0  0.94544064  0.4390801450000001  0.461407583654741  1.0000
  As  As10      1.0  0.94544064  0.9390801450000001  0.48911564648175493  1.0000
  As  As11      1.0  0.5931378200000001  0.04059304500000004  0.4670330359349321  1.0000
  As  As12      1.0  0.5931378200000001  0.540593045  0.43932497643288554  1.0000
  As  As13      1.0  0.44544064  0.29059304500000005  0.46833797254079323  1.0000
  As  As14      1.0  0.44544064  0.7905930450000002  0.44062991303874666  1.0000
  As  As15      1.0  0.09313782  0.18908014500000006  0.4350044607585556  1.0000
  As  As16      1.0  0.09313782  0.6890801450000001  0.46271252358556936  1.0000
  Zn  Zn17      1.0  0.63581096  0.3066900850000001  0.49155319993957386  1.0000
  Zn  Zn18      1.0  0.61312657  0.8070715050000001  0.5190720588288711  1.0000
  Zn  Zn19      1.0  0.9027675000000001  0.17298310500000008  0.5118517394465265  1.0000
  Zn  Zn20      1.0  0.86213437  0.6412604350000001  0.5353916033499977  1.0000
  Zn  Zn21      1.0  0.13581096  0.422983105  0.49360847858502077  1.0000
  Zn  Zn22      1.0  0.15579640000000003  0.9163232350000001  0.5181820714887764  1.0000
  Zn  Zn23      1.0  0.4027675  0.05669008500000004  0.5010180019050819  1.0000
  Zn  Zn24      1.0  0.36506264  0.5792347550000001  0.5279677460960215  1.0000
  Zn  Zn25      1.0  0.38050774  0.17448367500000006  0.5336255868824212  1.0000
  Zn  Zn26      1.0  0.4027675  0.6729831050000001  0.5074625099985277  1.0000
  Zn  Zn27      1.0  0.13581096  0.3066900850000001  0.5148720333185889  1.0000
  Zn  Zn28      1.0  0.8781961  0.8149445450000001  0.5370534685427071  1.0000
  Zn  Zn29      1.0  0.8521467700000002  0.054376695000000044  0.5377646258429776  1.0000
  Zn  Zn30      1.0  0.9027675000000001  0.5566900850000001  0.5054072313530809  1.0000
  Zn  Zn31      1.0  0.64921945  0.4041422050000001  0.5218120479848971  1.0000
  Zn  Zn32      1.0  0.63581096  0.9229831050000001  0.49799770803301957  1.0000
  As  As17      1.0  0.09313782  0.04059304500000004  0.5099000634563468  1.0000
  As  As18      1.0  0.09346872999999999  0.5488526750000001  0.5399648763865051  1.0000
  As  As19      1.0  0.44544064  0.4390801450000001  0.5042746145011229  1.0000
  As  As20      1.0  0.46157521  0.9415919650000002  0.5335604906731457  1.0000
  As  As21      1.0  0.5931378200000001  0.18908014500000006  0.5029696745702945  1.0000
  As  As22      1.0  0.5704938500000001  0.7118003650000001  0.5347132335520085  1.0000
  As  As23      1.0  0.037367199999999996  0.16709288500000005  0.5335101506686287  1.0000
  As  As24      1.0  0.94544064  0.7905930450000002  0.5085951268504856  1.0000
  As  As25      1.0  0.9626328000000002  0.4448626550000001  0.5186344100115302  1.0000
  As  As26      1.0  0.73681317  0.9594069550000001  0.5496072981037499  1.0000
  As  As27      1.0  0.5757409  0.04263152500000004  0.5226616170228182  1.0000
  As  As28      1.0  0.5931378200000001  0.540593045  0.4947410954369787  1.0000
  As  As29      1.0  0.44389685000000006  0.29242195500000007  0.5240916854470407  1.0000
  As  As30      1.0  0.44544064  0.7905930450000002  0.49604603536780706  1.0000
  As  As31      1.0  0.09313782  0.18908014500000006  0.49042058308761594  1.0000
  As  As32      1.0  0.08590115000000001  0.6922941550000001  0.5192847137607659  1.0000
