data_image0
_chemical_formula_structural       COTi4Al12Ti4Al12Ti4Al12Ti4Al12
_chemical_formula_sum              "C1 O1 Ti16 Al48"
_cell_length_a       7.73586768
_cell_length_b       17.75861200607155
_cell_length_c       100.94347073
_cell_angle_alpha    102.58020669065125
_cell_angle_beta     90.0
_cell_angle_gamma    90.0

_space_group_name_H-M_alt    "P 1"
_space_group_IT_number       1

loop_
  _space_group_symop_operation_xyz
  'x, y, z'

loop_
  _atom_site_type_symbol
  _atom_site_label
  _atom_site_symmetry_multiplicity
  _atom_site_fract_x
  _atom_site_fract_y
  _atom_site_fract_z
  _atom_site_occupancy
  C   C1        1.0  0.62196039  0.28048244  0.5321777365670296  1.0000
  O   O1        1.0  0.62211809  0.27632329  0.5442145351316912  1.0000
  Ti  Ti1       1.0  0.12203279000000002  0.0030753899999999886  0.4893135582320325  1.0000
  Ti  Ti2       1.0  0.12203279000000002  0.50307539  0.470154647738476  1.0000
  Ti  Ti3       1.0  0.37203279000000006  0.25307539  0.4797341029852542  1.0000
  Ti  Ti4       1.0  0.37203279000000006  0.75307539  0.46057519249169776  1.0000
  Al  Al1       1.0  0.12203279000000002  0.25307539  0.46057519249169776  1.0000
  Al  Al2       1.0  0.12203279000000002  0.75307539  0.4797341029852542  1.0000
  Al  Al3       1.0  0.37203279000000006  0.12807538999999998  0.45578546486830873  1.0000
  Al  Al4       1.0  0.37203279000000006  0.62807539  0.4749443753618652  1.0000
  Al  Al5       1.0  0.12203279000000002  0.12807538999999998  0.47494437536186507  1.0000
  Al  Al6       1.0  0.12203279000000002  0.62807539  0.45578546486830873  1.0000
  Al  Al7       1.0  0.37203279000000006  0.0030753899999999886  0.47015464773847604  1.0000
  Al  Al8       1.0  0.37203279000000006  0.50307539  0.4893135582320324  1.0000
  Al  Al9       1.0  0.12203279000000002  0.37807539  0.48452383060864335  1.0000
  Al  Al10      1.0  0.12203279000000002  0.87807539  0.4653649201150869  1.0000
  Al  Al11      1.0  0.37203279000000006  0.37807539  0.4653649201150869  1.0000
  Al  Al12      1.0  0.37203279000000006  0.87807539  0.4845238306086433  1.0000
  Ti  Ti5       1.0  0.12203428000000001  0.99692461  0.5264447192191338  1.0000
  Ti  Ti6       1.0  0.12203174000000001  0.50279894  0.5081930796983563  1.0000
  Ti  Ti7       1.0  0.39043302  0.25553405  0.5187916418429591  1.0000
  Ti  Ti8       1.0  0.37196642  0.7519462  0.49931642540071824  1.0000
  Al  Al13      1.0  0.12203127000000001  0.24916501  0.49964052059605285  1.0000
  Al  Al14      1.0  0.12203291000000001  0.74737571  0.5178743193393789  1.0000
  Al  Al15      1.0  0.37203279000000006  0.12807538999999998  0.4941032858554215  1.0000
  Al  Al16      1.0  0.37056030000000006  0.62560143  0.513645031231173  1.0000
  Al  Al17      1.0  0.1220334  0.12694723  0.5145688800260236  1.0000
  Al  Al18      1.0  0.12203279000000002  0.62807539  0.49410328585542157  1.0000
  Al  Al19      1.0  0.37096783  0.006037339999999989  0.5085028562903444  1.0000
  Al  Al20      1.0  0.36609613  0.48582281  0.5267337520755525  1.0000
  Al  Al21      1.0  0.12203321000000002  0.37332752  0.5233988846756791  1.0000
  Al  Al22      1.0  0.12203299000000001  0.87662138  0.503893792594771  1.0000
  Al  Al23      1.0  0.36978986999999996  0.37550319  0.5034556635641787  1.0000
  Al  Al24      1.0  0.37206666  0.87960338  0.5229850797978494  1.0000
  Ti  Ti9       1.0  0.62203279  0.0030753899999999886  0.4893135582320325  1.0000
  Ti  Ti10      1.0  0.62203279  0.50307539  0.470154647738476  1.0000
  Ti  Ti11      1.0  0.87203279  0.25307539  0.4797341029852542  1.0000
  Ti  Ti12      1.0  0.87203279  0.75307539  0.46057519249169776  1.0000
  Al  Al25      1.0  0.62203279  0.25307539  0.46057519249169776  1.0000
  Al  Al26      1.0  0.62203279  0.75307539  0.4797341029852542  1.0000
  Al  Al27      1.0  0.87203279  0.12807538999999998  0.45578546486830873  1.0000
  Al  Al28      1.0  0.87203279  0.62807539  0.4749443753618652  1.0000
  Al  Al29      1.0  0.62203279  0.12807538999999998  0.47494437536186507  1.0000
  Al  Al30      1.0  0.62203279  0.62807539  0.45578546486830873  1.0000
  Al  Al31      1.0  0.87203279  0.0030753899999999886  0.47015464773847604  1.0000
  Al  Al32      1.0  0.87203279  0.50307539  0.4893135582320324  1.0000
  Al  Al33      1.0  0.62203279  0.37807539  0.48452383060864335  1.0000
  Al  Al34      1.0  0.62203279  0.87807539  0.4653649201150869  1.0000
  Al  Al35      1.0  0.87203279  0.37807539  0.4653649201150869  1.0000
  Al  Al36      1.0  0.87203279  0.87807539  0.4845238306086433  1.0000
  Ti  Ti13      1.0  0.62203063  0.99637769  0.5262626727843369  1.0000
  Ti  Ti14      1.0  0.62203293  0.50418742  0.5086276467043096  1.0000
  Ti  Ti15      1.0  0.8536351999999999  0.25553872  0.5187911881599585  1.0000
  Ti  Ti16      1.0  0.8720996  0.7519465300000001  0.4993164805783804  1.0000
  Al  Al37      1.0  0.62203513  0.25066996  0.4984085444082293  1.0000
  Al  Al38      1.0  0.62203267  0.7450825  0.5178384477280835  1.0000
  Al  Al39      1.0  0.87203279  0.12807538999999998  0.4941032858554215  1.0000
  Al  Al40      1.0  0.87350492  0.6256016600000001  0.5136449791189365  1.0000
  Al  Al41      1.0  0.62202729  0.12383037  0.5135429004438268  1.0000
  Al  Al42      1.0  0.62203279  0.62807539  0.49410328585542157  1.0000
  Al  Al43      1.0  0.87309657  0.006037989999999989  0.5085029329259864  1.0000
  Al  Al44      1.0  0.87796873  0.48581922  0.5267338195149174  1.0000
  Al  Al45      1.0  0.62203171  0.37922680000000003  0.5224856054685695  1.0000
  Al  Al46      1.0  0.62203221  0.87631756  0.5038737477762563  1.0000
  Al  Al47      1.0  0.87427691  0.37550317  0.5034555256200232  1.0000
  Al  Al48      1.0  0.8719987099999998  0.87960383  0.5229851564334913  1.0000
