data_image0
_chemical_formula_structural       COPt3RhPt3RhPt3RhPt3RhPt3RhPt3RhPt3RhPt3Rh
_chemical_formula_sum              "C1 O1 Pt24 Rh8"
_cell_length_a       7.90863042
_cell_length_b       7.90863042
_cell_length_c       101.63452168
_cell_angle_alpha    90.0
_cell_angle_beta     90.0
_cell_angle_gamma    90.0

_space_group_name_H-M_alt    "P 1"
_space_group_IT_number       1

loop_
  _space_group_symop_operation_xyz
  'x, y, z'

loop_
  _atom_site_type_symbol
  _atom_site_label
  _atom_site_symmetry_multiplicity
  _atom_site_fract_x
  _atom_site_fract_y
  _atom_site_fract_z
  _atom_site_occupancy
  C   C1        1.0  0.502658305  0.49888916499999997  0.5307790326374872  1.0000
  O   O1        1.0  0.5050103450000001  0.4975355249999999  0.5424906523867403  1.0000
  Pt  Pt1       1.0  0.374549155  0.12250860499999996  0.5150122300354735  1.0000
  Pt  Pt2       1.0  0.37579199499999993  0.375253705  0.4963377114450247  1.0000
  Pt  Pt3       1.0  0.126568305  0.12353237499999997  0.49605913274183605  1.0000
  Rh  Rh1       1.0  0.12245096500000001  0.3714624449999999  0.5148385451580236  1.0000
  Pt  Pt4       1.0  0.376623455  0.12393512499999998  0.4769629503096461  1.0000
  Pt  Pt5       1.0  0.376623455  0.373935125  0.45750934761325956  1.0000
  Pt  Pt6       1.0  0.126623455  0.12393512499999998  0.45750934761325956  1.0000
  Rh  Rh2       1.0  0.126623455  0.373935125  0.4769629503096461  1.0000
  Pt  Pt7       1.0  0.372915815  0.6269628149999998  0.5167454433206993  1.0000
  Pt  Pt8       1.0  0.3765567450000001  0.8712376749999999  0.4963471923528348  1.0000
  Pt  Pt9       1.0  0.128961135  0.623563075  0.49634475209291257  1.0000
  Rh  Rh3       1.0  0.12591505500000003  0.874054775  0.5149560916069563  1.0000
  Pt  Pt10      1.0  0.376623455  0.6239351249999999  0.4769629503096461  1.0000
  Pt  Pt11      1.0  0.376623455  0.8739351249999998  0.45750934761325956  1.0000
  Pt  Pt12      1.0  0.126623455  0.6239351249999999  0.45750934761325956  1.0000
  Rh  Rh4       1.0  0.126623455  0.8739351249999998  0.4769629503096461  1.0000
  Pt  Pt13      1.0  0.8738816849999999  0.12602109499999997  0.5149608818620843  1.0000
  Pt  Pt14      1.0  0.8750853449999999  0.3750807149999999  0.496180476534015  1.0000
  Pt  Pt15      1.0  0.625067705  0.12513325499999997  0.49618585817866495  1.0000
  Rh  Rh5       1.0  0.621295665  0.379353055  0.5161651252330957  1.0000
  Pt  Pt16      1.0  0.8766234549999998  0.12393512499999998  0.4769629503096461  1.0000
  Pt  Pt17      1.0  0.8766234549999998  0.373935125  0.45750934761325956  1.0000
  Pt  Pt18      1.0  0.6266234549999999  0.12393512499999998  0.45750934761325956  1.0000
  Rh  Rh6       1.0  0.6266234549999999  0.373935125  0.4769629503096461  1.0000
  Pt  Pt19      1.0  0.8775490349999999  0.625533455  0.5150004707217155  1.0000
  Pt  Pt20      1.0  0.8767304349999999  0.8736728749999999  0.4960551268559688  1.0000
  Pt  Pt21      1.0  0.624905135  0.624441095  0.4963329429779318  1.0000
  Rh  Rh7       1.0  0.6285332349999999  0.877491395  0.5148274643859277  1.0000
  Pt  Pt22      1.0  0.8766234549999998  0.6239351249999999  0.4769629503096461  1.0000
  Pt  Pt23      1.0  0.8766234549999998  0.8739351249999998  0.45750934761325956  1.0000
  Pt  Pt24      1.0  0.6266234549999999  0.6239351249999999  0.45750934761325956  1.0000
  Rh  Rh8       1.0  0.6266234549999999  0.8739351249999998  0.4769629503096461  1.0000
