data_image0
_chemical_formula_structural       COAu6Ga12
_chemical_formula_sum              "C1 O1 Au6 Ga12"
_cell_length_a       7.6651069515004195
_cell_length_b       6.25853361
_cell_length_c       103.70323497
_cell_angle_alpha    90.0
_cell_angle_beta     85.65224683648701
_cell_angle_gamma    114.09484255888475

_space_group_name_H-M_alt    "P 1"
_space_group_IT_number       1

loop_
  _space_group_symop_operation_xyz
  'x, y, z'

loop_
  _atom_site_type_symbol
  _atom_site_label
  _atom_site_symmetry_multiplicity
  _atom_site_fract_x
  _atom_site_fract_y
  _atom_site_fract_z
  _atom_site_occupancy
  C   C1        1.0  0.43439121999999997  0.23587437499999997  0.5381467655152986  1.0000
  O   O1        1.0  0.45745337999999997  0.24694634499999993  0.5493371027139723  1.0000
  Au  Au1       1.0  0.35416666999999996  0.697916665  0.47774597528870577  1.0000
  Au  Au2       1.0  0.5305741399999999  0.285685595  0.5038471595090902  1.0000
  Au  Au3       1.0  0.1875  0.11458333499999997  0.4506628972860277  1.0000
  Au  Au4       1.0  0.9375  0.9895833350000001  0.49128751591502945  1.0000
  Au  Au5       1.0  0.11802541000000001  0.5802264949999999  0.5178687466288902  1.0000
  Au  Au6       1.0  0.7708333399999999  0.40625000499999997  0.4642044379123515  1.0000
  Ga  Ga1       1.0  0.22957460999999998  0.378365315  0.4978566337462407  1.0000
  Ga  Ga2       1.0  0.43764049  0.965894995  0.5235208498187431  1.0000
  Ga  Ga3       1.0  0.06250000000000001  0.8020833350000001  0.4709752066005286  1.0000
  Ga  Ga4       1.0  0.22994727000000004  0.892977175  0.4979098097470413  1.0000
  Ga  Ga5       1.0  0.43573301  0.510301425  0.523531314720502  1.0000
  Ga  Ga6       1.0  0.06250000000000001  0.302083335  0.4709752066005286  1.0000
  Ga  Ga7       1.0  0.8213214300000001  0.6922571750000001  0.5135813998771377  1.0000
  Ga  Ga8       1.0  0.4791666700000001  0.5104166649999999  0.4574336659742048  1.0000
  Ga  Ga9       1.0  0.64583334  0.09375000500000008  0.48451674722685234  1.0000
  Ga  Ga10      1.0  0.82126667  0.17173262500000003  0.5135798528916604  1.0000
  Ga  Ga11      1.0  0.4791666700000001  0.01041666499999998  0.4574336659742048  1.0000
  Ga  Ga12      1.0  0.64583334  0.5937500050000001  0.48451674722685234  1.0000
