data_image0
_chemical_formula_structural       COSi3Sb3Pt15Si3Sb3Pt15
_chemical_formula_sum              "C1 O1 Si6 Sb6 Pt30"
_cell_length_a       10.831076319902083
_cell_length_b       8.05227822
_cell_length_c       103.15004094
_cell_angle_alpha    90.0
_cell_angle_beta     102.90911159890506
_cell_angle_gamma    90.0

_space_group_name_H-M_alt    "P 1"
_space_group_IT_number       1

loop_
  _space_group_symop_operation_xyz
  'x, y, z'

loop_
  _atom_site_type_symbol
  _atom_site_label
  _atom_site_symmetry_multiplicity
  _atom_site_fract_x
  _atom_site_fract_y
  _atom_site_fract_z
  _atom_site_occupancy
  C   C1        1.0  0.23573888999999995  0.39149609499999993  0.5375082682022878  1.0000
  O   O1        1.0  0.29151624  0.40355387499999995  0.5485220379321317  1.0000
  Si  Si1       1.0  0.8658913800000001  0.127188965  0.48089136628279927  1.0000
  Si  Si2       1.0  0.20274188999999998  0.128986525  0.5081283482471213  1.0000
  Si  Si3       1.0  0.5325580400000001  0.127188965  0.4541099585781391  1.0000
  Sb  Sb1       1.0  0.5325580400000001  0.37718896499999993  0.49428207174201394  1.0000
  Sb  Sb2       1.0  0.87536563  0.37694875499999997  0.520846537180513  1.0000
  Sb  Sb3       1.0  0.19922471  0.37718896499999993  0.46750066082358466  1.0000
  Pt  Pt1       1.0  0.7989375299999999  0.37718896499999993  0.4916500752317431  1.0000
  Pt  Pt2       1.0  0.13792254999999998  0.376774505  0.5198390398649773  1.0000
  Pt  Pt3       1.0  0.4656042000000001  0.37718896499999993  0.46486866752708295  1.0000
  Pt  Pt4       1.0  0.93284522  0.37718896499999993  0.47013265733385545  1.0000
  Pt  Pt5       1.0  0.26064099  0.376785025  0.49691955415605826  1.0000
  Pt  Pt6       1.0  0.5924146100000001  0.37744854499999997  0.5201296385040667  1.0000
  Pt  Pt7       1.0  0.63227087  0.127188965  0.47825937298629756  1.0000
  Pt  Pt8       1.0  0.96744196  0.140699995  0.5048254324542469  1.0000
  Pt  Pt9       1.0  0.29893752999999995  0.127188965  0.45147796206786833  1.0000
  Pt  Pt10      1.0  0.76617855  0.127188965  0.45674195187464084  1.0000
  Pt  Pt11      1.0  0.09951188999999999  0.127188965  0.48352336279307007  1.0000
  Pt  Pt12      1.0  0.42749852  0.12948898499999997  0.5108557551330406  1.0000
  Pt  Pt13      1.0  0.72267471  0.12281103499999997  0.511336538197155  1.0000
  Pt  Pt14      1.0  0.03255803999999999  0.127188965  0.45410995857813913  1.0000
  Pt  Pt15      1.0  0.36589138  0.127188965  0.48089136628279927  1.0000
  Si  Si4       1.0  0.8658913800000001  0.627188965  0.48089136628279927  1.0000
  Si  Si5       1.0  0.20180139999999996  0.624904545  0.5080855601259481  1.0000
  Si  Si6       1.0  0.5325580400000001  0.627188965  0.4541099585781391  1.0000
  Sb  Sb4       1.0  0.5325580400000001  0.877188965  0.49428207174201394  1.0000
  Sb  Sb5       1.0  0.8841615300000001  0.877038125  0.520124210448136  1.0000
  Sb  Sb6       1.0  0.19922471  0.877188965  0.46750066082358466  1.0000
  Pt  Pt16      1.0  0.7989375299999999  0.877188965  0.4916500752317431  1.0000
  Pt  Pt17      1.0  0.12124939  0.876898395  0.5157576206566777  1.0000
  Pt  Pt18      1.0  0.4656042000000001  0.877188965  0.46486866752708295  1.0000
  Pt  Pt19      1.0  0.93284522  0.877188965  0.47013265733385545  1.0000
  Pt  Pt20      1.0  0.26793859999999997  0.877041925  0.4966983472183637  1.0000
  Pt  Pt21      1.0  0.5871920100000001  0.876605905  0.5201043686380021  1.0000
  Pt  Pt22      1.0  0.63227087  0.627188965  0.47825937298629756  1.0000
  Pt  Pt23      1.0  0.96705147  0.614591275  0.5047373558995775  1.0000
  Pt  Pt24      1.0  0.29893752999999995  0.627188965  0.45147796206786833  1.0000
  Pt  Pt25      1.0  0.76617855  0.627188965  0.45674195187464084  1.0000
  Pt  Pt26      1.0  0.09951188999999999  0.627188965  0.48352336279307007  1.0000
  Pt  Pt27      1.0  0.42705181  0.624474195  0.5108466987318491  1.0000
  Pt  Pt28      1.0  0.7230878199999999  0.631222535  0.5113374444800279  1.0000
  Pt  Pt29      1.0  0.03255803999999999  0.627188965  0.45410995857813913  1.0000
  Pt  Pt30      1.0  0.36589138  0.627188965  0.48089136628279927  1.0000
