data_image0
_chemical_formula_structural       COGa12Ru4Ga12Ru4
_chemical_formula_sum              "C1 O1 Ga24 Ru8"
_cell_length_a       6.57786364
_cell_length_b       6.78062612
_cell_length_c       109.46718184
_cell_angle_alpha    90.0
_cell_angle_beta     90.0
_cell_angle_gamma    90.0

_space_group_name_H-M_alt    "P 1"
_space_group_IT_number       1

loop_
  _space_group_symop_operation_xyz
  'x, y, z'

loop_
  _atom_site_type_symbol
  _atom_site_label
  _atom_site_symmetry_multiplicity
  _atom_site_fract_x
  _atom_site_fract_y
  _atom_site_fract_z
  _atom_site_occupancy
  C   C1        1.0  0.7866374599999998  0.500000425  0.5574025351227719  1.0000
  O   O1        1.0  0.7024968599999999  0.500000335  0.5668665525360346  1.0000
  Ga  Ga1       1.0  0.9216579899999998  0.736366065  0.4633626439057364  1.0000
  Ga  Ga2       1.0  0.7320171099999999  0.23636606500000001  0.43331773333838564  1.0000
  Ga  Ga3       1.0  0.23201710999999997  0.263634125  0.4820120686600368  1.0000
  Ga  Ga4       1.0  0.23201710999999997  0.736366065  0.4820120686600368  1.0000
  Ga  Ga5       1.0  0.9216579899999998  0.263634125  0.4633626439057364  1.0000
  Ga  Ga6       1.0  0.07683754999999999  9.49999999868943e-08  0.44264244571553585  1.0000
  Ga  Ga7       1.0  0.7320171099999999  0.7636341249999999  0.43331773333838564  1.0000
  Ga  Ga8       1.0  0.5768375499999999  0.500000095  0.4726873562828866  1.0000
  Ga  Ga9       1.0  0.42165799  0.23636606500000001  0.45196715809268606  1.0000
  Ga  Ga10      1.0  0.42165799  0.7636341249999999  0.45196715809268606  1.0000
  Ga  Ga11      1.0  0.07683754999999999  0.500000095  0.44264244571553585  1.0000
  Ga  Ga12      1.0  0.5768375499999999  9.49999999868943e-08  0.4726873562828866  1.0000
  Ru  Ru1       1.0  0.9185911299999999  0.500000095  0.4821963581398464  1.0000
  Ru  Ru2       1.0  0.7350839699999998  9.49999999868943e-08  0.4521514439671062  1.0000
  Ru  Ru3       1.0  0.4185911299999999  9.49999999868943e-08  0.4331334474639654  1.0000
  Ru  Ru4       1.0  0.23508396999999998  0.500000095  0.46317835803131624  1.0000
  Ga  Ga13      1.0  0.9167288899999999  0.735982255  0.52354913634675  1.0000
  Ga  Ga14      1.0  0.7320171099999999  0.23636606500000001  0.49340755807847664  1.0000
  Ga  Ga15      1.0  0.21162428  0.264732435  0.5429564319824624  1.0000
  Ga  Ga16      1.0  0.21162413  0.735269835  0.5429564752471354  1.0000
  Ga  Ga17      1.0  0.9167376099999999  0.264010245  0.5235479249359074  1.0000
  Ga  Ga18      1.0  0.07683754999999999  9.49999999868943e-08  0.5027322704556269  1.0000
  Ga  Ga19      1.0  0.7320171099999999  0.7636341249999999  0.49340755807847664  1.0000
  Ga  Ga20      1.0  0.5778460499999999  0.5000012149999999  0.5333068163330336  1.0000
  Ga  Ga21      1.0  0.42165799  0.23636606500000001  0.512056982832777  1.0000
  Ga  Ga22      1.0  0.42165799  0.7636341249999999  0.512056982832777  1.0000
  Ga  Ga23      1.0  0.07683754999999999  0.500000095  0.5027322704556269  1.0000
  Ga  Ga24      1.0  0.54374638  0.999999905  0.5329520063555799  1.0000
  Ru  Ru5       1.0  0.9231624500000001  0.500000005  0.5420641413675917  1.0000
  Ru  Ru6       1.0  0.7350839699999998  9.49999999868943e-08  0.5122412687071972  1.0000
  Ru  Ru7       1.0  0.4185911299999999  9.49999999868943e-08  0.493223268598667  1.0000
  Ru  Ru8       1.0  0.24134594999999998  0.500000245  0.5230750096120859  1.0000
