data_image0
_chemical_formula_structural       COAl6Cu4Al6Cu4Al6Cu4Al6Cu4Al6Cu4Al6Cu4
_chemical_formula_sum              "C1 O1 Al36 Cu24"
_cell_length_a       10.990511758980901
_cell_length_b       8.36053902443617
_cell_length_c       107.62242562
_cell_angle_alpha    59.99999993841936
_cell_angle_beta     67.644475980286
_cell_angle_gamma    79.0369275034758

_space_group_name_H-M_alt    "P 1"
_space_group_IT_number       1

loop_
  _space_group_symop_operation_xyz
  'x, y, z'

loop_
  _atom_site_type_symbol
  _atom_site_label
  _atom_site_symmetry_multiplicity
  _atom_site_fract_x
  _atom_site_fract_y
  _atom_site_fract_z
  _atom_site_occupancy
  C   C1        1.0  0.5596839399999999  0.15513690500000002  0.557385777416736  1.0000
  O   O1        1.0  0.5397743199999999  0.096998765  0.5703010776593939  1.0000
  Al  Al1       1.0  0.03391575999999997  0.08058044500000001  0.50774606680448  1.0000
  Al  Al2       1.0  0.52142245  0.076075345  0.5285333762953045  1.0000
  Al  Al3       1.0  0.21332203999999996  0.42184803500000007  0.5254487879657622  1.0000
  Al  Al4       1.0  0.7099320699999999  0.41391377500000004  0.5073829077636928  1.0000
  Al  Al5       1.0  0.35789945999999995  0.247247115  0.5081092258452669  1.0000
  Al  Al6       1.0  0.85134767  0.243019205  0.5283351271509421  1.0000
  Cu  Cu1       1.0  0.45662618  0.412712855  0.51752226203818  1.0000
  Cu  Cu2       1.0  0.9660841  0.42173332500000005  0.5348183821083325  1.0000
  Cu  Cu3       1.0  0.10605219999999996  0.23987873500000004  0.5190827394993909  1.0000
  Cu  Cu4       1.0  0.6015999000000001  0.257313725  0.5363957127219297  1.0000
  Al  Al7       1.0  0.03391575999999997  0.08058044500000001  0.4689040740929367  1.0000
  Al  Al8       1.0  0.53391576  0.08058044500000001  0.4883250687008186  1.0000
  Al  Al9       1.0  0.20993206999999994  0.41391377500000004  0.4879619131558108  1.0000
  Al  Al10      1.0  0.7099320699999999  0.41391377500000004  0.46854091505214956  1.0000
  Al  Al11      1.0  0.35789945999999995  0.247247115  0.4692672331337237  1.0000
  Al  Al12      1.0  0.8578994600000001  0.247247115  0.4886882277416057  1.0000
  Cu  Cu5       1.0  0.45434991999999996  0.41391377500000004  0.4784682363241831  1.0000
  Cu  Cu6       1.0  0.9543499200000001  0.41391377500000004  0.497889230932065  1.0000
  Cu  Cu7       1.0  0.11348159999999996  0.247247115  0.47876090996535153  1.0000
  Cu  Cu8       1.0  0.6134816000000001  0.247247115  0.49818190457323336  1.0000
  Al  Al13      1.0  0.03391575999999997  0.08058044500000001  0.43006208138139346  1.0000
  Al  Al14      1.0  0.53391576  0.08058044500000001  0.4494830759892754  1.0000
  Al  Al15      1.0  0.20993206999999994  0.41391377500000004  0.4491199169484883  1.0000
  Al  Al16      1.0  0.7099320699999999  0.41391377500000004  0.4296989223406064  1.0000
  Al  Al17      1.0  0.35789945999999995  0.247247115  0.4304252404221805  1.0000
  Al  Al18      1.0  0.8578994600000001  0.247247115  0.4498462350300624  1.0000
  Cu  Cu9       1.0  0.45434991999999996  0.41391377500000004  0.4396262401168606  1.0000
  Cu  Cu10      1.0  0.9543499200000001  0.41391377500000004  0.4590472382205218  1.0000
  Cu  Cu11      1.0  0.11348159999999996  0.247247115  0.4399189172538083  1.0000
  Cu  Cu12      1.0  0.6134816000000001  0.247247115  0.4593399118616902  1.0000
  Al  Al19      1.0  0.03391575999999997  0.580580445  0.5077460668044799  1.0000
  Al  Al20      1.0  0.5197304399999999  0.5785862850000001  0.5283862913779332  1.0000
  Al  Al21      1.0  0.21302245  0.9223941950000001  0.5253267398203033  1.0000
  Al  Al22      1.0  0.7099320699999999  0.913913775  0.5073829077636928  1.0000
  Al  Al23      1.0  0.35789945999999995  0.747247115  0.508109225845267  1.0000
  Al  Al24      1.0  0.85046272  0.7395459150000001  0.5289005869443918  1.0000
  Cu  Cu13      1.0  0.45509586999999996  0.9136906250000001  0.5175879477327113  1.0000
  Cu  Cu14      1.0  0.96608424  0.9239246550000001  0.5348138690571543  1.0000
  Cu  Cu15      1.0  0.10540458999999996  0.738970725  0.5191792649596038  1.0000
  Cu  Cu16      1.0  0.6080347799999999  0.761165745  0.5352005057522505  1.0000
  Al  Al25      1.0  0.03391575999999997  0.580580445  0.4689040740929367  1.0000
  Al  Al26      1.0  0.53391576  0.580580445  0.48832506870081854  1.0000
  Al  Al27      1.0  0.20993206999999994  0.913913775  0.4879619131558109  1.0000
  Al  Al28      1.0  0.7099320699999999  0.913913775  0.4685409150521496  1.0000
  Al  Al29      1.0  0.35789945999999995  0.747247115  0.4692672331337237  1.0000
  Al  Al30      1.0  0.8578994600000001  0.747247115  0.4886882277416057  1.0000
  Cu  Cu17      1.0  0.45434991999999996  0.913913775  0.4784682363241831  1.0000
  Cu  Cu18      1.0  0.9543499200000001  0.913913775  0.49788923093206505  1.0000
  Cu  Cu19      1.0  0.11348159999999996  0.747247115  0.47876090996535153  1.0000
  Cu  Cu20      1.0  0.6134816000000001  0.747247115  0.49818190457323336  1.0000
  Al  Al31      1.0  0.03391575999999997  0.580580445  0.43006208138139346  1.0000
  Al  Al32      1.0  0.53391576  0.580580445  0.4494830759892754  1.0000
  Al  Al33      1.0  0.20993206999999994  0.913913775  0.4491199169484883  1.0000
  Al  Al34      1.0  0.7099320699999999  0.913913775  0.4296989223406064  1.0000
  Al  Al35      1.0  0.35789945999999995  0.747247115  0.43042524042218056  1.0000
  Al  Al36      1.0  0.8578994600000001  0.747247115  0.44984623503006255  1.0000
  Cu  Cu21      1.0  0.45434991999999996  0.913913775  0.4396262401168606  1.0000
  Cu  Cu22      1.0  0.9543499200000001  0.913913775  0.4590472382205218  1.0000
  Cu  Cu23      1.0  0.11348159999999996  0.747247115  0.4399189172538084  1.0000
  Cu  Cu24      1.0  0.6134816000000001  0.747247115  0.4593399118616902  1.0000
