data_image0
_chemical_formula_structural       Rh6W2Rh6W2CO
_chemical_formula_sum              "Rh12 W4 C1 O1"
_cell_length_a       5.51790027
_cell_length_b       5.51790027304645
_cell_length_c       100.71384127
_cell_angle_alpha    90.0
_cell_angle_beta     90.0
_cell_angle_gamma    120.00000004168643

_space_group_name_H-M_alt    "P 1"
_space_group_IT_number       1

loop_
  _space_group_symop_operation_xyz
  'x, y, z'

loop_
  _atom_site_type_symbol
  _atom_site_label
  _atom_site_symmetry_multiplicity
  _atom_site_fract_x
  _atom_site_fract_y
  _atom_site_fract_z
  _atom_site_occupancy
  Rh  Rh1       1.0  0.8301336300000002  0.6661956550000001  0.4516849951836066  1.0000
  Rh  Rh2       1.0  0.16452839000000005  0.8333930250000001  0.4734679570233966  1.0000
  Rh  Rh3       1.0  0.66293626  0.8333930250000001  0.4734679570233966  1.0000
  Rh  Rh4       1.0  0.33172576  0.16778778500000008  0.4516849951836066  1.0000
  Rh  Rh5       1.0  0.8301336300000002  0.16778778500000008  0.4516849951836066  1.0000
  Rh  Rh6       1.0  0.16452838999999997  0.3349851550000001  0.4734679570233966  1.0000
  W   W1        1.0  0.33066433999999995  0.6672570750000001  0.4516849951836066  1.0000
  W   W2        1.0  0.6639976799999999  0.33392373500000005  0.4734679570233966  1.0000
  Rh  Rh7       1.0  0.8323708499999998  0.6688159250000001  0.4953486712133756  1.0000
  Rh  Rh8       1.0  0.17208284999999993  0.8315508450000001  0.5167039093408136  1.0000
  Rh  Rh9       1.0  0.65868594  0.836631255  0.5167308404883932  1.0000
  Rh  Rh10      1.0  0.32762221  0.16336874500000007  0.49528174131914726  1.0000
  Rh  Rh11      1.0  0.83547161  0.16450502500000008  0.4952920307192077  1.0000
  Rh  Rh12      1.0  0.17407282999999996  0.34581964500000006  0.5165738432730669  1.0000
  W   W3        1.0  0.3331733  0.6682981950000001  0.4957355727831049  1.0000
  W   W4        1.0  0.6667001899999999  0.3345439150000001  0.5167655938977259  1.0000
  C   C1        1.0  0.68954734  0.39992595500000006  0.536857196719995  1.0000
  O   O1        1.0  0.7015609799999999  0.43649890500000005  0.5483150048163934  1.0000
