data_image0
_chemical_formula_structural       COGa4Cu12Ga4Cu12Ga4Cu12Ga4Cu12
_chemical_formula_sum              "C1 O1 Ga16 Cu48"
_cell_length_a       9.1903814
_cell_length_b       8.59961534
_cell_length_c       101.83641505
_cell_angle_alpha    90.0
_cell_angle_beta     90.0
_cell_angle_gamma    90.0

_space_group_name_H-M_alt    "P 1"
_space_group_IT_number       1

loop_
  _space_group_symop_operation_xyz
  'x, y, z'

loop_
  _atom_site_type_symbol
  _atom_site_label
  _atom_site_symmetry_multiplicity
  _atom_site_fract_x
  _atom_site_fract_y
  _atom_site_fract_z
  _atom_site_occupancy
  C   C1        1.0  0.375584975  0.375697405  0.5492379870838331  1.0000
  O   O1        1.0  0.332678115  0.37568685499999993  0.5599495484298419  1.0000
  Ga  Ga1       1.0  0.333492295  0.125693695  0.4921542983144886  1.0000
  Ga  Ga2       1.0  0.8273986750000001  0.126140465  0.5201008926989896  1.0000
  Ga  Ga3       1.0  0.666825635  0.375693695  0.4921542983144886  1.0000
  Ga  Ga4       1.0  0.16932046500000003  0.3757058850000001  0.519151722095266  1.0000
  Cu  Cu1       1.0  0.417560665  0.3757106049999999  0.531305923344791  1.0000
  Cu  Cu2       1.0  0.916779275  0.375679825  0.5045496976589334  1.0000
  Cu  Cu3       1.0  0.416650805  0.375689355  0.5059718201088581  1.0000
  Cu  Cu4       1.0  0.921800455  0.37575350500000004  0.529817818664864  1.0000
  Cu  Cu5       1.0  0.16550889500000004  0.375693695  0.4921542983144886  1.0000
  Cu  Cu6       1.0  0.6656561550000001  0.375702505  0.5185013003716472  1.0000
  Cu  Cu7       1.0  0.583362475  0.12668176500000003  0.5048508818729326  1.0000
  Cu  Cu8       1.0  0.07819954500000001  0.126884095  0.5298209480220245  1.0000
  Cu  Cu9       1.0  0.572397135  0.12428507500000002  0.5294739207576722  1.0000
  Cu  Cu10      1.0  0.08112098500000002  0.125134875  0.5045029104868394  1.0000
  Cu  Cu11      1.0  0.834809035  0.125693695  0.4921542983144886  1.0000
  Cu  Cu12      1.0  0.329942485  0.125540335  0.518261543469186  1.0000
  Ga  Ga5       1.0  0.333492295  0.125693695  0.44005045157015815  1.0000
  Ga  Ga6       1.0  0.8334922950000001  0.125693695  0.4661023749423233  1.0000
  Ga  Ga7       1.0  0.666825635  0.375693695  0.44005045157015815  1.0000
  Ga  Ga8       1.0  0.166825635  0.375693695  0.4661023749423233  1.0000
  Cu  Cu13      1.0  0.417483995  0.375693695  0.47902542579554636  1.0000
  Cu  Cu14      1.0  0.9174839949999999  0.375693695  0.45297350242338114  1.0000
  Cu  Cu15      1.0  0.417483995  0.375693695  0.45317932408910033  1.0000
  Cu  Cu16      1.0  0.9174839949999999  0.375693695  0.4792312474612656  1.0000
  Cu  Cu17      1.0  0.16550889500000004  0.375693695  0.44005045157015815  1.0000
  Cu  Cu18      1.0  0.6655088950000001  0.375693695  0.4661023749423233  1.0000
  Cu  Cu19      1.0  0.582833935  0.125693695  0.45317932408910033  1.0000
  Cu  Cu20      1.0  0.08283393500000003  0.125693695  0.4792312474612656  1.0000
  Cu  Cu21      1.0  0.582833935  0.125693695  0.47902542579554636  1.0000
  Cu  Cu22      1.0  0.08283393500000003  0.125693695  0.45297350242338114  1.0000
  Cu  Cu23      1.0  0.834809035  0.125693695  0.44005045157015815  1.0000
  Cu  Cu24      1.0  0.33480903500000003  0.125693695  0.4661023749423233  1.0000
  Ga  Ga9       1.0  0.333492295  0.6256936949999999  0.4921542983144886  1.0000
  Ga  Ga10      1.0  0.8274593950000001  0.6253332149999999  0.5200892381100837  1.0000
  Ga  Ga11      1.0  0.666825635  0.8756936949999999  0.4921542983144886  1.0000
  Ga  Ga12      1.0  0.17093651500000004  0.8757116949999999  0.51994823259023  1.0000
  Cu  Cu25      1.0  0.424729595  0.8756783549999999  0.5295381272885066  1.0000
  Cu  Cu26      1.0  0.918036165  0.8757133949999999  0.5045323908445066  1.0000
  Cu  Cu27      1.0  0.416727765  0.875697455  0.5048104159397784  1.0000
  Cu  Cu28      1.0  0.921606135  0.875703005  0.5298599977725675  1.0000
  Cu  Cu29      1.0  0.16550889500000004  0.8756936949999999  0.4921542983144886  1.0000
  Cu  Cu30      1.0  0.669298095  0.8757149249999999  0.5182410541516727  1.0000
  Cu  Cu31      1.0  0.583351635  0.6247104349999999  0.5048496376330225  1.0000
  Cu  Cu32      1.0  0.07822909500000003  0.6245502749999999  0.5298210949548783  1.0000
  Cu  Cu33      1.0  0.5724926250000001  0.627114055  0.5294726827702241  1.0000
  Cu  Cu34      1.0  0.08113479500000002  0.6262582649999999  0.5045021601914162  1.0000
  Cu  Cu35      1.0  0.834809035  0.6256936949999999  0.4921542983144886  1.0000
  Cu  Cu36      1.0  0.329976025  0.6258517749999999  0.5182623125219947  1.0000
  Ga  Ga13      1.0  0.333492295  0.6256936949999999  0.44005045157015815  1.0000
  Ga  Ga14      1.0  0.8334922950000001  0.6256936949999999  0.4661023749423233  1.0000
  Ga  Ga15      1.0  0.666825635  0.8756936949999999  0.44005045157015815  1.0000
  Ga  Ga16      1.0  0.166825635  0.8756936949999999  0.4661023749423233  1.0000
  Cu  Cu37      1.0  0.417483995  0.8756936949999999  0.47902542579554636  1.0000
  Cu  Cu38      1.0  0.9174839949999999  0.8756936949999999  0.45297350242338114  1.0000
  Cu  Cu39      1.0  0.417483995  0.8756936949999999  0.45317932408910033  1.0000
  Cu  Cu40      1.0  0.9174839949999999  0.8756936949999999  0.4792312474612656  1.0000
  Cu  Cu41      1.0  0.16550889500000004  0.8756936949999999  0.44005045157015815  1.0000
  Cu  Cu42      1.0  0.6655088950000001  0.8756936949999999  0.4661023749423233  1.0000
  Cu  Cu43      1.0  0.582833935  0.6256936949999999  0.45317932408910033  1.0000
  Cu  Cu44      1.0  0.08283393500000003  0.6256936949999999  0.4792312474612656  1.0000
  Cu  Cu45      1.0  0.582833935  0.6256936949999999  0.47902542579554636  1.0000
  Cu  Cu46      1.0  0.08283393500000003  0.6256936949999999  0.45297350242338114  1.0000
  Cu  Cu47      1.0  0.834809035  0.6256936949999999  0.44005045157015815  1.0000
  Cu  Cu48      1.0  0.33480903500000003  0.6256936949999999  0.4661023749423233  1.0000
