data_image0
_chemical_formula_structural       COAu4Pb8
_chemical_formula_sum              "C1 O1 Au4 Pb8"
_cell_length_a       6.0865429651428276
_cell_length_b       6.086542965511363
_cell_length_c       106.9814738
_cell_angle_alpha    90.00900318243379
_cell_angle_beta     90.00900318243434
_cell_angle_gamma    76.66196078388242

_space_group_name_H-M_alt    "P 1"
_space_group_IT_number       1

loop_
  _space_group_symop_operation_xyz
  'x, y, z'

loop_
  _atom_site_type_symbol
  _atom_site_label
  _atom_site_symmetry_multiplicity
  _atom_site_fract_x
  _atom_site_fract_y
  _atom_site_fract_z
  _atom_site_occupancy
  C   C1        1.0  0.10824230500000012  0.33766187499999994  0.5370817182777035  1.0000
  O   O1        1.0  0.11553077500000011  0.37308516499999994  0.5478844947046035  1.0000
  Au  Au1       1.0  0.7299391449999999  0.7144692949999999  0.4560411877963055  1.0000
  Au  Au2       1.0  0.08256085500000014  0.11789289499999994  0.5003188337795859  1.0000
  Au  Au3       1.0  0.9174391450000001  0.9019692949999999  0.477646256696562  1.0000
  Au  Au4       1.0  0.3554793550000001  0.29453119499999997  0.5218452464018015  1.0000
  Pb  Pb1       1.0  0.25257197500000017  0.5554001749999999  0.4953256430959098  1.0000
  Pb  Pb2       1.0  0.8775719750000002  0.18040017499999994  0.4521155052953965  1.0000
  Pb  Pb3       1.0  0.26400826500000013  0.5668364649999998  0.45996687029721434  1.0000
  Pb  Pb4       1.0  0.6374335650000001  0.9503978750000001  0.503465202432802  1.0000
  Pb  Pb5       1.0  0.38337002500000017  0.049602124999999934  0.4737205741956532  1.0000
  Pb  Pb6       1.0  0.7699970250000001  0.438922165  0.5179757681913324  1.0000
  Pb  Pb7       1.0  0.7698063150000002  0.4360384149999999  0.48157193919747104  1.0000
  Pb  Pb8       1.0  0.19085905500000014  0.8376016849999999  0.5231804362030263  1.0000
