data_image0
_chemical_formula_structural       COAs16Rh8As16Rh8
_chemical_formula_sum              "C1 O1 As32 Rh16"
_cell_length_a       11.464845548639957
_cell_length_b       6.18674401
_cell_length_c       107.02906673
_cell_angle_alpha    90.0
_cell_angle_beta     95.1124975991745
_cell_angle_gamma    90.0

_space_group_name_H-M_alt    "P 1"
_space_group_IT_number       1

loop_
  _space_group_symop_operation_xyz
  'x, y, z'

loop_
  _atom_site_type_symbol
  _atom_site_label
  _atom_site_symmetry_multiplicity
  _atom_site_fract_x
  _atom_site_fract_y
  _atom_site_fract_z
  _atom_site_occupancy
  C   C1        1.0  0.546337  0.40710133500000006  0.5574066838249646  1.0000
  O   O1        1.0  0.51915509  0.357964795  0.5672564703251609  1.0000
  As  As1       1.0  0.06485111999999998  0.13152241500000006  0.5048210410868936  1.0000
  As  As2       1.0  0.55620127  0.13328716500000007  0.5330382870650546  1.0000
  As  As3       1.0  0.18514888  0.6315224150000001  0.4937448562870189  1.0000
  As  As4       1.0  0.68092386  0.628651315  0.5226567622664802  1.0000
  As  As5       1.0  0.43514888  0.8742116950000001  0.508160359953318  1.0000
  As  As6       1.0  0.93252725  0.8597187450000002  0.5367679696668513  1.0000
  As  As7       1.0  0.3180223  0.386952815  0.519908564342866  1.0000
  As  As8       1.0  0.8148511199999999  0.37421169500000007  0.49040554088031507  1.0000
  As  As9       1.0  0.38731474  0.6431246150000001  0.5371628379584488  1.0000
  As  As10      1.0  0.9087194099999999  0.6325700850000001  0.5063324892267848  1.0000
  As  As11      1.0  0.34128059  0.13257008500000003  0.4922334116068483  1.0000
  As  As12      1.0  0.8366824699999998  0.12833799500000004  0.5218375523234671  1.0000
  As  As13      1.0  0.08646748999999998  0.35767772500000006  0.5352990449528933  1.0000
  As  As14      1.0  0.59128059  0.373164025  0.5066489118134269  1.0000
  As  As15      1.0  0.16206779999999998  0.8735511250000002  0.5204009068027363  1.0000
  As  As16      1.0  0.6587194099999999  0.873164025  0.4919169890202063  1.0000
  Rh  Rh1       1.0  0.10355085999999997  0.5015445350000001  0.5137926674647199  1.0000
  Rh  Rh2       1.0  0.58940997  0.4922758950000001  0.5412745740467291  1.0000
  Rh  Rh3       1.0  0.12444241999999998  0.9976015650000001  0.5403569523511598  1.0000
  Rh  Rh4       1.0  0.64214501  0.00301841500000005  0.5134418863927681  1.0000
  Rh  Rh5       1.0  0.3946938  0.5023984350000001  0.49914131810462575  1.0000
  Rh  Rh6       1.0  0.8911043699999999  0.5081796850000001  0.5271207878648952  1.0000
  Rh  Rh7       1.0  0.36033807  0.0006143750000000502  0.5272456042050944  1.0000
  Rh  Rh8       1.0  0.8553062  0.002398435000000143  0.49942458272900725  1.0000
  As  As17      1.0  0.06485111999999998  0.13152241500000006  0.44715903334113827  1.0000
  As  As18      1.0  0.56485112  0.13152241500000006  0.4759900372140159  1.0000
  As  As19      1.0  0.18514888  0.6315224150000001  0.4360828485412635  1.0000
  As  As20      1.0  0.68514888  0.6315224150000001  0.4649138524141413  1.0000
  As  As21      1.0  0.43514888  0.8742116950000001  0.4504983487478421  1.0000
  As  As22      1.0  0.93514888  0.8742116950000001  0.47932935608044036  1.0000
  As  As23      1.0  0.31485111999999993  0.37421169500000007  0.46157453354771677  1.0000
  As  As24      1.0  0.8148511199999999  0.37421169500000007  0.4327435296748391  1.0000
  As  As25      1.0  0.40871940999999995  0.6325700850000001  0.4775014853539071  1.0000
  As  As26      1.0  0.9087194099999999  0.6325700850000001  0.44867048148102945  1.0000
  As  As27      1.0  0.34128059  0.13257008500000003  0.4345714004013724  1.0000
  As  As28      1.0  0.84128059  0.13257008500000003  0.46340240427425  1.0000
  As  As29      1.0  0.09128058999999997  0.373164025  0.4778179079405492  1.0000
  As  As30      1.0  0.59128059  0.373164025  0.4489869040676715  1.0000
  As  As31      1.0  0.15871940999999998  0.873164025  0.4630859816876079  1.0000
  As  As32      1.0  0.6587194099999999  0.873164025  0.4342549778147303  1.0000
  Rh  Rh9       1.0  0.10530619999999997  0.5033356750000001  0.4561780751898305  1.0000
  Rh  Rh10      1.0  0.6053062  0.5033356750000001  0.48500907906270824  1.0000
  Rh  Rh11      1.0  0.14469379999999998  0.00333567500000005  0.4847258144383266  1.0000
  Rh  Rh12      1.0  0.6446938  0.00333567500000005  0.45589481056544895  1.0000
  Rh  Rh13      1.0  0.3946938  0.5023984350000001  0.44147930689914977  1.0000
  Rh  Rh14      1.0  0.8946938  0.5023984350000001  0.4703103142317481  1.0000
  Rh  Rh15      1.0  0.3553062  0.002398435000000143  0.47059357539640906  1.0000
  Rh  Rh16      1.0  0.8553062  0.002398435000000143  0.44176257152353143  1.0000
