data_image0
_chemical_formula_structural       COFe3Ni9Fe3Ni9
_chemical_formula_sum              "C1 O1 Fe6 Ni18"
_cell_length_a       4.99050297
_cell_length_b       4.990502967775664
_cell_length_c       106.67255749
_cell_angle_alpha    90.0
_cell_angle_beta     90.0
_cell_angle_gamma    60.00000005154128

_space_group_name_H-M_alt    "P 1"
_space_group_IT_number       1

loop_
  _space_group_symop_operation_xyz
  'x, y, z'

loop_
  _atom_site_type_symbol
  _atom_site_label
  _atom_site_symmetry_multiplicity
  _atom_site_fract_x
  _atom_site_fract_y
  _atom_site_fract_z
  _atom_site_occupancy
  C   C1        1.0  0.1166328999999999  0.980968805  0.5505750452955634  1.0000
  O   O1        1.0  0.1373606799999999  0.955158405  0.5615363945407268  1.0000
  Fe  Fe1       1.0  0.7495948599999998  0.691468555  0.4384636054592732  1.0000
  Fe  Fe2       1.0  0.0829281899999999  0.024801884999999968  0.4766620762293652  1.0000
  Fe  Fe3       1.0  0.4162615199999999  0.35813521499999995  0.4575628425632503  1.0000
  Ni  Ni1       1.0  0.9162615199999997  0.8581352149999999  0.4575628425632503  1.0000
  Ni  Ni2       1.0  0.24959485999999986  0.19146855499999996  0.4384636054592732  1.0000
  Ni  Ni3       1.0  0.5829281899999998  0.5248018849999999  0.4766620762293652  1.0000
  Ni  Ni4       1.0  0.9162615199999996  0.35813521499999995  0.4575628425632503  1.0000
  Ni  Ni5       1.0  0.24959485999999986  0.691468555  0.4384636054592732  1.0000
  Ni  Ni6       1.0  0.5829281899999998  0.024801884999999968  0.4766620762293652  1.0000
  Ni  Ni7       1.0  0.4162615199999999  0.8581352149999999  0.4575628425632503  1.0000
  Ni  Ni8       1.0  0.7495948599999999  0.19146855499999996  0.4384636054592732  1.0000
  Ni  Ni9       1.0  0.08292818999999994  0.5248018849999999  0.4766620762293652  1.0000
  Fe  Fe4       1.0  0.7495948599999998  0.691468555  0.4957613133333422  1.0000
  Fe  Fe5       1.0  0.08629915999999989  0.01903119499999997  0.5341882334980216  1.0000
  Fe  Fe6       1.0  0.41767057999999996  0.3555874449999999  0.5152167129823414  1.0000
  Ni  Ni10      1.0  0.9170718099999999  0.8549019549999999  0.514729210342049  1.0000
  Ni  Ni11      1.0  0.24959485999999986  0.19146855499999996  0.4957613133333422  1.0000
  Ni  Ni12      1.0  0.5863461599999998  0.517739565  0.5337186524344395  1.0000
  Ni  Ni13      1.0  0.9168809499999997  0.35686290499999995  0.514760890244099  1.0000
  Ni  Ni14      1.0  0.24959485999999986  0.691468555  0.4957613133333422  1.0000
  Ni  Ni15      1.0  0.5856348599999999  0.02107823499999997  0.5337006655383435  1.0000
  Ni  Ni16      1.0  0.4186271899999998  0.8549195949999999  0.5147313830710881  1.0000
  Ni  Ni17      1.0  0.7495948599999999  0.19146855499999996  0.4957613133333422  1.0000
  Ni  Ni18      1.0  0.0876661899999999  0.5178402249999999  0.5337135678359446  1.0000
