data_image0
_chemical_formula_structural       COAu24Zn8
_chemical_formula_sum              "C1 O1 Au24 Zn8"
_cell_length_a       5.83636278
_cell_length_b       10.599616233077313
_cell_length_c       103.30211397
_cell_angle_alpha    93.82646083461529
_cell_angle_beta     90.0
_cell_angle_gamma    105.98049486002202

_space_group_name_H-M_alt    "P 1"
_space_group_IT_number       1

loop_
  _space_group_symop_operation_xyz
  'x, y, z'

loop_
  _atom_site_type_symbol
  _atom_site_label
  _atom_site_symmetry_multiplicity
  _atom_site_fract_x
  _atom_site_fract_y
  _atom_site_fract_z
  _atom_site_occupancy
  C   C1        1.0  0.5681584900000001  0.77023128  0.5415553263024031  1.0000
  O   O1        1.0  0.5602646800000001  0.7639807799999999  0.552659345631497  1.0000
  Au  Au1       1.0  0.7047198800000002  0.04505222000000001  0.4766788585434496  1.0000
  Au  Au2       1.0  0.22429749000000015  0.08420746  0.47036750851948445  1.0000
  Au  Au3       1.0  0.9107909900000001  0.18790937000000002  0.4536520076162273  1.0000
  Au  Au4       1.0  0.4824029200000002  0.9657757800000001  0.4510307528965571  1.0000
  Au  Au5       1.0  0.029719570000000178  0.56462984  0.4735231819195875  1.0000
  Au  Au6       1.0  0.9109743500000003  0.82291863  0.4740576038237794  1.0000
  Au  Au7       1.0  0.10536892000000013  0.7074869799999999  0.4504963309923651  1.0000
  Au  Au8       1.0  0.4303686100000001  0.2270646  0.4473406543685029  1.0000
  Au  Au9       1.0  0.6526855600000001  0.30634104999999995  0.4729887632391546  1.0000
  Au  Au10      1.0  0.2241141300000001  0.44919818999999994  0.44996190908817313  1.0000
  Au  Au11      1.0  0.6053689200000001  0.7074869799999999  0.4504963309923651  1.0000
  Au  Au12      1.0  0.5297195700000001  0.56462984  0.4735231819195875  1.0000
  Au  Au13      1.0  0.5332077900000001  0.75086302  0.5221239082144946  1.0000
  Au  Au14      1.0  0.0812767000000002  0.80549895  0.5163877864386028  1.0000
  Au  Au15      1.0  0.7676911100000001  0.9053641800000002  0.5004083535771402  1.0000
  Au  Au16      1.0  0.3397191500000001  0.6785829299999999  0.49713533211860605  1.0000
  Au  Au17      1.0  0.8911009  0.27600238  0.521610318242216  1.0000
  Au  Au18      1.0  0.7816012500000001  0.5350367300000001  0.5194756093789435  1.0000
  Au  Au19      1.0  0.9629111300000002  0.41721615  0.4963713882310584  1.0000
  Au  Au20      1.0  0.29332317000000013  0.9448955800000001  0.49306592285999296  1.0000
  Au  Au21      1.0  0.5105869700000001  0.034224220000000014  0.51959569763269  1.0000
  Au  Au22      1.0  0.08558451000000011  0.16512063999999999  0.49561523939324265  1.0000
  Au  Au23      1.0  0.4591334600000001  0.41782776  0.4964218013773387  1.0000
  Au  Au24      1.0  0.3979140600000002  0.28393999  0.5215944895845722  1.0000
  Zn  Zn1       1.0  0.7362366300000002  0.47344317999999996  0.45152510992148254  1.0000
  Zn  Zn2       1.0  0.39885186000000017  0.7986736400000002  0.47249440299046996  1.0000
  Zn  Zn3       1.0  0.16480806000000012  0.33058603999999997  0.4745519608487049  1.0000
  Zn  Zn4       1.0  0.9702804300000001  0.94153078  0.4494675520632477  1.0000
  Zn  Zn5       1.0  0.6020822600000001  0.19057978000000003  0.4985050106874825  1.0000
  Zn  Zn6       1.0  0.24174103000000016  0.50072173  0.5190851960217195  1.0000
  Zn  Zn7       1.0  0.04309661000000013  0.05640436000000001  0.5201513963475642  1.0000
  Zn  Zn8       1.0  0.8236658600000002  0.6553738  0.49579128565908337  1.0000
