data_image0
_chemical_formula_structural       COMo12Ti4
_chemical_formula_sum              "C1 O1 Mo12 Ti4"
_cell_length_a       5.253137819831
_cell_length_b       5.2531378209504735
_cell_length_c       101.00883192
_cell_angle_alpha    90.28610097024091
_cell_angle_beta     90.28610097030187
_cell_angle_gamma    117.33810260106792

_space_group_name_H-M_alt    "P 1"
_space_group_IT_number       1

loop_
  _space_group_symop_operation_xyz
  'x, y, z'

loop_
  _atom_site_type_symbol
  _atom_site_label
  _atom_site_symmetry_multiplicity
  _atom_site_fract_x
  _atom_site_fract_y
  _atom_site_fract_z
  _atom_site_occupancy
  C   C1        1.0  0.275281475  0.86788724  0.5478320186575677  1.0000
  O   O1        1.0  0.18461067500000003  0.7775933700000001  0.5584603120255294  1.0000
  Mo  Mo1       1.0  0.377315205  0.4536114199999999  0.5181108101171448  1.0000
  Mo  Mo2       1.0  0.711317265  0.79111257  0.4927049045051333  1.0000
  Mo  Mo3       1.0  0.199381545  0.30304828999999994  0.49270490450513327  1.0000
  Mo  Mo4       1.0  0.861623005  0.96902733  0.518106742482512  1.0000
  Mo  Mo5       1.0  0.4383418850000001  0.030285039999999985  0.5297755674886823  1.0000
  Mo  Mo6       1.0  0.7904315550000001  0.3822863899999999  0.5054108351266816  1.0000
  Mo  Mo7       1.0  0.044650595000000015  0.12444590999999991  0.4671222947048455  1.0000
  Mo  Mo8       1.0  0.377983925  0.4577792399999999  0.4415396879744707  1.0000
  Mo  Mo9       1.0  0.866048205  0.9697149600000001  0.4415396879744707  1.0000
  Mo  Mo10      1.0  0.532714875  0.63638163  0.4671222947048455  1.0000
  Mo  Mo11      1.0  0.12201606500000002  0.7137470999999999  0.4799135996049894  1.0000
  Mo  Mo12      1.0  0.455349405  0.04708042999999992  0.45433099287461454  1.0000
  Ti  Ti1       1.0  0.9517130549999999  0.54365084  0.530319043384497  1.0000
  Ti  Ti2       1.0  0.284694355  0.8764715200000001  0.5054705909818726  1.0000
  Ti  Ti3       1.0  0.6220160650000001  0.21374709999999997  0.47991359960498936  1.0000
  Ti  Ti4       1.0  0.955349405  0.54708043  0.4543309928746145  1.0000
