data_image0
_chemical_formula_structural       COGe4Se8
_chemical_formula_sum              "C1 O1 Ge4 Se8"
_cell_length_a       6.14490568
_cell_length_b       6.537306999659909
_cell_length_c       101.39842433999999
_cell_angle_alpha    84.43475237910717
_cell_angle_beta     90.0
_cell_angle_gamma    118.03348778216171

_space_group_name_H-M_alt    "P 1"
_space_group_IT_number       1

loop_
  _space_group_symop_operation_xyz
  'x, y, z'

loop_
  _atom_site_type_symbol
  _atom_site_label
  _atom_site_symmetry_multiplicity
  _atom_site_fract_x
  _atom_site_fract_y
  _atom_site_fract_z
  _atom_site_occupancy
  C   C1        1.0  0.765037895  0.27762971999999997  0.5548532989709528  1.0000
  O   O1        1.0  0.7043586250000001  0.37353339  0.5617002188543865  1.0000
  Ge  Ge1       1.0  0.12276854500000012  0.51476145  0.5220744788451755  1.0000
  Ge  Ge2       1.0  0.46207159500000017  0.16609053000000001  0.4705554037357422  1.0000
  Ge  Ge3       1.0  0.7954049250000002  0.8327571900000001  0.4576531540803828  1.0000
  Ge  Ge4       1.0  0.47167923500000003  0.18000086999999998  0.5086746059752983  1.0000
  Se  Se1       1.0  0.8626587850000002  0.49942386000000005  0.4641042804563323  1.0000
  Se  Se2       1.0  0.5277840950000002  0.8446291300000001  0.5163175533115867  1.0000
  Se  Se3       1.0  0.5507647550000001  0.84347685  0.4761766822525661  1.0000
  Se  Se4       1.0  0.2432861250000002  0.20797011  0.5273121889931306  1.0000
  Se  Se5       1.0  0.2067117650000001  0.15537087  0.45203187556355884  1.0000
  Se  Se6       1.0  0.8772314550000001  0.5035488600000001  0.5027650767737141  1.0000
  Se  Se7       1.0  0.5614844050000001  0.8327571900000001  0.4382997811456136  1.0000
  Se  Se8       1.0  0.2281510750000002  0.16609053000000001  0.4899087766705114  1.0000
