data_image0
_chemical_formula_structural       COAu8Se8Au8Se8
_chemical_formula_sum              "C1 O1 Au16 Se16"
_cell_length_a       19.522924016867375
_cell_length_b       10.19410828975856
_cell_length_c       100.22416968
_cell_angle_alpha    90.0
_cell_angle_beta     101.15811440750787
_cell_angle_gamma    39.58019365094683

_space_group_name_H-M_alt    "P 1"
_space_group_IT_number       1

loop_
  _space_group_symop_operation_xyz
  'x, y, z'

loop_
  _atom_site_type_symbol
  _atom_site_label
  _atom_site_symmetry_multiplicity
  _atom_site_fract_x
  _atom_site_fract_y
  _atom_site_fract_z
  _atom_site_occupancy
  C   C1        1.0  0.6203436999999999  0.984651115  0.5443884608797567  1.0000
  O   O1        1.0  0.55110005  0.042763635000000015  0.5484237112168695  1.0000
  Au  Au1       1.0  0.7688466899999998  0.544281935  0.45321940556751117  1.0000
  Au  Au2       1.0  0.26884669  0.544281935  0.4720672604415533  1.0000
  Au  Au3       1.0  0.26884668999999994  0.044281935000000015  0.47206726044155317  1.0000
  Au  Au4       1.0  0.76884669  0.044281935000000015  0.45321940556751117  1.0000
  Au  Au5       1.0  0.5188466899999999  0.544281935  0.4626433330045322  1.0000
  Au  Au6       1.0  0.018846689999999958  0.544281935  0.4814911878785742  1.0000
  Au  Au7       1.0  0.51884669  0.044281935000000015  0.46264333300453214  1.0000
  Au  Au8       1.0  0.01884668999999998  0.044281935000000015  0.4814911878785742  1.0000
  Se  Se1       1.0  0.8124356300000001  0.320295965  0.47371037722593407  1.0000
  Se  Se2       1.0  0.31243563  0.320295965  0.454862522351892  1.0000
  Se  Se3       1.0  0.47525774999999987  0.7682679050000001  0.4798480710941933  1.0000
  Se  Se4       1.0  0.9752577499999998  0.7682679050000001  0.4610002162201513  1.0000
  Se  Se5       1.0  0.56243563  0.320295965  0.4831343046629551  1.0000
  Se  Se6       1.0  0.06243563000000001  0.320295965  0.4642864497889131  1.0000
  Se  Se7       1.0  0.22525774999999995  0.7682679050000001  0.45157628878313033  1.0000
  Se  Se8       1.0  0.7252577499999998  0.7682679050000001  0.4704241436571723  1.0000
  Au  Au9       1.0  0.7586833300000001  0.555387985  0.48955692381508786  1.0000
  Au  Au10      1.0  0.15517792000000005  0.660033555  0.49993437478498537  1.0000
  Au  Au11      1.0  0.27170532000000003  0.006305395000000047  0.509988851929418  1.0000
  Au  Au12      1.0  0.76843729  0.05764718500000002  0.4917202202843947  1.0000
  Au  Au13      1.0  0.51988516  0.5421290750000001  0.49951256582421777  1.0000
  Au  Au14      1.0  0.03657542999999994  0.45981080500000004  0.5184174889871617  1.0000
  Au  Au15      1.0  0.5156449300000002  0.015348884999999868  0.5023114571947291  1.0000
  Au  Au16      1.0  0.9500779899999999  0.04375746500000001  0.5059548319802714  1.0000
  Se  Se9       1.0  0.78327306  0.38615039500000004  0.5120191428564499  1.0000
  Se  Se10      1.0  0.30980159  0.313302395  0.4916238097371431  1.0000
  Se  Se11      1.0  0.4754866300000001  0.722230255  0.5200275421106082  1.0000
  Se  Se12      1.0  0.9811533100000001  0.7518625750000001  0.5021847573907807  1.0000
  Se  Se13      1.0  0.5470125899999999  0.39903282500000004  0.523226107521123  1.0000
  Se  Se14      1.0  0.06773143  0.284215555  0.4992115520114239  1.0000
  Se  Se15      1.0  0.22525774999999995  0.7682679050000001  0.4892719985312144  1.0000
  Se  Se16      1.0  0.7234024000000001  0.710802635  0.5110543136263057  1.0000
