data_image0
_chemical_formula_structural       COAl10Au20Al10Au20
_chemical_formula_sum              "C1 O1 Al20 Au40"
_cell_length_a       9.05921188
_cell_length_b       6.6550613
_cell_length_c       121.50850912
_cell_angle_alpha    90.0
_cell_angle_beta     90.0
_cell_angle_gamma    90.0

_space_group_name_H-M_alt    "P 1"
_space_group_IT_number       1

loop_
  _space_group_symop_operation_xyz
  'x, y, z'

loop_
  _atom_site_type_symbol
  _atom_site_label
  _atom_site_symmetry_multiplicity
  _atom_site_fract_x
  _atom_site_fract_y
  _atom_site_fract_z
  _atom_site_occupancy
  C   C1        1.0  0.54294739  0.37820941999999996  0.5671092574167589  1.0000
  O   O1        1.0  0.5500564600000001  0.37821414  0.5766630606601163  1.0000
  Al  Al1       1.0  0.01319054000000004  0.12820568999999998  0.4252299458461121  1.0000
  Al  Al2       1.0  0.5131905400000001  0.37820569  0.4958813903734814  1.0000
  Al  Al3       1.0  0.98058926  0.12577352  0.5385007599654639  1.0000
  Al  Al4       1.0  0.03677559000000004  0.12820568999999998  0.4536976844272904  1.0000
  Al  Al5       1.0  0.48960549000000003  0.37820569  0.5243491289546598  1.0000
  Al  Al6       1.0  0.53677559  0.37820569  0.4674136475532165  1.0000
  Al  Al7       1.0  0.039571620000000036  0.12820568999999998  0.5098496130640184  1.0000
  Al  Al8       1.0  0.9868094599999999  0.12820568999999998  0.4819131634438579  1.0000
  Al  Al9       1.0  0.5435569  0.37820559  0.550472911237586  1.0000
  Al  Al10      1.0  0.48680946  0.37820569  0.43919817277573564  1.0000
  Au  Au1       1.0  0.35786053  0.12820568999999998  0.4233369393398837  1.0000
  Au  Au2       1.0  0.6685205500000001  0.12820568999999998  0.4271229523523405  1.0000
  Au  Au3       1.0  0.8578605300000001  0.37820569  0.49777439264062323  1.0000
  Au  Au4       1.0  0.16852055000000005  0.37820569  0.4939883838672531  1.0000
  Au  Au5       1.0  0.36427110000000007  0.12179340999999999  0.5423834877383998  1.0000
  Au  Au6       1.0  0.65504263  0.12820568999999998  0.4516382768161814  1.0000
  Au  Au7       1.0  0.8713384500000001  0.37820569  0.5222897213435508  1.0000
  Au  Au8       1.0  0.15504263000000004  0.37820569  0.4694730551643255  1.0000
  Au  Au9       1.0  0.33750653  0.12820568999999998  0.5094962894360902  1.0000
  Au  Au10      1.0  0.6888745500000001  0.12820568999999998  0.4822664870717861  1.0000
  Au  Au11      1.0  0.8299811800000001  0.37819991  0.5520346076925319  1.0000
  Au  Au12      1.0  0.18887455000000003  0.37820569  0.43884484490872083  1.0000
  Au  Au13      1.0  0.3794288900000001  0.12820568999999998  0.4810052104441646  1.0000
  Au  Au14      1.0  0.64695219  0.12820568999999998  0.5107575660637117  1.0000
  Au  Au15      1.0  0.87942889  0.37820569  0.44010612577542896  1.0000
  Au  Au16      1.0  0.13507725000000004  0.3782064599999999  0.5504943525375424  1.0000
  Au  Au17      1.0  0.34761118  0.12820568999999998  0.45539518002104623  1.0000
  Au  Au18      1.0  0.6691976000000001  0.12616455999999998  0.5355619665591703  1.0000
  Au  Au19      1.0  0.8476111799999999  0.37820569  0.46571615195946076  1.0000
  Au  Au20      1.0  0.17876990000000004  0.37820569  0.5260466245484156  1.0000
  Al  Al11      1.0  0.01319054000000004  0.6282056899999999  0.4252299458461121  1.0000
  Al  Al12      1.0  0.5131905400000001  0.8782056899999999  0.4958813903734814  1.0000
  Al  Al13      1.0  0.9805879200000001  0.63063746  0.5385008786598884  1.0000
  Al  Al14      1.0  0.03677559000000004  0.6282056899999999  0.4536976844272904  1.0000
  Al  Al15      1.0  0.48960549000000003  0.8782056899999999  0.5243491289546598  1.0000
  Al  Al16      1.0  0.53677559  0.8782056899999999  0.4674136475532165  1.0000
  Al  Al17      1.0  0.039571620000000036  0.6282056899999999  0.5098496130640184  1.0000
  Al  Al18      1.0  0.9868094599999999  0.6282056899999999  0.4819131634438579  1.0000
  Al  Al19      1.0  0.5454061099999999  0.87820629  0.5516554807445493  1.0000
  Al  Al20      1.0  0.48680946  0.8782056899999999  0.43919817277573564  1.0000
  Au  Au21      1.0  0.35786053  0.6282056899999999  0.4233369393398837  1.0000
  Au  Au22      1.0  0.6685205500000001  0.6282056899999999  0.4271229523523405  1.0000
  Au  Au23      1.0  0.8578605300000001  0.8782056899999999  0.49777439264062323  1.0000
  Au  Au24      1.0  0.16852055000000005  0.8782056899999999  0.4939883838672531  1.0000
  Au  Au25      1.0  0.36427134  0.63461875  0.5423834877383998  1.0000
  Au  Au26      1.0  0.65504263  0.6282056899999999  0.4516382768161814  1.0000
  Au  Au27      1.0  0.8713384500000001  0.8782056899999999  0.5222897213435508  1.0000
  Au  Au28      1.0  0.15504263000000004  0.8782056899999999  0.4694730551643255  1.0000
  Au  Au29      1.0  0.33750653  0.6282056899999999  0.5094962894360902  1.0000
  Au  Au30      1.0  0.6888745500000001  0.6282056899999999  0.4822664870717861  1.0000
  Au  Au31      1.0  0.82427284  0.8782065899999999  0.5532077155582332  1.0000
  Au  Au32      1.0  0.18887455000000003  0.8782056899999999  0.43884484490872083  1.0000
  Au  Au33      1.0  0.3794288900000001  0.6282056899999999  0.4810052104441646  1.0000
  Au  Au34      1.0  0.64695219  0.6282056899999999  0.5107575660637117  1.0000
  Au  Au35      1.0  0.87942889  0.8782056899999999  0.44010612577542896  1.0000
  Au  Au36      1.0  0.12904996000000005  0.8782062799999999  0.5507984815656302  1.0000
  Au  Au37      1.0  0.34761118  0.6282056899999999  0.45539518002104623  1.0000
  Au  Au38      1.0  0.66919845  0.63024648  0.5355621064490278  1.0000
  Au  Au39      1.0  0.8476111799999999  0.8782056899999999  0.46571615195946076  1.0000
  Au  Au40      1.0  0.17876990000000004  0.8782056899999999  0.5260466245484156  1.0000
