data_image0
_chemical_formula_structural       COAl4Sb4Al4Sb4
_chemical_formula_sum              "C1 O1 Al8 Sb8"
_cell_length_a       7.68071663
_cell_length_b       8.521251618830597
_cell_length_c       38.95875331
_cell_angle_alpha    74.9180546454416
_cell_angle_beta     90.0
_cell_angle_gamma    63.21267483376951

_space_group_name_H-M_alt    "P 1"
_space_group_IT_number       1

loop_
  _space_group_symop_operation_xyz
  'x, y, z'

loop_
  _atom_site_type_symbol
  _atom_site_label
  _atom_site_symmetry_multiplicity
  _atom_site_fract_x
  _atom_site_fract_y
  _atom_site_fract_z
  _atom_site_occupancy
  C   C1        1.0  0.90402404  0.37680293000000004  0.6183481855042032  1.0000
  O   O1        1.0  0.8458457699999999  0.34544438000000005  0.6450392293206388  1.0000
  Al  Al1       1.0  0.53417316  0.4879065900000001  0.5002345338439538  1.0000
  Al  Al2       1.0  0.10055421999999999  0.5186063400000002  0.5378551551716996  1.0000
  Al  Al3       1.0  0.6354812299999999  0.9851117400000001  0.4687853504569084  1.0000
  Al  Al4       1.0  0.06506532999999999  0.014888259999999985  0.5109112079311359  1.0000
  Sb  Sb1       1.0  0.3645187700000001  0.86036998  0.4758846932199884  1.0000
  Sb  Sb2       1.0  0.8330137  0.8690594600000001  0.5367693301241785  1.0000
  Sb  Sb3       1.0  0.9291663999999998  0.37517068000000003  0.5035334012957814  1.0000
  Sb  Sb4       1.0  0.4754815600000001  0.31550652000000007  0.56310660713959  1.0000
  Al  Al5       1.0  0.55214789  0.48511174000000007  0.3834169116398877  1.0000
  Al  Al6       1.0  0.052147889999999975  0.48511174000000007  0.4403292015286612  1.0000
  Al  Al7       1.0  0.6354812299999999  0.9851117400000001  0.3549607706793614  1.0000
  Al  Al8       1.0  0.13548122999999995  0.9851117400000001  0.4118730605681349  1.0000
  Sb  Sb5       1.0  0.3645187700000001  0.86036998  0.3620601054747206  1.0000
  Sb  Sb6       1.0  0.8645187700000001  0.86036998  0.4189723953634941  1.0000
  Sb  Sb7       1.0  0.94785211  0.36036998000000003  0.3905162544029678  1.0000
  Sb  Sb8       1.0  0.44785210999999997  0.36036998000000003  0.44742854429174134  1.0000
