data_image0
_chemical_formula_structural       COPd2Au6Pd2Au6Pd2Au6Pd2Au6
_chemical_formula_sum              "C1 O1 Pd8 Au24"
_cell_length_a       8.31849596
_cell_length_b       8.19458718
_cell_length_c       99.11473586
_cell_angle_alpha    90.0
_cell_angle_beta     90.0
_cell_angle_gamma    90.0

_space_group_name_H-M_alt    "P 1"
_space_group_IT_number       1

loop_
  _space_group_symop_operation_xyz
  'x, y, z'

loop_
  _atom_site_type_symbol
  _atom_site_label
  _atom_site_symmetry_multiplicity
  _atom_site_fract_x
  _atom_site_fract_y
  _atom_site_fract_z
  _atom_site_occupancy
  C   C1        1.0  0.12370651999999997  2.500000004721359e-08  0.5357168951872904  1.0000
  O   O1        1.0  0.12370676999999997  0.999999975  0.5474410867320217  1.0000
  Pd  Pd1       1.0  0.12370686999999998  2.500000004721359e-08  0.4735408987453445  1.0000
  Pd  Pd2       1.0  0.37370686999999997  0.5000000250000001  0.45255891326797815  1.0000
  Au  Au1       1.0  0.12370686999999998  0.25000002500000007  0.45255891326797815  1.0000
  Au  Au2       1.0  0.37370686999999997  0.25000002500000007  0.4735408987453445  1.0000
  Au  Au3       1.0  0.37370686999999997  2.500000004721359e-08  0.45255891326797815  1.0000
  Au  Au4       1.0  0.37370686999999997  0.7500000250000001  0.4735408987453445  1.0000
  Au  Au5       1.0  0.12370686999999998  0.7500000250000001  0.45255891326797815  1.0000
  Au  Au6       1.0  0.12370686999999998  0.5000000250000001  0.4735408987453445  1.0000
  Pd  Pd3       1.0  0.12370677999999996  1.0500000004721359e-07  0.5166035599185951  1.0000
  Pd  Pd4       1.0  0.37130385999999993  0.4999999750000001  0.49463602118886607  1.0000
  Au  Au7       1.0  0.12370705999999998  0.24628405500000003  0.4947356986307081  1.0000
  Au  Au8       1.0  0.37661004  0.25479611500000005  0.515492335481342  1.0000
  Au  Au9       1.0  0.3711202799999999  3.5000000047213586e-08  0.49463143872314613  1.0000
  Au  Au10      1.0  0.37661009999999995  0.7452039050000001  0.5154923207939519  1.0000
  Au  Au11      1.0  0.12370705999999998  0.7537159750000002  0.4947357133180982  1.0000
  Au  Au12      1.0  0.12370697999999998  0.49999996500000005  0.5152678592855832  1.0000
  Pd  Pd5       1.0  0.6237068699999999  2.500000004721359e-08  0.4735408987453445  1.0000
  Pd  Pd6       1.0  0.8737068699999999  0.5000000250000001  0.45255891326797815  1.0000
  Au  Au13      1.0  0.6237068699999999  0.25000002500000007  0.45255891326797815  1.0000
  Au  Au14      1.0  0.8737068699999999  0.25000002500000007  0.4735408987453445  1.0000
  Au  Au15      1.0  0.8737068699999999  2.500000004721359e-08  0.45255891326797815  1.0000
  Au  Au16      1.0  0.8737068699999999  0.7500000250000001  0.4735408987453445  1.0000
  Au  Au17      1.0  0.6237068699999999  0.7500000250000001  0.45255891326797815  1.0000
  Au  Au18      1.0  0.6237068699999999  0.5000000250000001  0.4735408987453445  1.0000
  Pd  Pd7       1.0  0.62370678  8.500000004721358e-08  0.5143266384515827  1.0000
  Pd  Pd8       1.0  0.8761103599999999  0.4999999750000001  0.49463592425209124  1.0000
  Au  Au19      1.0  0.6237067999999999  0.24788990500000005  0.49433917140951295  1.0000
  Au  Au20      1.0  0.8708039399999999  0.25479643500000004  0.5154922796692595  1.0000
  Au  Au21      1.0  0.87629348  3.5000000047213586e-08  0.49463144166062417  1.0000
  Au  Au22      1.0  0.8708038899999999  0.7452035850000001  0.5154922620443914  1.0000
  Au  Au23      1.0  0.6237067999999999  0.7521101250000001  0.494339174346991  1.0000
  Au  Au24      1.0  0.6237071099999999  0.49999996500000005  0.515002120335999  1.0000
