data_image0
_chemical_formula_structural       COCu6As2Se8
_chemical_formula_sum              "C1 O1 Cu6 As2 Se8"
_cell_length_a       5.71106859
_cell_length_b       5.71106859
_cell_length_c       103.95460772
_cell_angle_alpha    90.0
_cell_angle_beta     90.0
_cell_angle_gamma    90.0

_space_group_name_H-M_alt    "P 1"
_space_group_IT_number       1

loop_
  _space_group_symop_operation_xyz
  'x, y, z'

loop_
  _atom_site_type_symbol
  _atom_site_label
  _atom_site_symmetry_multiplicity
  _atom_site_fract_x
  _atom_site_fract_y
  _atom_site_fract_z
  _atom_site_occupancy
  C   C1        1.0  0.12400476500000002  0.421650635  0.5514933310881788  1.0000
  O   O1        1.0  0.07758756500000001  0.337368435  0.5613078224683314  1.0000
  Cu  Cu1       1.0  0.7051333550000002  0.115311885  0.48017639197969136  1.0000
  Cu  Cu2       1.0  0.7453020050000001  0.14202620500000002  0.5274126703122775  1.0000
  Cu  Cu3       1.0  0.206709465  0.114996525  0.5069539253292905  1.0000
  Cu  Cu4       1.0  0.191307305  0.5551127250000001  0.5359452956976654  1.0000
  Cu  Cu5       1.0  0.20513335500000002  0.615311885  0.48017639197969136  1.0000
  Cu  Cu6       1.0  0.7051333550000002  0.615311885  0.4529572919151831  1.0000
  As  As1       1.0  0.7287578050000002  0.642851865  0.5072884393322101  1.0000
  As  As2       1.0  0.20513335500000002  0.115311885  0.4529572919151831  1.0000
  Se  Se1       1.0  0.959649135  0.360796105  0.4931303743943933  1.0000
  Se  Se2       1.0  0.457310895  0.383061455  0.5202867224618689  1.0000
  Se  Se3       1.0  0.450617585  0.869827665  0.4931303743943933  1.0000
  Se  Se4       1.0  0.04035086500000001  0.885003475  0.5248541349929166  1.0000
  Se  Se5       1.0  0.459649135  0.860796105  0.43869217753166845  1.0000
  Se  Se6       1.0  0.950617585  0.860796105  0.4672224095649895  1.0000
  Se  Se7       1.0  0.950617585  0.36982766499999997  0.43869217753166845  1.0000
  Se  Se8       1.0  0.459649135  0.36982766499999997  0.4672224095649895  1.0000
