data_image0
_chemical_formula_structural       CORe6Ni2Re6Ni2
_chemical_formula_sum              "C1 O1 Re12 Ni4"
_cell_length_a       5.43071975
_cell_length_b       5.430719748746753
_cell_length_c       100.68227540000001
_cell_angle_alpha    90.0
_cell_angle_beta     90.0
_cell_angle_gamma    120.00000006854606

_space_group_name_H-M_alt    "P 1"
_space_group_IT_number       1

loop_
  _space_group_symop_operation_xyz
  'x, y, z'

loop_
  _atom_site_type_symbol
  _atom_site_label
  _atom_site_symmetry_multiplicity
  _atom_site_fract_x
  _atom_site_fract_y
  _atom_site_fract_z
  _atom_site_occupancy
  C   C1        1.0  0.04047103499999997  0.25188988  0.5369064492447969  1.0000
  O   O1        1.0  0.09833388499999998  0.30189308000000004  0.5482082056148903  1.0000
  Re  Re1       1.0  0.9450470649999999  0.16404579000000005  0.4735591913520657  1.0000
  Re  Re2       1.0  0.444560475  0.16404579000000005  0.4735591913520657  1.0000
  Re  Re3       1.0  0.945047065  0.66453238  0.4735591913520657  1.0000
  Re  Re4       1.0  0.27805600499999994  0.83103685  0.4517917943851098  1.0000
  Re  Re5       1.0  0.778542595  0.83103685  0.4517917943851098  1.0000
  Re  Re6       1.0  0.278056005  0.33055026000000004  0.4517917943851098  1.0000
  Ni  Ni1       1.0  0.778218205  0.33087465  0.4517917943851098  1.0000
  Ni  Ni2       1.0  0.444884865  0.6642079900000001  0.4735591913520657  1.0000
  Re  Re7       1.0  0.958251175  0.18032903000000003  0.5176920567193484  1.0000
  Re  Re8       1.0  0.44958051499999996  0.16827117000000003  0.5161585962494577  1.0000
  Re  Re9       1.0  0.9595289650000002  0.68288961  0.516241257941093  1.0000
  Re  Re10      1.0  0.2864664349999999  0.8359542099999999  0.49584667587445896  1.0000
  Re  Re11      1.0  0.786223985  0.83488709  0.49572456208107585  1.0000
  Re  Re12      1.0  0.283089745  0.33326708000000005  0.4958054075010719  1.0000
  Ni  Ni3       1.0  0.7858068149999999  0.33518339  0.49555587432886283  1.0000
  Ni  Ni4       1.0  0.45796973500000004  0.67607307  0.5168658847285987  1.0000
