data_image0
_chemical_formula_structural       COAl12Pd8Al12Pd8
_chemical_formula_sum              "C1 O1 Al24 Pd16"
_cell_length_a       7.39118009
_cell_length_b       11.339478751853722
_cell_length_c       99.87109871
_cell_angle_alpha    100.845493244524
_cell_angle_beta     90.0
_cell_angle_gamma    70.97960166875824

_space_group_name_H-M_alt    "P 1"
_space_group_IT_number       1

loop_
  _space_group_symop_operation_xyz
  'x, y, z'

loop_
  _atom_site_type_symbol
  _atom_site_label
  _atom_site_symmetry_multiplicity
  _atom_site_fract_x
  _atom_site_fract_y
  _atom_site_fract_z
  _atom_site_occupancy
  C   C1        1.0  0.6125299150000001  0.43149027500000003  0.5396600244266327  1.0000
  O   O1        1.0  0.6260596650000001  0.42570757500000006  0.551174792047506  1.0000
  Al  Al1       1.0  0.7568622450000001  0.507683525  0.45571544677528536  1.0000
  Al  Al2       1.0  0.006862245000000042  0.007683525000000052  0.48776150103682986  1.0000
  Al  Al3       1.0  0.506862245  0.007683525000000052  0.46639746386547853  1.0000
  Al  Al4       1.0  0.256862245  0.507683525  0.47707948394663685  1.0000
  Al  Al5       1.0  0.7622710350000002  0.830199275  0.4839697227694282  1.0000
  Al  Al6       1.0  0.012271035000000078  0.330199275  0.4732877026882699  1.0000
  Al  Al7       1.0  0.5122710350000003  0.330199275  0.4519236655169185  1.0000
  Al  Al8       1.0  0.2622710350000001  0.830199275  0.46260568559807685  1.0000
  Al  Al9       1.0  0.5014534550000002  0.685167775  0.4808712622140384  1.0000
  Al  Al10      1.0  0.751453455  0.18516777500000006  0.4701892451238454  1.0000
  Al  Al11      1.0  0.25145345500000005  0.18516777500000006  0.44882520795249403  1.0000
  Al  Al12      1.0  0.001453455000000048  0.685167775  0.4595072250426871  1.0000
  Pd  Pd1       1.0  0.884025725  0.5866898850000001  0.4787673783649271  1.0000
  Pd  Pd2       1.0  0.13402572500000004  0.08668988500000004  0.46808535828376874  1.0000
  Pd  Pd3       1.0  0.6340257250000001  0.08668988500000004  0.4894493984460854  1.0000
  Pd  Pd4       1.0  0.38402572500000004  0.5866898850000001  0.45740334119357573  1.0000
  Pd  Pd5       1.0  0.37969876500000005  0.9286771650000001  0.4860736066185396  1.0000
  Pd  Pd6       1.0  0.6296987650000001  0.4286771650000001  0.47539158952834654  1.0000
  Pd  Pd7       1.0  0.12969876500000005  0.4286771650000001  0.4540275523569951  1.0000
  Pd  Pd8       1.0  0.8796987650000001  0.9286771650000001  0.4647095694471882  1.0000
  Al  Al13      1.0  0.7568622450000001  0.507683525  0.4984435211179882  1.0000
  Al  Al14      1.0  0.020644675000000046  0.9923164749999999  0.5298803486559128  1.0000
  Al  Al15      1.0  0.494809295  0.02029567500000005  0.5096953918650684  1.0000
  Al  Al16      1.0  0.24650285500000008  0.512939365  0.519979496918495  1.0000
  Al  Al17      1.0  0.7603468650000004  0.8245919749999999  0.5256501636730379  1.0000
  Al  Al18      1.0  0.9985465450000001  0.33341174500000004  0.5149264704728589  1.0000
  Al  Al19      1.0  0.5122710350000003  0.330199275  0.4946517398596213  1.0000
  Al  Al20      1.0  0.25965997500000004  0.8325417350000002  0.5049904988213134  1.0000
  Al  Al21      1.0  0.513600495  0.686339385  0.5219417136978859  1.0000
  Al  Al22      1.0  0.748307515  0.18640805500000004  0.5126693086268732  1.0000
  Al  Al23      1.0  0.25145345500000005  0.18516777500000006  0.4915532822951968  1.0000
  Al  Al24      1.0  0.0007282450000001273  0.6847179250000001  0.5022205359808477  1.0000
  Pd  Pd9       1.0  0.8869677050000001  0.584194415  0.5208590411007273  1.0000
  Pd  Pd10      1.0  0.12395928500000006  0.09496951500000003  0.5108256626834353  1.0000
  Pd  Pd11      1.0  0.662994955  0.06318833500000005  0.5314015057336416  1.0000
  Pd  Pd12      1.0  0.38402572500000004  0.5866898850000001  0.5001314155362786  1.0000
  Pd  Pd13      1.0  0.38203952500000016  0.923274375  0.5274612260408919  1.0000
  Pd  Pd14      1.0  0.6110671850000001  0.43696505500000005  0.5202089189090553  1.0000
  Pd  Pd15      1.0  0.12969876500000005  0.4286771650000001  0.49675562669969786  1.0000
  Pd  Pd16      1.0  0.8801832650000002  0.9262520849999999  0.5064590807116349  1.0000
