data_image0
_chemical_formula_structural       COZn8Ge4Se16Zn8Ge4Se16
_chemical_formula_sum              "C1 O1 Zn16 Ge8 Se32"
_cell_length_a       5.84280952
_cell_length_b       22.509126804889327
_cell_length_c       105.05685709
_cell_angle_alpha    105.04485337229805
_cell_angle_beta     90.0
_cell_angle_gamma    90.0

_space_group_name_H-M_alt    "P 1"
_space_group_IT_number       1

loop_
  _space_group_symop_operation_xyz
  'x, y, z'

loop_
  _atom_site_type_symbol
  _atom_site_label
  _atom_site_symmetry_multiplicity
  _atom_site_fract_x
  _atom_site_fract_y
  _atom_site_fract_z
  _atom_site_occupancy
  C   C1        1.0  0.5085887649999999  0.56801084  0.5676501774560578  1.0000
  O   O1        1.0  0.642763855  0.54899794  0.5734924142913005  1.0000
  Zn  Zn1       1.0  0.03997186499999998  0.40212076  0.47203090381370844  1.0000
  Zn  Zn2       1.0  0.03997186499999998  0.9021207600000001  0.4442230569759749  1.0000
  Zn  Zn3       1.0  0.5399718649999999  0.40212076  0.44422305697597486  1.0000
  Zn  Zn4       1.0  0.5399718649999999  0.9021207600000001  0.47203090381370844  1.0000
  Zn  Zn5       1.0  0.5399718649999999  0.15212076000000002  0.4303191368940495  1.0000
  Zn  Zn6       1.0  0.5399718649999999  0.65212076  0.4581269803948417  1.0000
  Zn  Zn7       1.0  0.03997186499999998  0.15212076000000002  0.4581269803948417  1.0000
  Zn  Zn8       1.0  0.03997186499999998  0.65212076  0.4303191368940495  1.0000
  Ge  Ge1       1.0  0.03997186499999998  0.27712076  0.4372710969350122  1.0000
  Ge  Ge2       1.0  0.03997186499999998  0.7771207600000002  0.46507894043580433  1.0000
  Ge  Ge3       1.0  0.5399718649999999  0.02712076000000004  0.45117502035387896  1.0000
  Ge  Ge4       1.0  0.5399718649999999  0.52712076  0.47898286385467115  1.0000
  Se  Se1       1.0  0.291861945  0.33547710000000003  0.42650758570869945  1.0000
  Se  Se2       1.0  0.291861945  0.8354771  0.45431542920949164  1.0000
  Se  Se3       1.0  0.788081785  0.21876442000000004  0.47563221768295927  1.0000
  Se  Se4       1.0  0.788081785  0.7187644200000001  0.4478243741821671  1.0000
  Se  Se5       1.0  0.788081785  0.33547710000000003  0.4545256665255908  1.0000
  Se  Se6       1.0  0.788081785  0.8354771  0.4267178196878572  1.0000
  Se  Se7       1.0  0.291861945  0.21876442000000004  0.44803460816132484  1.0000
  Se  Se8       1.0  0.291861945  0.7187644200000001  0.4758424549990584  1.0000
  Se  Se9       1.0  0.7918619450000001  0.08547710000000004  0.4404115057906248  1.0000
  Se  Se10      1.0  0.7918619450000001  0.5854771000000001  0.4682193526283584  1.0000
  Se  Se11      1.0  0.288081785  0.46876442  0.4617282942640925  1.0000
  Se  Se12      1.0  0.288081785  0.9687644199999998  0.4339204507633003  1.0000
  Se  Se13      1.0  0.288081785  0.08547710000000004  0.46842958660751616  1.0000
  Se  Se14      1.0  0.288081785  0.5854771000000001  0.440621743106724  1.0000
  Se  Se15      1.0  0.7918619450000001  0.46876442  0.4341306880793995  1.0000
  Se  Se16      1.0  0.7918619450000001  0.9687644199999998  0.4619385315801917  1.0000
  Zn  Zn9       1.0  0.0039819849999999804  0.42644003  0.5214861465895148  1.0000
  Zn  Zn10      1.0  0.03997186499999998  0.9021207600000001  0.4998387473145006  1.0000
  Zn  Zn11      1.0  0.5399718649999999  0.40212076  0.4998387473145006  1.0000
  Zn  Zn12      1.0  0.5450642549999999  0.8911666300000001  0.5180755255708551  1.0000
  Zn  Zn13      1.0  0.5399718649999999  0.15212076000000002  0.48593482389563386  1.0000
  Zn  Zn14      1.0  0.513160125  0.6619457  0.5142057447588854  1.0000
  Zn  Zn15      1.0  0.9960180150000001  0.15903448000000006  0.5142816368160897  1.0000
  Zn  Zn16      1.0  0.03997186499999998  0.65212076  0.48593482389563386  1.0000
  Ge  Ge5       1.0  0.03997186499999998  0.27712076  0.4928867872735379  1.0000
  Ge  Ge6       1.0  0.9744168550000001  0.7804152300000001  0.5247807721897828  1.0000
  Ge  Ge7       1.0  0.5395532949999999  0.030065220000000042  0.5065955096340446  1.0000
  Ge  Ge8       1.0  0.7039602250000001  0.5120566  0.529553098866595  1.0000
  Se  Se17      1.0  0.291861945  0.33547710000000003  0.48212327271028377  1.0000
  Se  Se18      1.0  0.242676425  0.8286951400000002  0.5095827061643494  1.0000
  Se  Se19      1.0  0.7111597150000001  0.17159842000000003  0.5327674743642509  1.0000
  Se  Se20      1.0  0.788081785  0.7187644200000001  0.5034400611837515  1.0000
  Se  Se21      1.0  0.7899434250000001  0.33440933  0.5106810971172329  1.0000
  Se  Se22      1.0  0.788081785  0.8354771  0.4823335100263829  1.0000
  Se  Se23      1.0  0.291861945  0.21876442000000004  0.5036502984998507  1.0000
  Se  Se24      1.0  0.26022418499999994  0.71797331  0.5319291813051717  1.0000
  Se  Se25      1.0  0.7918619450000001  0.08547710000000004  0.4960271961291506  1.0000
  Se  Se26      1.0  0.778858185  0.61118684  0.5299707938266456  1.0000
  Se  Se27      1.0  0.33351132499999997  0.47975095  0.517283609322708  1.0000
  Se  Se28      1.0  0.288081785  0.9687644199999998  0.48953614110182603  1.0000
  Se  Se29      1.0  0.377039535  0.10973559000000005  0.5255163942372953  1.0000
  Se  Se30      1.0  0.288081785  0.5854771000000001  0.49623743344524973  1.0000
  Se  Se31      1.0  0.7918619450000001  0.46876442  0.48974637508098384  1.0000
  Se  Se32      1.0  0.8011751650000002  0.9728792399999998  0.5181987955213975  1.0000
