data_image0
_chemical_formula_structural       COAl30Mo6
_chemical_formula_sum              "C1 O1 Al30 Mo6"
_cell_length_a       4.9806970801429165
_cell_length_b       4.98069708
_cell_length_c       122.70897916999999
_cell_angle_alpha    90.0
_cell_angle_beta     90.0
_cell_angle_gamma    119.99999999905081

_space_group_name_H-M_alt    "P 1"
_space_group_IT_number       1

loop_
  _space_group_symop_operation_xyz
  'x, y, z'

loop_
  _atom_site_type_symbol
  _atom_site_label
  _atom_site_symmetry_multiplicity
  _atom_site_fract_x
  _atom_site_fract_y
  _atom_site_fract_z
  _atom_site_occupancy
  C   C1        1.0  0.8281813299999999  0.62778591  0.6008152662616457  1.0000
  O   O1        1.0  0.8310509799999999  0.6010812899999999  0.61045281666483  1.0000
  Al  Al1       1.0  0.83333333  0.83336822  0.5327287189780155  1.0000
  Al  Al2       1.0  0.5  0.82054007  0.4795746882931558  1.0000
  Al  Al3       1.0  0.83333333  0.1795297  0.5153700743515902  1.0000
  Al  Al4       1.0  0.83333333  0.83336822  0.4980114297251649  1.0000
  Al  Al5       1.0  0.17949481  0.8333682199999998  0.5153700743515902  1.0000
  Al  Al6       1.0  0.5  0.1667015499999999  0.4622160436667305  1.0000
  Al  Al7       1.0  0.15383851999999998  0.1667015499999999  0.4795746882931558  1.0000
  Al  Al8       1.0  0.5  0.1667015499999999  0.4969333329195812  1.0000
  Al  Al9       1.0  0.4871718499999999  0.48720673999999997  0.5153700743515902  1.0000
  Al  Al10      1.0  0.84616148  0.5128630299999999  0.4795746882931558  1.0000
  Al  Al11      1.0  0.16666665999999994  0.5000348899999998  0.46113795115659284  1.0000
  Al  Al12      1.0  0.83333333  0.48720673999999997  0.40798392476717915  1.0000
  Al  Al13      1.0  0.16666665999999994  0.8461963699999999  0.44377930653016756  1.0000
  Al  Al14      1.0  0.16666665999999994  0.5000348899999998  0.42642066190374217  1.0000
  Al  Al15      1.0  0.5128281399999999  0.5000348899999999  0.44377930653016756  1.0000
  Al  Al16      1.0  0.83333333  0.83336822  0.39062528014075387  1.0000
  Al  Al17      1.0  0.4871718499999999  0.8333682199999998  0.40798392476717915  1.0000
  Al  Al18      1.0  0.83333333  0.83336822  0.42534256939360443  1.0000
  Al  Al19      1.0  0.82050518  0.15387340999999993  0.44377930653016756  1.0000
  Al  Al20      1.0  0.17949481  0.17952969999999996  0.40798392476717915  1.0000
  Al  Al21      1.0  0.5  0.1667015499999999  0.38954718333517013  1.0000
  Al  Al22      1.0  0.16666665999999994  0.15387340999999988  0.5511654561145786  1.0000
  Al  Al23      1.0  0.4997439699999999  0.5092361499999999  0.587929267651749  1.0000
  Al  Al24      1.0  0.49952859999999993  0.16789512999999986  0.5696906235976014  1.0000
  Al  Al25      1.0  0.83148191  0.1538036299999999  0.5871008479393951  1.0000
  Al  Al26      1.0  0.16666665999999994  0.5000348899999998  0.5338068114881532  1.0000
  Al  Al27      1.0  0.82050518  0.5000348899999999  0.5511654561145786  1.0000
  Al  Al28      1.0  0.1629311499999999  0.5002864799999999  0.5689623264356738  1.0000
  Al  Al29      1.0  0.16212206999999998  0.8401118299999998  0.5879079364669956  1.0000
  Al  Al30      1.0  0.5128281399999999  0.8461963699999999  0.5511654561145786  1.0000
  Mo  Mo1       1.0  0.16666665999999994  0.5000348899999998  0.49747238132237304  1.0000
  Mo  Mo2       1.0  0.5  0.1667015499999999  0.5332677630853614  1.0000
  Mo  Mo3       1.0  0.5  0.1667015499999999  0.42588161350095033  1.0000
  Mo  Mo4       1.0  0.83333333  0.83336822  0.4616769995593847  1.0000
  Mo  Mo5       1.0  0.83135996  0.8288607699999999  0.5688141292538015  1.0000
  Mo  Mo6       1.0  0.16666665999999994  0.5000348899999998  0.390086231737962  1.0000
