data_image0
_chemical_formula_structural       COAu24Ga12Au24Ga12
_chemical_formula_sum              "C1 O1 Au48 Ga24"
_cell_length_a       6.818412525450978
_cell_length_b       11.63204329085144
_cell_length_c       120.30455194999999
_cell_angle_alpha    84.99392383715768
_cell_angle_beta     88.05812268798971
_cell_angle_gamma    81.57331599477173

_space_group_name_H-M_alt    "P 1"
_space_group_IT_number       1

loop_
  _space_group_symop_operation_xyz
  'x, y, z'

loop_
  _atom_site_type_symbol
  _atom_site_label
  _atom_site_symmetry_multiplicity
  _atom_site_fract_x
  _atom_site_fract_y
  _atom_site_fract_z
  _atom_site_occupancy
  C   C1        1.0  0.461268565  0.37337998499999997  0.5697489625875611  1.0000
  O   O1        1.0  0.456821445  0.376606565  0.5793507012063295  1.0000
  Au  Au1       1.0  0.14742719499999996  0.9595020450000001  0.4282640618862714  1.0000
  Au  Au2       1.0  0.425204965  0.626168705  0.5211848120095117  1.0000
  Au  Au3       1.0  0.03631607499999999  0.292835375  0.47472443694789157  1.0000
  Au  Au4       1.0  0.432803745  0.689694575  0.481912376004193  1.0000
  Au  Au5       1.0  0.04391485500000001  0.356361245  0.43545200094257297  1.0000
  Au  Au6       1.0  0.318715065  0.029708095000000007  0.5276553926464056  1.0000
  Au  Au7       1.0  0.12941961499999993  0.9718958750000001  0.45320064028186174  1.0000
  Au  Au8       1.0  0.400060385  0.657847615  0.5462396873486631  1.0000
  Au  Au9       1.0  0.018308505  0.305229215  0.4996610153434819  1.0000
  Au  Au10      1.0  0.479652985  0.590775705  0.44491584005613816  1.0000
  Au  Au11      1.0  0.277697445  0.242060785  0.5390701424196364  1.0000
  Au  Au12      1.0  0.368541885  0.924109035  0.49137621511775825  1.0000
  Au  Au13      1.0  0.342237095  0.07957405500000002  0.47036623303674796  1.0000
  Au  Au14      1.0  0.453348205  0.746240725  0.42390585797512786  1.0000
  Au  Au15      1.0  0.23112598500000003  0.41290738499999996  0.5168266080983681  1.0000
  Au  Au16      1.0  0.188171135  0.7190906950000001  0.46064324120072386  1.0000
  Au  Au17      1.0  0.46836707499999997  0.394296545  0.5529258376235462  1.0000
  Au  Au18      1.0  0.077060015  0.05242402500000001  0.5071036162623439  1.0000
  Au  Au19      1.0  0.34742818500000006  0.13501797499999998  0.4385002494551133  1.0000
  Au  Au20      1.0  0.12355210499999997  0.8116882950000002  0.5308732108437304  1.0000
  Au  Au21      1.0  0.236317065  0.468351315  0.48496062451673344  1.0000
  Au  Au22      1.0  0.272270205  0.395776295  0.4551731355027891  1.0000
  Au  Au23      1.0  0.048209804999999994  0.04027550500000002  0.5476366834731922  1.0000
  Au  Au24      1.0  0.16115908500000006  0.729109635  0.5016335105644092  1.0000
  Ga  Ga1       1.0  0.421186245  0.8267821650000001  0.44402123483949435  1.0000
  Ga  Ga2       1.0  0.21881720500000004  0.49533223499999995  0.5370027788287145  1.0000
  Ga  Ga3       1.0  0.31007513499999995  0.16011549500000002  0.4904816099011145  1.0000
  Ga  Ga4       1.0  0.13829311500000002  0.8846691750000001  0.47483233884703246  1.0000
  Ga  Ga5       1.0  0.24940422499999998  0.551335845  0.4283719637854123  1.0000
  Ga  Ga6       1.0  0.027182005000000006  0.21800251499999998  0.5212927139086526  1.0000
  Ga  Ga7       1.0  0.4816914950000001  0.529544615  0.4671096738552908  1.0000
  Ga  Ga8       1.0  0.092802605  0.19621127500000002  0.4206492987936707  1.0000
  Ga  Ga9       1.0  0.3705803749999999  0.8628779450000001  0.5135700489169109  1.0000
  Ga  Ga10      1.0  0.070218585  0.204614595  0.45490894833403805  1.0000
  Ga  Ga11      1.0  0.341481685  0.871624005  0.5512030576289971  1.0000
  Ga  Ga12      1.0  0.459107465  0.537947935  0.5013693233956581  1.0000
  Au  Au25      1.0  0.6474271949999998  0.9595020450000001  0.4282640618862714  1.0000
  Au  Au26      1.0  0.9252049649999999  0.626168705  0.5211848120095117  1.0000
  Au  Au27      1.0  0.5363160749999999  0.292835375  0.47472443694789157  1.0000
  Au  Au28      1.0  0.932803745  0.689694575  0.481912376004193  1.0000
  Au  Au29      1.0  0.5439148549999999  0.356361245  0.43545200094257297  1.0000
  Au  Au30      1.0  0.821272825  0.02810412500000001  0.5274808595997038  1.0000
  Au  Au31      1.0  0.6294196150000001  0.9718958750000001  0.45320064028186174  1.0000
  Au  Au32      1.0  0.905573795  0.648203875  0.5453631710146266  1.0000
  Au  Au33      1.0  0.518308505  0.305229215  0.4996610153434819  1.0000
  Au  Au34      1.0  0.9796529850000001  0.590775705  0.44491584005613816  1.0000
  Au  Au35      1.0  0.743405885  0.242927715  0.538789802372126  1.0000
  Au  Au36      1.0  0.8685418850000001  0.924109035  0.49137621511775825  1.0000
  Au  Au37      1.0  0.8422370950000001  0.07957405500000002  0.47036623303674796  1.0000
  Au  Au38      1.0  0.9533482050000001  0.746240725  0.42390585797512786  1.0000
  Au  Au39      1.0  0.731125985  0.41290738499999996  0.5168266080983681  1.0000
  Au  Au40      1.0  0.688171135  0.7190906950000001  0.46064324120072386  1.0000
  Au  Au41      1.0  0.9666754350000001  0.38995329500000003  0.5491261561875836  1.0000
  Au  Au42      1.0  0.5770600149999999  0.05242402500000001  0.5071036162623439  1.0000
  Au  Au43      1.0  0.847428185  0.13501797499999998  0.4385002494551133  1.0000
  Au  Au44      1.0  0.621202985  0.811864625  0.530991599778835  1.0000
  Au  Au45      1.0  0.736317065  0.468351315  0.48496062451673344  1.0000
  Au  Au46      1.0  0.7722702050000001  0.395776295  0.4551731355027891  1.0000
  Au  Au47      1.0  0.563293355  0.03458222500000001  0.5478821461813985  1.0000
  Au  Au48      1.0  0.6611590850000002  0.729109635  0.5016335105644092  1.0000
  Ga  Ga13      1.0  0.9211862449999999  0.8267821650000001  0.44402123483949435  1.0000
  Ga  Ga14      1.0  0.6788105149999999  0.49730345500000006  0.5369126480232123  1.0000
  Ga  Ga15      1.0  0.8100751350000001  0.16011549500000002  0.4904816099011145  1.0000
  Ga  Ga16      1.0  0.6382931149999999  0.8846691750000001  0.47483233884703246  1.0000
  Ga  Ga17      1.0  0.749404225  0.551335845  0.4283719637854123  1.0000
  Ga  Ga18      1.0  0.527182005  0.21800251499999998  0.5212927139086526  1.0000
  Ga  Ga19      1.0  0.981691495  0.529544615  0.4671096738552908  1.0000
  Ga  Ga20      1.0  0.592802605  0.19621127500000002  0.4206492987936707  1.0000
  Ga  Ga21      1.0  0.8705803750000001  0.8628779450000001  0.5135700489169109  1.0000
  Ga  Ga22      1.0  0.5702185849999999  0.204614595  0.45490894833403805  1.0000
  Ga  Ga23      1.0  0.8515641249999999  0.8616749350000001  0.5509300392720662  1.0000
  Ga  Ga24      1.0  0.959107465  0.537947935  0.5013693233956582  1.0000
