data_image0
_chemical_formula_structural       CORh6Sn2Rh6Sn2
_chemical_formula_sum              "C1 O1 Rh12 Sn4"
_cell_length_a       8.09844912
_cell_length_b       4.790399857994874
_cell_length_c       41.25524327
_cell_angle_alpha    85.91438883355444
_cell_angle_beta     90.0
_cell_angle_gamma    115.00134371212145

_space_group_name_H-M_alt    "P 1"
_space_group_IT_number       1

loop_
  _space_group_symop_operation_xyz
  'x, y, z'

loop_
  _atom_site_type_symbol
  _atom_site_label
  _atom_site_symmetry_multiplicity
  _atom_site_fract_x
  _atom_site_fract_y
  _atom_site_fract_z
  _atom_site_occupancy
  C   C1        1.0  0.12315504500000002  0.958065655  0.5732241691440535  1.0000
  O   O1        1.0  0.13975642500000002  0.9309577450000001  0.6018476396228346  1.0000
  Rh  Rh1       1.0  0.32996697500000005  0.46082516500000004  0.5071834677884426  1.0000
  Rh  Rh2       1.0  0.020950495000000003  0.211642185  0.5450388733354363  1.0000
  Rh  Rh3       1.0  0.17116031499999998  0.826589765  0.5312958740188631  1.0000
  Rh  Rh4       1.0  0.44507888500000004  0.9416631750000001  0.4199259236048414  1.0000
  Rh  Rh5       1.0  0.132578885  0.691663175  0.4634730500601934  1.0000
  Rh  Rh6       1.0  0.28882888500000004  0.316663175  0.44169948683251736  1.0000
  Sn  Sn1       1.0  0.47699646500000004  0.0640727350000001  0.4845729287902947  1.0000
  Sn  Sn2       1.0  0.10132888500000001  0.566663175  0.39815236037716534  1.0000
  Rh  Rh7       1.0  0.8224141749999999  0.463111275  0.5066664344979233  1.0000
  Rh  Rh8       1.0  0.5263492449999999  0.232444025  0.5450317246391574  1.0000
  Rh  Rh9       1.0  0.672247315  0.8404775250000001  0.5276982333924094  1.0000
  Rh  Rh10      1.0  0.9450788850000001  0.9416631750000001  0.4199259236048414  1.0000
  Rh  Rh11      1.0  0.632578885  0.691663175  0.4634730500601934  1.0000
  Rh  Rh12      1.0  0.788828885  0.316663175  0.44169948683251736  1.0000
  Sn  Sn3       1.0  0.9790495050000001  0.06904225500000005  0.48447748045664485  1.0000
  Sn  Sn4       1.0  0.601328885  0.566663175  0.39815236037716534  1.0000
