data_image0
_chemical_formula_structural       COTi4Au4Ti4Au4Ti4Au4Ti4Au4
_chemical_formula_sum              "C1 O1 Ti16 Au16"
_cell_length_a       6.773569351510219
_cell_length_b       6.03815426
_cell_length_c       103.86784677
_cell_angle_alpha    90.0
_cell_angle_beta     93.7399438393301
_cell_angle_gamma    90.0

_space_group_name_H-M_alt    "P 1"
_space_group_IT_number       1

loop_
  _space_group_symop_operation_xyz
  'x, y, z'

loop_
  _atom_site_type_symbol
  _atom_site_label
  _atom_site_symmetry_multiplicity
  _atom_site_fract_x
  _atom_site_fract_y
  _atom_site_fract_z
  _atom_site_occupancy
  C   C1        1.0  0.008162735000000055  0.5000000500000001  0.5616184657564761  1.0000
  O   O1        1.0  0.008024035000000054  0.50000003  0.5728770437492893  1.0000
  Ti  Ti1       1.0  0.7169963950000002  6.000000001813559e-08  0.4963564784441766  1.0000
  Ti  Ti2       1.0  0.22648955500000006  2.0000000100495186e-08  0.5292432176310408  1.0000
  Ti  Ti3       1.0  0.27864299500000006  6.000000001813559e-08  0.4923362976709779  1.0000
  Ti  Ti4       1.0  0.7813377950000002  0.99999998  0.5262569585187226  1.0000
  Au  Au1       1.0  0.46400053500000016  0.25000006  0.5128551831881373  1.0000
  Au  Au2       1.0  0.9919759650000001  0.25344654  0.5445905384435547  1.0000
  Au  Au3       1.0  0.5326341450000002  0.24900162000000003  0.5420178982098617  1.0000
  Au  Au4       1.0  0.03163885500000006  0.25000006  0.5084442636371508  1.0000
  Ti  Ti5       1.0  0.7169963950000002  6.000000001813559e-08  0.43114313702390944  1.0000
  Ti  Ti6       1.0  0.21699639500000006  6.000000001813559e-08  0.46374980773404306  1.0000
  Ti  Ti7       1.0  0.27864299500000006  6.000000001813559e-08  0.42712295625071084  1.0000
  Ti  Ti8       1.0  0.7786429950000001  6.000000001813559e-08  0.4597296269608444  1.0000
  Au  Au5       1.0  0.46400053500000016  0.25000006  0.44764184176787014  1.0000
  Au  Au6       1.0  0.9640005350000003  0.25000006  0.48024851247800365  1.0000
  Au  Au7       1.0  0.5316388550000001  0.25000006  0.47583759292701716  1.0000
  Au  Au8       1.0  0.03163885500000006  0.25000006  0.44323092221688365  1.0000
  Ti  Ti9       1.0  0.7169963950000002  0.5000000600000001  0.4963564784441766  1.0000
  Ti  Ti10      1.0  0.23243504500000006  0.5000000600000001  0.5289862672838436  1.0000
  Ti  Ti11      1.0  0.27864299500000006  0.5000000600000001  0.4923362976709779  1.0000
  Ti  Ti12      1.0  0.7707167950000001  0.5000000600000001  0.5251123632961178  1.0000
  Au  Au9       1.0  0.46400053500000016  0.7500000600000001  0.5128551831881373  1.0000
  Au  Au10      1.0  0.9919759550000002  0.7465535200000001  0.5445904960548827  1.0000
  Au  Au11      1.0  0.5326341150000001  0.7509984300000001  0.5420179242951982  1.0000
  Au  Au12      1.0  0.03163885500000006  0.7500000600000001  0.5084442636371508  1.0000
  Ti  Ti13      1.0  0.7169963950000002  0.5000000600000001  0.43114313702390944  1.0000
  Ti  Ti14      1.0  0.21699639500000006  0.5000000600000001  0.46374980773404306  1.0000
  Ti  Ti15      1.0  0.27864299500000006  0.5000000600000001  0.42712295625071084  1.0000
  Ti  Ti16      1.0  0.7786429950000001  0.5000000600000001  0.4597296269608444  1.0000
  Au  Au13      1.0  0.46400053500000016  0.7500000600000001  0.44764184176787014  1.0000
  Au  Au14      1.0  0.9640005350000003  0.7500000600000001  0.48024851247800365  1.0000
  Au  Au15      1.0  0.5316388550000001  0.7500000600000001  0.47583759292701716  1.0000
  Au  Au16      1.0  0.03163885500000006  0.7500000600000001  0.44323092221688365  1.0000
