data_image0
_chemical_formula_structural       COZn3Ag9
_chemical_formula_sum              "C1 O1 Zn3 Ag9"
_cell_length_a       5.86276186
_cell_length_b       5.862761862512768
_cell_length_c       98.7215501
_cell_angle_alpha    90.0
_cell_angle_beta     90.0
_cell_angle_gamma    60.000000014177914

_space_group_name_H-M_alt    "P 1"
_space_group_IT_number       1

loop_
  _space_group_symop_operation_xyz
  'x, y, z'

loop_
  _atom_site_type_symbol
  _atom_site_label
  _atom_site_symmetry_multiplicity
  _atom_site_fract_x
  _atom_site_fract_y
  _atom_site_fract_z
  _atom_site_occupancy
  C   C1        1.0  0.139133  0.83438094  0.5270250777786237  1.0000
  O   O1        1.0  0.15446792000000006  0.7939951899999999  0.5387963643941488  1.0000
  Zn  Zn1       1.0  0.6699563  0.7612997  0.46120363560585126  1.0000
  Zn  Zn2       1.0  0.9899512699999999  0.10864963000000004  0.5104684900532419  1.0000
  Zn  Zn3       1.0  0.33941724999999995  0.4193886700000001  0.48539046684681936  1.0000
  Ag  Ag1       1.0  0.84039054  0.91658401  0.4856226445812511  1.0000
  Ag  Ag2       1.0  0.16995630000000003  0.26129969999999997  0.46120363560585126  1.0000
  Ag  Ag3       1.0  0.51348175  0.5741548000000001  0.5106338225715654  1.0000
  Ag  Ag4       1.0  0.33842263  0.91392753  0.4859521982463558  1.0000
  Ag  Ag5       1.0  0.6699563000000001  0.26129969999999997  0.46120363560585126  1.0000
  Ag  Ag6       1.0  0.010048729999999968  0.57527088  0.5099112535988172  1.0000
  Ag  Ag7       1.0  0.84263593  0.41288361  0.4859129947606725  1.0000
  Ag  Ag8       1.0  0.16995630000000006  0.7612997  0.46120363560585126  1.0000
  Ag  Ag9       1.0  0.5079538199999999  0.08341599000000004  0.5095844405410234  1.0000
