data_image0
_chemical_formula_structural       COCr6Os6V12
_chemical_formula_sum              "C1 O1 Cr6 Os6 V12"
_cell_length_a       5.94888696
_cell_length_b       7.285868790462514
_cell_length_c       102.0357367
_cell_angle_alpha    94.34775317040358
_cell_angle_beta     90.0
_cell_angle_gamma    114.09484256718326

_space_group_name_H-M_alt    "P 1"
_space_group_IT_number       1

loop_
  _space_group_symop_operation_xyz
  'x, y, z'

loop_
  _atom_site_type_symbol
  _atom_site_label
  _atom_site_symmetry_multiplicity
  _atom_site_fract_x
  _atom_site_fract_y
  _atom_site_fract_z
  _atom_site_occupancy
  C   C1        1.0  0.6743781550000001  0.17683423499999998  0.5392034320743342  1.0000
  O   O1        1.0  0.7061709949999999  0.15720116499999992  0.5503162219026339  1.0000
  Cr  Cr1       1.0  0.6971512849999999  0.357070685  0.49543374191567785  1.0000
  Cr  Cr2       1.0  0.27932144499999995  0.5212919349999999  0.46930664365903557  1.0000
  Cr  Cr3       1.0  0.08327244499999999  0.13765389499999994  0.5194188709607781  1.0000
  Cr  Cr4       1.0  0.9876547749999999  0.937958605  0.4823885519403762  1.0000
  Cr  Cr5       1.0  0.570988115  0.10462526499999998  0.45622473223803645  1.0000
  Cr  Cr6       1.0  0.4057212050000001  0.761091915  0.508274430235242  1.0000
  Os  Os1       1.0  0.197218865  0.35405503499999996  0.4956273960513329  1.0000
  Os  Os2       1.0  0.7793214449999999  0.5212919349999999  0.46930664365903557  1.0000
  Os  Os3       1.0  0.638817635  0.21064005499999996  0.520913169441421  1.0000
  Os  Os4       1.0  0.48765477499999993  0.937958605  0.4823885519403762  1.0000
  Os  Os5       1.0  0.070988115  0.10462526499999998  0.45622473223803645  1.0000
  Os  Os6       1.0  0.9073420949999998  0.7674585449999999  0.5082840721264644  1.0000
  V   V1        1.0  0.46682144499999995  0.396291935  0.4496837780973662  1.0000
  V   V2        1.0  0.30078479499999994  0.06253748499999998  0.5022088455072055  1.0000
  V   V3        1.0  0.8834881149999999  0.2296252649999999  0.4758475977997059  1.0000
  V   V4        1.0  0.5206032249999999  0.48446266499999996  0.5147257691036361  1.0000
  V   V5        1.0  0.09182144500000002  0.6462919349999999  0.48892950922070505  1.0000
  V   V6        1.0  0.675154775  0.8129586049999998  0.4627656863787068  1.0000
  V   V7        1.0  0.012345225000000024  0.486527385  0.5147173045843474  1.0000
  V   V8        1.0  0.591821445  0.6462919349999999  0.48892950922070505  1.0000
  V   V9        1.0  0.17515477499999993  0.8129586049999998  0.4627656863787068  1.0000
  V   V10       1.0  0.966821445  0.396291935  0.4496837780973662  1.0000
  V   V11       1.0  0.803081925  0.062041394999999964  0.5020534104343477  1.0000
  V   V12       1.0  0.38348811499999996  0.2296252649999999  0.4758475977997059  1.0000
