data_image0
_chemical_formula_structural       CORu6W2Ru6W2
_chemical_formula_sum              "C1 O1 Ru12 W4"
_cell_length_a       5.51069602
_cell_length_b       5.510696023590715
_cell_length_c       100.63604432
_cell_angle_alpha    90.0
_cell_angle_beta     90.0
_cell_angle_gamma    119.99999997844557

_space_group_name_H-M_alt    "P 1"
_space_group_IT_number       1

loop_
  _space_group_symop_operation_xyz
  'x, y, z'

loop_
  _atom_site_type_symbol
  _atom_site_label
  _atom_site_symmetry_multiplicity
  _atom_site_fract_x
  _atom_site_fract_y
  _atom_site_fract_z
  _atom_site_occupancy
  C   C1        1.0  0.9986561949999999  0.21501999999999996  0.5367382102824436  1.0000
  O   O1        1.0  0.9991280549999999  0.24986560999999996  0.5482603302713431  1.0000
  Ru  Ru1       1.0  0.33193714499999993  0.33329221  0.45173966972865687  1.0000
  Ru  Ru2       1.0  0.831708495  0.8330635599999999  0.45173966972865687  1.0000
  Ru  Ru3       1.0  0.3319371449999999  0.8330635599999999  0.45173966972865687  1.0000
  Ru  Ru4       1.0  0.9984513849999999  0.6663206700000001  0.4734842529047996  1.0000
  Ru  Ru5       1.0  0.49868003499999997  0.16654932000000003  0.4734842529047996  1.0000
  Ru  Ru6       1.0  0.9984513849999999  0.16654932000000003  0.4734842529047996  1.0000
  W   W1        1.0  0.49852759499999993  0.66647311  0.4734842529047996  1.0000
  W   W2        1.0  0.8318609349999999  0.33313976999999995  0.45173966972865687  1.0000
  Ru  Ru7       1.0  0.33161774499999996  0.33337205000000003  0.4954773010004654  1.0000
  Ru  Ru8       1.0  0.831690235  0.8339278  0.49546005841544527  1.0000
  Ru  Ru9       1.0  0.33207420499999996  0.83285769  0.49551750325642885  1.0000
  Ru  Ru10      1.0  0.9963745950000001  0.66502532  0.5163853509098582  1.0000
  Ru  Ru11      1.0  0.502565905  0.16891106  0.516432010002479  1.0000
  Ru  Ru12      1.0  0.0013438050000000867  0.16607220000000003  0.5180784211556053  1.0000
  W   W3        1.0  0.49996017499999995  0.6666696000000001  0.5152471941749226  1.0000
  W   W4        1.0  0.831437625  0.33333231999999996  0.49599947064749245  1.0000
