data_image0
_chemical_formula_structural       COV2Ru6V2Ru6
_chemical_formula_sum              "C1 O1 V4 Ru12"
_cell_length_a       5.46737956
_cell_length_b       5.467379559054486
_cell_length_c       99.81957762
_cell_angle_alpha    90.0
_cell_angle_beta     90.0
_cell_angle_gamma    120.00000000572074

_space_group_name_H-M_alt    "P 1"
_space_group_IT_number       1

loop_
  _space_group_symop_operation_xyz
  'x, y, z'

loop_
  _atom_site_type_symbol
  _atom_site_label
  _atom_site_symmetry_multiplicity
  _atom_site_fract_x
  _atom_site_fract_y
  _atom_site_fract_z
  _atom_site_occupancy
  C   C1        1.0  0.7525486600000001  0.605981985  0.5360944646348094  1.0000
  O   O1        1.0  0.70242598  0.566467475  0.5476167300714447  1.0000
  V   V1        1.0  0.33167667000000006  0.670234375  0.47372146668499826  1.0000
  V   V2        1.0  0.66501001  0.33690103500000007  0.45238326992855515  1.0000
  Ru  Ru1       1.0  0.16822141000000004  0.343323845  0.45238326992855515  1.0000
  Ru  Ru2       1.0  0.6585872000000002  0.833689635  0.45238326992855515  1.0000
  Ru  Ru3       1.0  0.16822141000000004  0.833689635  0.45238326992855515  1.0000
  Ru  Ru4       1.0  0.8284652699999999  0.663811565  0.47372146668499826  1.0000
  Ru  Ru5       1.0  0.33809948000000006  0.17344577500000005  0.47372146668499826  1.0000
  Ru  Ru6       1.0  0.8284652699999999  0.17344577500000005  0.47372146668499826  1.0000
  V   V3        1.0  0.33029396000000005  0.667852765  0.5145062507825543  1.0000
  V   V4        1.0  0.6590425200000001  0.32434189500000005  0.49735155951184284  1.0000
  Ru  Ru7       1.0  0.16754291000000004  0.340652485  0.4953990858763952  1.0000
  Ru  Ru8       1.0  0.66228285  0.833861655  0.4953651585696378  1.0000
  Ru  Ru9       1.0  0.16644534000000005  0.833598885  0.49529313660621327  1.0000
  Ru  Ru10      1.0  0.8335546599999999  0.6729722850000001  0.5174896371652782  1.0000
  Ru  Ru11      1.0  0.3326217600000001  0.16613834500000005  0.5162731234986105  1.0000
  Ru  Ru12      1.0  0.8272959500000001  0.17083136500000007  0.5162850191167762  1.0000
