data_image0
_chemical_formula_structural       COOs2Ru6Os2Ru6
_chemical_formula_sum              "C1 O1 Os4 Ru12"
_cell_length_a       5.46736499
_cell_length_b       5.467364989813889
_cell_length_c       100.23971237
_cell_angle_alpha    90.0
_cell_angle_beta     90.0
_cell_angle_gamma    120.00000006163003

_space_group_name_H-M_alt    "P 1"
_space_group_IT_number       1

loop_
  _space_group_symop_operation_xyz
  'x, y, z'

loop_
  _atom_site_type_symbol
  _atom_site_label
  _atom_site_symmetry_multiplicity
  _atom_site_fract_x
  _atom_site_fract_y
  _atom_site_fract_z
  _atom_site_occupancy
  C   C1        1.0  0.34530380000000005  0.6664496700000001  0.5361461682889475  1.0000
  O   O1        1.0  0.35380449  0.66643958  0.547857791503311  1.0000
  Os  Os1       1.0  0.66744547  0.33258191  0.45214220849668907  1.0000
  Os  Os2       1.0  0.33411212999999995  0.66591525  0.4736903490562669  1.0000
  Ru  Ru1       1.0  0.8333351800000001  0.16669219999999998  0.4736903490562669  1.0000
  Ru  Ru2       1.0  0.33566604  0.16669219999999998  0.4736903490562669  1.0000
  Ru  Ru3       1.0  0.8333351800000001  0.66436134  0.4736903490562669  1.0000
  Ru  Ru4       1.0  0.16822242  0.8318049600000001  0.45214220849668907  1.0000
  Ru  Ru5       1.0  0.66589156  0.8318049600000001  0.45214220849668907  1.0000
  Ru  Ru6       1.0  0.16822241999999996  0.33413582  0.45214220849668907  1.0000
  Os  Os3       1.0  0.6678994200000001  0.33197202  0.4951186647134245  1.0000
  Os  Os4       1.0  0.33414308  0.6667946  0.5171005430624098  1.0000
  Ru  Ru7       1.0  0.8330686599999999  0.16829014  0.5157143149516115  1.0000
  Ru  Ru8       1.0  0.34092751000000004  0.16903534  0.515756606626008  1.0000
  Ru  Ru9       1.0  0.83159157  0.6590409599999999  0.5157528809524307  1.0000
  Ru  Ru10      1.0  0.16666482  0.8333078  0.495029354133461  1.0000
  Ru  Ru11      1.0  0.6709880699999999  0.83233335  0.49502503114541546  1.0000
  Ru  Ru12      1.0  0.16778776  0.3290581  0.4950281082199489  1.0000
