data_image0
_chemical_formula_structural       COIr8Ti8
_chemical_formula_sum              "C1 O1 Ir8 Ti8"
_cell_length_a       4.570966200797871
_cell_length_b       5.445534796209818
_cell_length_c       104.70183245
_cell_angle_alpha    87.75582221907979
_cell_angle_beta     87.32615404310789
_cell_angle_gamma    82.21079582263692

_space_group_name_H-M_alt    "P 1"
_space_group_IT_number       1

loop_
  _space_group_symop_operation_xyz
  'x, y, z'

loop_
  _atom_site_type_symbol
  _atom_site_label
  _atom_site_symmetry_multiplicity
  _atom_site_fract_x
  _atom_site_fract_y
  _atom_site_fract_z
  _atom_site_occupancy
  C   C1        1.0  0.48885746500000016  0.887488605  0.5395159703813793  1.0000
  O   O1        1.0  0.277250045  0.904731965  0.5485549865965414  1.0000
  Ir  Ir1       1.0  0.49514749500000016  0.464285715  0.4987928431459189  1.0000
  Ir  Ir2       1.0  0.9015957750000001  0.424296265  0.5317879942914834  1.0000
  Ir  Ir3       1.0  0.42253874500000016  0.7601672150000001  0.5217477135007322  1.0000
  Ir  Ir4       1.0  0.9521556950000001  0.09952110500000001  0.5105587691291945  1.0000
  Ir  Ir5       1.0  0.6380046350000002  0.892857145  0.45144501340345866  1.0000
  Ir  Ir6       1.0  0.030861775000000022  0.821428575  0.48695588736747786  1.0000
  Ir  Ir7       1.0  0.566576065  0.17857143500000003  0.47511892827468877  1.0000
  Ir  Ir8       1.0  0.10229034500000007  0.5357142850000001  0.46328197249624775  1.0000
  Ti  Ti1       1.0  0.4368200650000001  0.25342501500000003  0.5244531761219784  1.0000
  Ti  Ti2       1.0  0.9691382250000002  0.6090418849999999  0.5108998619545244  1.0000
  Ti  Ti3       1.0  0.49514749500000016  0.9642857149999999  0.49879284314591893  1.0000
  Ti  Ti4       1.0  0.9455407150000003  0.921584935  0.5368666727038535  1.0000
  Ti  Ti5       1.0  0.566576065  0.678571435  0.4751189282746887  1.0000
  Ti  Ti6       1.0  0.10229034500000006  0.03571428500000003  0.46328197249624775  1.0000
  Ti  Ti7       1.0  0.6380046350000002  0.39285714499999996  0.45144501340345866  1.0000
  Ti  Ti8       1.0  0.03086177500000006  0.321428575  0.48695588736747797  1.0000
