data_image0
_chemical_formula_structural       CONi2Rh4Se8
_chemical_formula_sum              "C1 O1 Ni2 Rh4 Se8"
_cell_length_a       6.442458477472384
_cell_length_b       6.460956894505441
_cell_length_c       98.35583195
_cell_angle_alpha    92.37255941269346
_cell_angle_beta     90.65745725294143
_cell_angle_gamma    118.2544918196732

_space_group_name_H-M_alt    "P 1"
_space_group_IT_number       1

loop_
  _space_group_symop_operation_xyz
  'x, y, z'

loop_
  _atom_site_type_symbol
  _atom_site_label
  _atom_site_symmetry_multiplicity
  _atom_site_fract_x
  _atom_site_fract_y
  _atom_site_fract_z
  _atom_site_occupancy
  C   C1        1.0  0.72553728  0.7383020449999999  0.5362169468485242  1.0000
  O   O1        1.0  0.6706698399999999  0.7100387250000001  0.547520583411756  1.0000
  Ni  Ni1       1.0  0.4827283999999999  0.07524049500000006  0.4912597530722788  1.0000
  Ni  Ni2       1.0  0.3702448199999999  0.828430425  0.45667406360884655  1.0000
  Rh  Rh1       1.0  0.2646498199999999  0.618614705  0.5017613289878351  1.0000
  Rh  Rh2       1.0  0.8370841099999999  0.796583505  0.5185578405836495  1.0000
  Rh  Rh3       1.0  0.12065867999999993  0.3667936050000001  0.4661804333434296  1.0000
  Rh  Rh4       1.0  0.7448309699999999  0.540067245  0.4832050005294518  1.0000
  Se  Se1       1.0  0.5190442299999999  0.431168765  0.5055922183471453  1.0000
  Se  Se2       1.0  0.0631834099999999  0.865346455  0.4975786002243361  1.0000
  Se  Se3       1.0  0.5737281299999999  0.9678741349999999  0.5144019264571413  1.0000
  Se  Se4       1.0  0.9368165900000001  0.29492387500000006  0.4882634069447723  1.0000
  Se  Se5       1.0  0.39178475999999995  0.18259602500000005  0.4699735671403238  1.0000
  Se  Se6       1.0  0.93658023  0.624734985  0.4608687135124334  1.0000
  Se  Se7       1.0  0.4737048899999999  0.724264815  0.4794118667325576  1.0000
  Se  Se8       1.0  0.8039094200000001  0.032125865000000045  0.45247941658824403  1.0000
