data_image0
_chemical_formula_structural       COTi4Zn8
_chemical_formula_sum              "C1 O1 Ti4 Zn8"
_cell_length_a       5.11726985
_cell_length_b       5.117269854127969
_cell_length_c       102.90502172000001
_cell_angle_alpha    90.0
_cell_angle_beta     90.0
_cell_angle_gamma    120.00000003795877

_space_group_name_H-M_alt    "P 1"
_space_group_IT_number       1

loop_
  _space_group_symop_operation_xyz
  'x, y, z'

loop_
  _atom_site_type_symbol
  _atom_site_label
  _atom_site_symmetry_multiplicity
  _atom_site_fract_x
  _atom_site_fract_y
  _atom_site_fract_z
  _atom_site_occupancy
  C   C1        1.0  0.6583423249999999  0.197029425  0.5377324782997044  1.0000
  O   O1        1.0  0.616277465  0.10432049499999999  0.548502118083669  1.0000
  Ti  Ti1       1.0  0.4192576449999999  0.745385205  0.45149788191633095  1.0000
  Ti  Ti2       1.0  0.752590985  0.41205186499999996  0.4914680179335181  1.0000
  Ti  Ti3       1.0  0.755474235  0.41124788500000004  0.5195362145727587  1.0000
  Ti  Ti4       1.0  0.4192576449999999  0.745385205  0.4807424732036075  1.0000
  Zn  Zn1       1.0  0.140433805  0.17962267499999998  0.5265817472508973  1.0000
  Zn  Zn2       1.0  0.085924315  0.07871853499999998  0.48610524396975746  1.0000
  Zn  Zn3       1.0  0.9140756849999999  0.735021285  0.4661201759611638  1.0000
  Zn  Zn4       1.0  0.265080095  0.9212814650000001  0.5066109182035585  1.0000
  Zn  Zn5       1.0  0.7520273150000001  0.918598225  0.5066792351600391  1.0000
  Zn  Zn6       1.0  0.429621565  0.250567165  0.4661201759611638  1.0000
  Zn  Zn7       1.0  0.9140756849999999  0.250567165  0.4661201759611638  1.0000
  Zn  Zn8       1.0  0.267806595  0.441335545  0.5047520478722779  1.0000
