data_image0
_chemical_formula_structural       COPd8Ti4
_chemical_formula_sum              "C1 O1 Pd8 Ti4"
_cell_length_a       4.63746207
_cell_length_b       5.000176177448248
_cell_length_c       98.76083069
_cell_angle_alpha    90.10594080747408
_cell_angle_beta     90.0
_cell_angle_gamma    90.0

_space_group_name_H-M_alt    "P 1"
_space_group_IT_number       1

loop_
  _space_group_symop_operation_xyz
  'x, y, z'

loop_
  _atom_site_type_symbol
  _atom_site_label
  _atom_site_symmetry_multiplicity
  _atom_site_fract_x
  _atom_site_fract_y
  _atom_site_fract_z
  _atom_site_occupancy
  C   C1        1.0  0.7499687049999999  0.21417107999999996  0.5362753861172272  1.0000
  O   O1        1.0  0.7499673149999999  0.24265714999999996  0.5481426614504987  1.0000
  Pd  Pd1       1.0  0.24996748499999996  0.04199747999999998  0.5079145275870418  1.0000
  Pd  Pd2       1.0  0.750038475  0.8348260199999998  0.5270055536421837  1.0000
  Pd  Pd3       1.0  0.249961525  0.53934432  0.5193231070577601  1.0000
  Pd  Pd4       1.0  0.7499514349999999  0.74530215  0.49918660040176704  1.0000
  Pd  Pd5       1.0  0.24997313499999999  0.46628326000000003  0.4661495951342691  1.0000
  Pd  Pd6       1.0  0.749973135  0.25199753999999996  0.48695081036761906  1.0000
  Pd  Pd7       1.0  0.24997313499999999  0.9580025199999999  0.47916750660709345  1.0000
  Pd  Pd8       1.0  0.749973135  0.17228823999999998  0.4583662913737436  1.0000
  Ti  Ti1       1.0  0.24997313499999999  0.49785717  0.4934597631918614  1.0000
  Ti  Ti2       1.0  0.749952685  0.27836457  0.5138629809174496  1.0000
  Ti  Ti3       1.0  0.24997313499999999  0.9264286  0.4518573385495012  1.0000
  Ti  Ti4       1.0  0.749973135  0.71214289  0.47265855087068137  1.0000
