data_image0
_chemical_formula_structural       COGa12Au12
_chemical_formula_sum              "C1 O1 Ga12 Au12"
_cell_length_a       7.392222491821676
_cell_length_b       7.394822342564889
_cell_length_c       109.13665307
_cell_angle_alpha    67.67266888622457
_cell_angle_beta     67.69731391572992
_cell_angle_gamma    75.5955921811307

_space_group_name_H-M_alt    "P 1"
_space_group_IT_number       1

loop_
  _space_group_symop_operation_xyz
  'x, y, z'

loop_
  _atom_site_type_symbol
  _atom_site_label
  _atom_site_symmetry_multiplicity
  _atom_site_fract_x
  _atom_site_fract_y
  _atom_site_fract_z
  _atom_site_occupancy
  C   C1        1.0  0.20818213999999996  0.49536062999999997  0.5461553736585134  1.0000
  O   O1        1.0  0.11667916999999996  0.5740001899999999  0.5544206435057668  1.0000
  Ga  Ga1       1.0  0.24477563999999993  0.8596925099999999  0.5087736818215597  1.0000
  Ga  Ga2       1.0  0.5736570599999999  0.18608469000000002  0.4800074026880778  1.0000
  Ga  Ga3       1.0  0.90699039  0.5194180199999999  0.45012388020836636  1.0000
  Ga  Ga4       1.0  0.11317960999999996  0.46953344  0.5111968112455703  1.0000
  Ga  Ga5       1.0  0.42634293999999995  0.82863833  0.4795806229377241  1.0000
  Ga  Ga6       1.0  0.75967627  0.16197166000000002  0.44969710045801253  1.0000
  Ga  Ga7       1.0  0.6333258899999998  0.36680534000000004  0.5065436059371947  1.0000
  Ga  Ga8       1.0  0.97227399  0.7367762200000001  0.4754628789739447  1.0000
  Ga  Ga9       1.0  0.30560732999999995  0.07010956000000002  0.4455793564942332  1.0000
  Ga  Ga10      1.0  0.69822987  0.92989044  0.515673659536648  1.0000
  Ga  Ga11      1.0  0.027726009999999954  0.2779468  0.48412515023788005  1.0000
  Ga  Ga12      1.0  0.36105933999999995  0.6112801299999999  0.45424162417214575  1.0000
  Au  Au1       1.0  0.7349158999999998  0.5507735899999999  0.5191544469513621  1.0000
  Au  Au2       1.0  0.039394359999999934  0.86649646  0.4931097511648794  1.0000
  Au  Au3       1.0  0.37272769999999994  0.19982979999999997  0.4632262286851678  1.0000
  Au  Au4       1.0  0.6404304899999999  0.82882071  0.49454269720396266  1.0000
  Au  Au5       1.0  0.96060564  0.14822655999999998  0.46647827446092266  1.0000
  Au  Au6       1.0  0.31293541999999996  0.50939804  0.5252533250938838  1.0000
  Au  Au7       1.0  0.9613793199999999  0.15963017000000002  0.5120936648000374  1.0000
  Au  Au8       1.0  0.2888294599999999  0.4917789199999999  0.48187810887945426  1.0000
  Au  Au9       1.0  0.62216279  0.82511225  0.4519945863997427  1.0000
  Au  Au10      1.0  0.3778844699999999  0.15304136999999998  0.5096387416975185  1.0000
  Au  Au11      1.0  0.7111705400000001  0.5229440999999999  0.4777099203323706  1.0000
  Au  Au12      1.0  0.04450387999999995  0.8562774400000001  0.4478263942666362  1.0000
