data_image0
_chemical_formula_structural       COCo6Se6
_chemical_formula_sum              "C1 O1 Co6 Se6"
_cell_length_a       5.25275672
_cell_length_b       6.802788405685108
_cell_length_c       101.00287900000001
_cell_angle_alpha    69.2430878605874
_cell_angle_beta     90.0
_cell_angle_gamma    67.28958082583576

_space_group_name_H-M_alt    "P 1"
_space_group_IT_number       1

loop_
  _space_group_symop_operation_xyz
  'x, y, z'

loop_
  _atom_site_type_symbol
  _atom_site_label
  _atom_site_symmetry_multiplicity
  _atom_site_fract_x
  _atom_site_fract_y
  _atom_site_fract_z
  _atom_site_occupancy
  C   C1        1.0  0.20079075999999998  0.760171005  0.5372164189135789  1.0000
  O   O1        1.0  0.2987153  0.595283115  0.5478426229155041  1.0000
  Co  Co1       1.0  0.69269577  0.671691225  0.471285052597904  1.0000
  Co  Co2       1.0  0.05656500999999994  0.0016271250000000224  0.5212685628059505  1.0000
  Co  Co3       1.0  0.3610967399999999  0.341564175  0.49678527111972254  1.0000
  Co  Co4       1.0  0.8622644800000001  0.335976335  0.49693892130568434  1.0000
  Co  Co5       1.0  0.19269576999999993  0.671691225  0.471285052597904  1.0000
  Co  Co6       1.0  0.53040074  0.996453885  0.5205776388331054  1.0000
  Se  Se1       1.0  0.28323361999999996  0.008620935000000022  0.5018776650050109  1.0000
  Se  Se2       1.0  0.6086232100000001  0.33983632500000005  0.4777365800957  1.0000
  Se  Se3       1.0  0.9419565500000001  0.673169665  0.452157377084496  1.0000
  Se  Se4       1.0  0.94343499  0.670212785  0.490412728111312  1.0000
  Se  Se5       1.0  0.27676832  0.0035461150000000163  0.46483352510010806  1.0000
  Se  Se6       1.0  0.6289473999999999  0.30246757500000004  0.5170938832323166  1.0000
