data_image0
_chemical_formula_structural       COTi4Sn2Ti4Sn2
_chemical_formula_sum              "C1 O1 Ti8 Sn4"
_cell_length_a       5.67286003
_cell_length_b       4.779399081642006
_cell_length_c       103.45579357
_cell_angle_alpha    60.00000001136484
_cell_angle_beta     90.0
_cell_angle_gamma    90.0

_space_group_name_H-M_alt    "P 1"
_space_group_IT_number       1

loop_
  _space_group_symop_operation_xyz
  'x, y, z'

loop_
  _atom_site_type_symbol
  _atom_site_label
  _atom_site_symmetry_multiplicity
  _atom_site_fract_x
  _atom_site_fract_y
  _atom_site_fract_z
  _atom_site_occupancy
  C   C1        1.0  0.854144515  0.84676812  0.542121342403233  1.0000
  O   O1        1.0  0.8457916950000001  0.8414167600000001  0.5535320040042048  1.0000
  Ti  Ti1       1.0  0.375148465  0.48103032  0.5087344660331196  1.0000
  Ti  Ti2       1.0  0.8699815850000001  0.8294290000000001  0.5221067497337627  1.0000
  Ti  Ti3       1.0  0.12494609500000002  0.15323188000000001  0.4926654956322632  1.0000
  Ti  Ti4       1.0  0.6249460949999999  0.15323188000000001  0.4926654956322632  1.0000
  Sn  Sn1       1.0  0.8750539049999999  0.48234762000000003  0.5077786217294994  1.0000
  Sn  Sn2       1.0  0.3710335150000001  0.81213133  0.5242912470551376  1.0000
  Ti  Ti5       1.0  0.3749460950000001  0.48656521  0.4618671636192262  1.0000
  Ti  Ti6       1.0  0.874946095  0.81989855  0.47726633124265727  1.0000
  Ti  Ti7       1.0  0.12494609500000002  0.15323188000000001  0.4464679959957952  1.0000
  Ti  Ti8       1.0  0.6249460949999999  0.15323188000000001  0.4464679959957952  1.0000
  Sn  Sn3       1.0  0.874946095  0.48656521  0.4618671636192262  1.0000
  Sn  Sn4       1.0  0.3749460950000001  0.81989855  0.47726633124265727  1.0000
