data_image0
_chemical_formula_structural       CORe9Ru3
_chemical_formula_sum              "C1 O1 Re9 Ru3"
_cell_length_a       4.81855088
_cell_length_b       5.231431306487703
_cell_length_c       99.00930292
_cell_angle_alpha    89.55972009156268
_cell_angle_beta     90.0
_cell_angle_gamma    117.42186031268469

_space_group_name_H-M_alt    "P 1"
_space_group_IT_number       1

loop_
  _space_group_symop_operation_xyz
  'x, y, z'

loop_
  _atom_site_type_symbol
  _atom_site_label
  _atom_site_symmetry_multiplicity
  _atom_site_fract_x
  _atom_site_fract_y
  _atom_site_fract_z
  _atom_site_occupancy
  C   C1        1.0  0.3461428500000001  0.41332636500000003  0.5364189369876455  1.0000
  O   O1        1.0  0.43785870000000016  0.4376800350000001  0.547781493028611  1.0000
  Re  Re1       1.0  0.39999463000000013  0.22797680500000003  0.45883442085874954  1.0000
  Re  Re2       1.0  0.84836102  0.7763719050000001  0.4522185069713892  1.0000
  Re  Re3       1.0  0.29996593000000016  0.6795817150000001  0.4654503376760672  1.0000
  Re  Re4       1.0  0.30908554000000016  0.04615862500000002  0.48547039598648495  1.0000
  Re  Re5       1.0  0.7574519300000001  0.5945537150000001  0.4788544820991245  1.0000
  Re  Re6       1.0  0.20905684000000008  0.497763535  0.49208631280380266  1.0000
  Re  Re7       1.0  0.22850815000000016  0.853551815  0.511708658711221  1.0000
  Re  Re8       1.0  0.6759110300000002  0.42810298500000005  0.5058123833545096  1.0000
  Re  Re9       1.0  0.1380251100000001  0.291084865  0.5184293390815197  1.0000
  Ru  Ru1       1.0  0.8619748899999999  0.13706771500000003  0.47215240988759594  1.0000
  Ru  Ru2       1.0  0.7688599200000001  0.9538413750000001  0.4980580638603908  1.0000
  Ru  Ru3       1.0  0.65460183  0.796966955  0.5238012429113976  1.0000
