data_image0
_chemical_formula_structural       COSn3Pd9
_chemical_formula_sum              "C1 O1 Sn3 Pd9"
_cell_length_a       5.75691581
_cell_length_b       5.756915813445468
_cell_length_c       98.20301247
_cell_angle_alpha    90.0
_cell_angle_beta     90.0
_cell_angle_gamma    59.9999999623371

_space_group_name_H-M_alt    "P 1"
_space_group_IT_number       1

loop_
  _space_group_symop_operation_xyz
  'x, y, z'

loop_
  _atom_site_type_symbol
  _atom_site_label
  _atom_site_symmetry_multiplicity
  _atom_site_fract_x
  _atom_site_fract_y
  _atom_site_fract_z
  _atom_site_occupancy
  C   C1        1.0  0.752796635  0.7501924  0.5248489421551739  1.0000
  O   O1        1.0  0.7522288450000002  0.75053696  0.5369987431289074  1.0000
  Sn  Sn1       1.0  0.7515407550000001  0.75079781  0.46300125687109267  1.0000
  Sn  Sn2       1.0  0.08247110500000009  0.08535006000000002  0.5103332107743553  1.0000
  Sn  Sn3       1.0  0.4179773850000001  0.4175886  0.48598107586571665  1.0000
  Pd  Pd1       1.0  0.917528895  0.91764567  0.48675596289017836  1.0000
  Pd  Pd2       1.0  0.25154075500000006  0.25079781  0.46300125687109267  1.0000
  Pd  Pd3       1.0  0.585377545  0.5853977  0.511585966240823  1.0000
  Pd  Pd4       1.0  0.917489415  0.41795894000000006  0.486757668804181  1.0000
  Pd  Pd5       1.0  0.25154075500000006  0.75079781  0.46300125687109267  1.0000
  Pd  Pd6       1.0  0.585429405  0.08235433000000002  0.5115834217293646  1.0000
  Pd  Pd7       1.0  0.41801682500000004  0.9175535499999999  0.4868308278164751  1.0000
  Pd  Pd8       1.0  0.751540755  0.25079781  0.46300125687109267  1.0000
  Pd  Pd9       1.0  0.08328609500000007  0.58490597  0.5114888870976741  1.0000
