data_image0
_chemical_formula_structural       COMn4Fe4As4Mn4Fe4As4
_chemical_formula_sum              "C1 O1 Mn8 Fe8 As8"
_cell_length_a       5.14207891
_cell_length_b       6.840179543596468
_cell_length_c       105.9945524
_cell_angle_alpha    112.07828575871102
_cell_angle_beta     90.0
_cell_angle_gamma    67.92171424128898

_space_group_name_H-M_alt    "P 1"
_space_group_IT_number       1

loop_
  _space_group_symop_operation_xyz
  'x, y, z'

loop_
  _atom_site_type_symbol
  _atom_site_label
  _atom_site_symmetry_multiplicity
  _atom_site_fract_x
  _atom_site_fract_y
  _atom_site_fract_z
  _atom_site_occupancy
  C   C1        1.0  0.957719885  0.9506063699999999  0.5477432933959766  1.0000
  O   O1        1.0  0.9482899749999998  0.8778037900000001  0.5561582165183266  1.0000
  Mn  Mn1       1.0  0.617354015  0.37885536  0.45946620529672916  1.0000
  Mn  Mn2       1.0  0.117354015  0.37885536  0.4837225406225253  1.0000
  Mn  Mn3       1.0  0.9394228749999999  0.7347176400000001  0.4680981188074697  1.0000
  Mn  Mn4       1.0  0.439422875  0.7347176400000001  0.4438417834816735  1.0000
  Fe  Fe1       1.0  0.028388444999999974  0.05678650000000002  0.46378216375004294  1.0000
  Fe  Fe2       1.0  0.528388445  0.05678650000000002  0.48803849907583896  1.0000
  Fe  Fe3       1.0  0.028388444999999974  0.05678650000000002  0.48803849907583896  1.0000
  Fe  Fe4       1.0  0.528388445  0.05678650000000002  0.46378216375004294  1.0000
  As  As1       1.0  0.40405021499999993  0.80546296  0.4698141420166943  1.0000
  As  As2       1.0  0.9040502149999999  0.80546296  0.4455578066908981  1.0000
  As  As3       1.0  0.15272667499999998  0.30811004000000003  0.45775018208750456  1.0000
  As  As4       1.0  0.6527266749999999  0.30811004000000003  0.4820065174133007  1.0000
  Mn  Mn5       1.0  0.613419875  0.37703558000000004  0.5078260780121476  1.0000
  Mn  Mn6       1.0  0.14822181499999995  0.32411486  0.531245340772657  1.0000
  Mn  Mn7       1.0  0.915777165  0.74250441  0.5151607049536407  1.0000
  Mn  Mn8       1.0  0.439422875  0.7347176400000001  0.4923544575291528  1.0000
  Fe  Fe5       1.0  0.01669157499999997  0.07387942000000002  0.5121787086493205  1.0000
  Fe  Fe6       1.0  0.516006595  0.07160327000000001  0.534355307683195  1.0000
  Fe  Fe7       1.0  0.983308425  0.049393630000000015  0.5347017560763153  1.0000
  Fe  Fe8       1.0  0.517404255  0.07117172000000001  0.5122738919664228  1.0000
  As  As5       1.0  0.39849339500000003  0.78352331  0.5181406705175269  1.0000
  As  As6       1.0  0.9040502149999999  0.80546296  0.4940704773424904  1.0000
  As  As7       1.0  0.13475382499999997  0.34052334  0.5066139602891996  1.0000
  As  As8       1.0  0.6316495350000001  0.3811507800000001  0.5321731106883011  1.0000
