data_image0
_chemical_formula_structural       COMo4Pt8
_chemical_formula_sum              "C1 O1 Mo4 Pt8"
_cell_length_a       4.847373046517968
_cell_length_b       4.847373048501708
_cell_length_c       102.05571646
_cell_angle_alpha    91.77311202909516
_cell_angle_beta     91.77311202982102
_cell_angle_gamma    119.7292498652408

_space_group_name_H-M_alt    "P 1"
_space_group_IT_number       1

loop_
  _space_group_symop_operation_xyz
  'x, y, z'

loop_
  _atom_site_type_symbol
  _atom_site_label
  _atom_site_symmetry_multiplicity
  _atom_site_fract_x
  _atom_site_fract_y
  _atom_site_fract_z
  _atom_site_occupancy
  C   C1        1.0  0.739998155  0.6002175999999999  0.5362159427280181  1.0000
  O   O1        1.0  0.722011955  0.54787104  0.5475155827637878  1.0000
  Mo  Mo1       1.0  0.795515915  0.7970327999999999  0.45248441723621247  1.0000
  Mo  Mo2       1.0  0.152658775  0.15417566000000002  0.474920142215525  1.0000
  Mo  Mo3       1.0  0.5396641149999999  0.53745222  0.4986356494344192  1.0000
  Mo  Mo4       1.0  0.8679321149999999  0.8637113599999999  0.5194430069620313  1.0000
  Pt  Pt1       1.0  0.816106815  0.49072763  0.4749201422155249  1.0000
  Pt  Pt2       1.0  0.4589639549999999  0.13358477  0.45248441723621236  1.0000
  Pt  Pt3       1.0  0.132067885  0.46048083999999995  0.45248441723621247  1.0000
  Pt  Pt4       1.0  0.48921074499999995  0.8176237000000001  0.474920142215525  1.0000
  Pt  Pt5       1.0  0.547333805  0.21055819000000003  0.5204817801519198  1.0000
  Pt  Pt6       1.0  0.19081277500000005  0.86641523  0.4971649288510114  1.0000
  Pt  Pt7       1.0  0.864741675  0.194152  0.4970291841865961  1.0000
  Pt  Pt8       1.0  0.21975759500000003  0.548609  0.5196003711401835  1.0000
