data_image0
_chemical_formula_structural       COAg8Se4
_chemical_formula_sum              "C1 O1 Ag8 Se4"
_cell_length_a       4.74116533
_cell_length_b       7.48600722
_cell_length_c       101.59684632
_cell_angle_alpha    90.0
_cell_angle_beta     90.0
_cell_angle_gamma    90.0

_space_group_name_H-M_alt    "P 1"
_space_group_IT_number       1

loop_
  _space_group_symop_operation_xyz
  'x, y, z'

loop_
  _atom_site_type_symbol
  _atom_site_label
  _atom_site_symmetry_multiplicity
  _atom_site_fract_x
  _atom_site_fract_y
  _atom_site_fract_z
  _atom_site_occupancy
  C   C1        1.0  0.001047574999999955  0.83245619  0.5397664734418157  1.0000
  O   O1        1.0  0.002154674999999955  0.72682035  0.5480328444395351  1.0000
  Ag  Ag1       1.0  0.9975768049999998  0.40710526999999996  0.4711785100494609  1.0000
  Ag  Ag2       1.0  0.513687425  0.87332734  0.45786488688267607  1.0000
  Ag  Ag3       1.0  0.49253126499999994  0.37332734  0.4519671555604649  1.0000
  Ag  Ag4       1.0  0.0018158049999999549  0.94601016  0.5204056077381504  1.0000
  Ag  Ag5       1.0  0.497576805  0.17463857  0.4775288118246962  1.0000
  Ag  Ag6       1.0  9.348499999995521e-05  0.7322987700000001  0.4927464124470509  1.0000
  Ag  Ag7       1.0  0.9988820449999999  0.20279353  0.49789704175917915  1.0000
  Ag  Ag8       1.0  0.501810005  0.6422762200000001  0.5089490255695617  1.0000
  Se  Se1       1.0  0.501230285  0.004051279999999999  0.5076260313900324  1.0000
  Se  Se2       1.0  0.49990651499999994  0.5857951200000001  0.47311688435227134  1.0000
  Se  Se3       1.0  0.003619614999999955  0.49263812999999995  0.5116936265174361  1.0000
  Se  Se4       1.0  0.999906515  0.99594872  0.4755904375218857  1.0000
