data_image0
_chemical_formula_structural       COIn10Au15In10Au15
_chemical_formula_sum              "C1 O1 In20 Au30"
_cell_length_a       12.551664200560124
_cell_length_b       7.488270586187772
_cell_length_c       107.4413529
_cell_angle_alpha    66.5499339505477
_cell_angle_beta     83.12365836669542
_cell_angle_gamma    61.385919381820415

_space_group_name_H-M_alt    "P 1"
_space_group_IT_number       1

loop_
  _space_group_symop_operation_xyz
  'x, y, z'

loop_
  _atom_site_type_symbol
  _atom_site_label
  _atom_site_symmetry_multiplicity
  _atom_site_fract_x
  _atom_site_fract_y
  _atom_site_fract_z
  _atom_site_occupancy
  C   C1        1.0  0.4992737300000001  0.4499315  0.5694904449644659  1.0000
  O   O1        1.0  0.48847914000000003  0.47505939  0.57963923078376  1.0000
  In  In1       1.0  0.23478469  0.95676342  0.4710668113746051  1.0000
  In  In2       1.0  0.63478469  0.7567634200000001  0.4850060822007452  1.0000
  In  In3       1.0  0.8347846899999999  0.15676342000000001  0.45712754054846494  1.0000
  In  In4       1.0  0.03478469000000001  0.5567634199999999  0.4292489988961845  1.0000
  In  In5       1.0  0.43478469  0.35676342  0.4431882697223248  1.0000
  In  In6       1.0  0.56521531  0.63213826  0.4482393108685203  1.0000
  In  In7       1.0  0.9652153099999999  0.43213826  0.4621785816946604  1.0000
  In  In8       1.0  0.16521531  0.83213826  0.4343000400423801  1.0000
  In  In9       1.0  0.36521531000000007  0.23213826000000004  0.4761178525208006  1.0000
  In  In10      1.0  0.76521531  0.03213825999999999  0.42036076921623994  1.0000
  Au  Au1       1.0  0.33693301  0.65031847  0.4568280797084892  1.0000
  Au  Au2       1.0  0.7369330099999999  0.45031847  0.4707673505346294  1.0000
  Au  Au3       1.0  0.93693301  0.85031847  0.44288880888234905  1.0000
  Au  Au4       1.0  0.13693301  0.25031847  0.48470662136076953  1.0000
  Au  Au5       1.0  0.53693301  0.05031846999999998  0.4289495380562088  1.0000
  Au  Au6       1.0  0.46306698999999996  0.9385832100000002  0.4624780425346361  1.0000
  Au  Au7       1.0  0.86306699  0.7385832100000002  0.47641731336077625  1.0000
  Au  Au8       1.0  0.06306698999999999  0.13858321  0.44853877170849593  1.0000
  Au  Au9       1.0  0.26306699  0.5385832100000001  0.4206602300562156  1.0000
  Au  Au10      1.0  0.6630669899999999  0.33858320999999997  0.43459950088235577  1.0000
  Au  Au11      1.0  0.30000000000000004  0.09445084  0.43874415488235236  1.0000
  Au  Au12      1.0  0.6999999999999998  0.8944508400000001  0.45268342570849257  1.0000
  Au  Au13      1.0  0.9000000000000001  0.29445084  0.4248048840562122  1.0000
  Au  Au14      1.0  0.09999999999999996  0.69445084  0.46662269653463273  1.0000
  Au  Au15      1.0  0.5  0.49445084  0.4805619673607729  1.0000
  In  In11      1.0  0.24422914999999998  0.9678617400000001  0.5401408119110958  1.0000
  In  In12      1.0  0.6943423700000001  0.73292524  0.5523347222433709  1.0000
  In  In13      1.0  0.85124728  0.07712038999999998  0.5309792226757974  1.0000
  In  In14      1.0  0.03478469000000001  0.5567634199999999  0.49894535302688536  1.0000
  In  In15      1.0  0.43478469  0.35676342  0.5128846238530256  1.0000
  In  In16      1.0  0.56521531  0.63213826  0.5179356649992212  1.0000
  In  In17      1.0  0.9460724500000001  0.44732123999999995  0.5325105386964917  1.0000
  In  In18      1.0  0.16521531  0.83213826  0.503996394173081  1.0000
  In  In19      1.0  0.39692698  0.21806059  0.5487201403798977  1.0000
  In  In20      1.0  0.76521531  0.03213825999999999  0.49005712334694074  1.0000
  Au  Au16      1.0  0.33973305000000004  0.6454468  0.5262989138613116  1.0000
  Au  Au17      1.0  0.7318144800000002  0.41392540999999994  0.5405956503181527  1.0000
  Au  Au18      1.0  0.93693301  0.85031847  0.5125851630130498  1.0000
  Au  Au19      1.0  0.15129321  0.29749119  0.5497234647002393  1.0000
  Au  Au20      1.0  0.53693301  0.05031846999999998  0.4986458921869097  1.0000
  Au  Au21      1.0  0.47485100999999996  0.9456592500000001  0.5333687168745384  1.0000
  Au  Au22      1.0  0.93159338  0.6507898700000001  0.552681228122385  1.0000
  Au  Au23      1.0  0.06306698999999999  0.13858321  0.5182351258391967  1.0000
  Au  Au24      1.0  0.26306699  0.5385832100000001  0.4903565841869164  1.0000
  Au  Au25      1.0  0.6630669899999999  0.33858320999999997  0.5042958550130565  1.0000
  Au  Au26      1.0  0.30000000000000004  0.09445084  0.5084405090130533  1.0000
  Au  Au27      1.0  0.6999999999999998  0.8944508400000001  0.5223797798391934  1.0000
  Au  Au28      1.0  0.9000000000000001  0.29445084  0.49450123818691305  1.0000
  Au  Au29      1.0  0.12345351999999993  0.7241351300000002  0.5407804571707657  1.0000
  Au  Au30      1.0  0.4836146900000001  0.5201774499999999  0.5493577156578499  1.0000
