data_image0
_chemical_formula_structural       CONi6Sb2Ni6Sb2
_chemical_formula_sum              "C1 O1 Ni12 Sb4"
_cell_length_a       5.33831118
_cell_length_b       5.338311175508374
_cell_length_c       100.3328599
_cell_angle_alpha    90.0
_cell_angle_beta     90.0
_cell_angle_gamma    120.0000000278331

_space_group_name_H-M_alt    "P 1"
_space_group_IT_number       1

loop_
  _space_group_symop_operation_xyz
  'x, y, z'

loop_
  _atom_site_type_symbol
  _atom_site_label
  _atom_site_symmetry_multiplicity
  _atom_site_fract_x
  _atom_site_fract_y
  _atom_site_fract_z
  _atom_site_occupancy
  C   C1        1.0  0.6724215299999999  0.334284585  0.5330637900761513  1.0000
  O   O1        1.0  0.6723670099999999  0.333628235  0.5450012547371862  1.0000
  Ni  Ni1       1.0  0.67530723  0.8363288050000001  0.4549987452628139  1.0000
  Ni  Ni2       1.0  0.16234638  0.8363288050000001  0.4549987452628139  1.0000
  Ni  Ni3       1.0  0.8376536199999999  0.6739824150000001  0.47659319406878625  1.0000
  Ni  Ni4       1.0  0.32469276999999996  0.16102156500000006  0.47659319406878625  1.0000
  Ni  Ni5       1.0  0.8376536199999999  0.16102156500000006  0.47659319406878625  1.0000
  Ni  Ni6       1.0  0.16234637999999996  0.32336795500000004  0.4549987452628139  1.0000
  Sb  Sb1       1.0  0.3333333299999999  0.6653418550000001  0.47659319406878625  1.0000
  Sb  Sb2       1.0  0.6666666699999999  0.332008515  0.4549987452628139  1.0000
  Ni  Ni7       1.0  0.6776397499999999  0.838206195  0.4983832181869491  1.0000
  Ni  Ni8       1.0  0.16661822  0.838978435  0.4984309609228801  1.0000
  Ni  Ni9       1.0  0.8331539299999998  0.6579327650000001  0.5203060887654892  1.0000
  Ni  Ni10      1.0  0.3469173399999999  0.17185391500000002  0.5203183479343216  1.0000
  Ni  Ni11      1.0  0.83335425  0.17179454500000005  0.5202284886802641  1.0000
  Ni  Ni12      1.0  0.16686238999999994  0.32718351500000004  0.49839059485080867  1.0000
  Sb  Sb3       1.0  0.33680672999999994  0.666456915  0.5200353742715087  1.0000
  Sb  Sb4       1.0  0.66969011  0.334259295  0.49769320988667365  1.0000
