data_image0
_chemical_formula_structural       COSn6Pt4Sn6Pt4Sn6Pt4Sn6Pt4
_chemical_formula_sum              "C1 O1 Sn24 Pt16"
_cell_length_a       8.886270613420981
_cell_length_b       13.28015496
_cell_length_c       34.45491752
_cell_angle_alpha    90.0
_cell_angle_beta     60.000000049960505
_cell_angle_gamma    90.0

_space_group_name_H-M_alt    "P 1"
_space_group_IT_number       1

loop_
  _space_group_symop_operation_xyz
  'x, y, z'

loop_
  _atom_site_type_symbol
  _atom_site_label
  _atom_site_symmetry_multiplicity
  _atom_site_fract_x
  _atom_site_fract_y
  _atom_site_fract_z
  _atom_site_occupancy
  C   C1        1.0  0.27748944000000003  0.250373475  0.6097891137174165  1.0000
  O   O1        1.0  0.22268857000000006  0.25037340500000005  0.6491113641288717  1.0000
  Sn  Sn1       1.0  0.16938713000000005  0.06976037500000004  0.5228294164559566  1.0000
  Sn  Sn2       1.0  0.32806568  0.930239625  0.5690050186419667  1.0000
  Sn  Sn3       1.0  0.16938692000000002  0.430987125  0.5228295299363929  1.0000
  Sn  Sn4       1.0  0.32806582000000006  0.570508045  0.5690051940208228  1.0000
  Sn  Sn5       1.0  0.010353010000000018  0.250373525  0.475588232973103  1.0000
  Sn  Sn6       1.0  0.9979480500000001  0.750373425  0.48176547862459457  1.0000
  Pt  Pt1       1.0  0.34449462000000003  0.14244806500000004  0.5609489393050999  1.0000
  Pt  Pt2       1.0  0.17036885000000004  0.642230535  0.5213246452378313  1.0000
  Pt  Pt3       1.0  0.34449437000000005  0.35829911500000006  0.5609490218363264  1.0000
  Pt  Pt4       1.0  0.17036887000000003  0.858516585  0.5213246246050246  1.0000
  Sn  Sn7       1.0  0.16871862  0.07125611500000004  0.39387365305937844  1.0000
  Sn  Sn8       1.0  0.33538528  0.9294908350000001  0.43685865993122536  1.0000
  Sn  Sn9       1.0  0.16871862  0.42949083500000007  0.39387365305937844  1.0000
  Sn  Sn10      1.0  0.33538528  0.571256115  0.43685865993122536  1.0000
  Sn  Sn11      1.0  0.0020519500000000168  0.250373475  0.3508886358711283  1.0000
  Sn  Sn12      1.0  0.0020519500000000168  0.7503734750000001  0.3508886358711283  1.0000
  Pt  Pt5       1.0  0.33538528  0.14372532500000004  0.43685865993122536  1.0000
  Pt  Pt6       1.0  0.16871862  0.6437253250000001  0.39387365305937844  1.0000
  Pt  Pt7       1.0  0.33538528  0.35702162500000006  0.43685865993122536  1.0000
  Pt  Pt8       1.0  0.16871862  0.8570216250000001  0.39387365305937844  1.0000
  Sn  Sn13      1.0  0.66667959  0.06989283500000004  0.5229512634953313  1.0000
  Sn  Sn14      1.0  0.8281900100000001  0.9280850650000002  0.5692231486733392  1.0000
  Sn  Sn15      1.0  0.6666794300000002  0.43085454500000003  0.522951459506994  1.0000
  Sn  Sn16      1.0  0.8281893400000001  0.5726622950000001  0.5692235200638579  1.0000
  Sn  Sn17      1.0  0.5103530100000001  0.250373525  0.475588232973103  1.0000
  Sn  Sn18      1.0  0.4979480500000001  0.750373425  0.48176547862459457  1.0000
  Pt  Pt9       1.0  0.8545789500000002  0.143494075  0.5556737702745521  1.0000
  Pt  Pt10      1.0  0.6714484500000001  0.6420810450000001  0.5213723482866899  1.0000
  Pt  Pt11      1.0  0.8545791100000001  0.357252895  0.5556738218565688  1.0000
  Pt  Pt12      1.0  0.6714478800000001  0.858665675  0.5213723689194965  1.0000
  Sn  Sn19      1.0  0.66871862  0.07125611500000004  0.39387365305937844  1.0000
  Sn  Sn20      1.0  0.83538528  0.9294908350000001  0.43685865993122525  1.0000
  Sn  Sn21      1.0  0.66871862  0.42949083500000007  0.39387365305937844  1.0000
  Sn  Sn22      1.0  0.83538528  0.571256115  0.43685865993122525  1.0000
  Sn  Sn23      1.0  0.50205195  0.250373475  0.3508886358711282  1.0000
  Sn  Sn24      1.0  0.50205195  0.7503734750000001  0.3508886358711282  1.0000
  Pt  Pt13      1.0  0.83538528  0.14372532500000004  0.43685865993122525  1.0000
  Pt  Pt14      1.0  0.66871862  0.6437253250000001  0.39387365305937844  1.0000
  Pt  Pt15      1.0  0.83538528  0.35702162500000006  0.43685865993122525  1.0000
  Pt  Pt16      1.0  0.66871862  0.8570216250000001  0.39387365305937844  1.0000
