data_image0
_chemical_formula_structural       COAl8Ru4
_chemical_formula_sum              "C1 O1 Al8 Ru4"
_cell_length_a       4.69723108
_cell_length_b       4.697231077104679
_cell_length_c       105.53143521999999
_cell_angle_alpha    90.0
_cell_angle_beta     90.0
_cell_angle_gamma    119.07271726491791

_space_group_name_H-M_alt    "P 1"
_space_group_IT_number       1

loop_
  _space_group_symop_operation_xyz
  'x, y, z'

loop_
  _atom_site_type_symbol
  _atom_site_label
  _atom_site_symmetry_multiplicity
  _atom_site_fract_x
  _atom_site_fract_y
  _atom_site_fract_z
  _atom_site_occupancy
  C   C1        1.0  0.08662617499999992  0.56143247  0.5351112234752975  1.0000
  O   O1        1.0  0.0869017349999999  0.54593676  0.5462234251793986  1.0000
  Al  Al1       1.0  0.25572771499999997  0.41510788000000004  0.4748197331612466  1.0000
  Al  Al2       1.0  0.9138705549999999  0.75696504  0.4748197331612466  1.0000
  Al  Al3       1.0  0.4195213249999999  0.7584212  0.4958217916884735  1.0000
  Al  Al4       1.0  0.7532193749999998  0.41328354  0.4958330674544388  1.0000
  Al  Al5       1.0  0.757095835  0.9141064000000001  0.5173100077776653  1.0000
  Al  Al6       1.0  0.4149555549999999  0.24621840999999997  0.5173067216780588  1.0000
  Al  Al7       1.0  0.9138705549999999  0.25696504000000003  0.4537765748206014  1.0000
  Al  Al8       1.0  0.2557277149999999  0.91510788  0.4537765748206014  1.0000
  Ru  Ru1       1.0  0.5847991349999999  0.08603645999999998  0.4748197331612466  1.0000
  Ru  Ru2       1.0  0.08633445499999992  0.08489211999999997  0.4960275803094237  1.0000
  Ru  Ru3       1.0  0.0861294449999999  0.58367299  0.5172099029482599  1.0000
  Ru  Ru4       1.0  0.5847991349999999  0.58603646  0.4537765748206014  1.0000
