data_image0
_chemical_formula_structural       COMo4Rh4Mo4Rh4
_chemical_formula_sum              "C1 O1 Mo8 Rh8"
_cell_length_a       4.84473939
_cell_length_b       5.23217451744009
_cell_length_c       106.6252216
_cell_angle_alpha    63.679651586790804
_cell_angle_beta     90.0
_cell_angle_gamma    90.0

_space_group_name_H-M_alt    "P 1"
_space_group_IT_number       1

loop_
  _space_group_symop_operation_xyz
  'x, y, z'

loop_
  _atom_site_type_symbol
  _atom_site_label
  _atom_site_symmetry_multiplicity
  _atom_site_fract_x
  _atom_site_fract_y
  _atom_site_fract_z
  _atom_site_occupancy
  C   C1        1.0  0.2646626450000001  0.938917525  0.5450228336334642  1.0000
  O   O1        1.0  0.2903011850000001  0.9048054249999999  0.5567629952498682  1.0000
  Mo  Mo1       1.0  0.833659975  0.08448247499999997  0.4432370047501318  1.0000
  Mo  Mo2       1.0  0.833659975  0.584482475  0.46777235544450363  1.0000
  Mo  Mo3       1.0  0.17553059500000004  0.33448247499999995  0.45550468181479226  1.0000
  Mo  Mo4       1.0  0.17553059500000004  0.8344824750000001  0.48004003250916416  1.0000
  Rh  Rh1       1.0  0.330790795  0.33448247499999995  0.4800400325091641  1.0000
  Rh  Rh2       1.0  0.330790795  0.8344824750000001  0.4555046818147923  1.0000
  Rh  Rh3       1.0  0.678399775  0.584482475  0.4432370047501318  1.0000
  Rh  Rh4       1.0  0.678399775  0.08448247499999997  0.46777235544450363  1.0000
  Mo  Mo5       1.0  0.833659975  0.08448247499999997  0.4923077061388755  1.0000
  Mo  Mo6       1.0  0.824209135  0.576291235  0.515598557575692  1.0000
  Mo  Mo7       1.0  0.18252872500000003  0.33156330499999986  0.5055389414037607  1.0000
  Mo  Mo8       1.0  0.16634002500000003  0.8674195749999999  0.527581240343006  1.0000
  Rh  Rh5       1.0  0.33349060500000005  0.3578549849999999  0.5286138581962113  1.0000
  Rh  Rh6       1.0  0.331135215  0.841496015  0.5042185881637744  1.0000
  Rh  Rh7       1.0  0.678399775  0.584482475  0.4923077061388755  1.0000
  Rh  Rh8       1.0  0.686461355  0.06108247499999996  0.5171119206093107  1.0000
