data_image0
_chemical_formula_structural       COPd8Ti4
_chemical_formula_sum              "C1 O1 Pd8 Ti4"
_cell_length_a       4.63746207
_cell_length_b       5.000176180436442
_cell_length_c       102.46223452000001
_cell_angle_alpha    90.0
_cell_angle_beta     90.0
_cell_angle_gamma    117.62805221586464

_space_group_name_H-M_alt    "P 1"
_space_group_IT_number       1

loop_
  _space_group_symop_operation_xyz
  'x, y, z'

loop_
  _atom_site_type_symbol
  _atom_site_label
  _atom_site_symmetry_multiplicity
  _atom_site_fract_x
  _atom_site_fract_y
  _atom_site_fract_z
  _atom_site_occupancy
  C   C1        1.0  0.86634405  0.45400347500000005  0.5359345756731222  1.0000
  O   O1        1.0  0.95165282  0.5535495750000001  0.5466035002492252  1.0000
  Pd  Pd1       1.0  0.69882177  0.46010496500000003  0.498715376114129  1.0000
  Pd  Pd2       1.0  0.22513133000000007  0.4738951050000001  0.5214743025700149  1.0000
  Pd  Pd3       1.0  0.9092466300000002  0.846942485  0.5206177694221615  1.0000
  Pd  Pd4       1.0  0.39146312  0.836717465  0.49878642015784785  1.0000
  Pd  Pd5       1.0  0.7125483900000001  0.468509355  0.45339649975077473  1.0000
  Pd  Pd6       1.0  0.21254839000000006  0.468509355  0.47602660343366526  1.0000
  Pd  Pd7       1.0  0.8996361300000001  0.842684835  0.47602660343366526  1.0000
  Pd  Pd8       1.0  0.3996361300000001  0.842684835  0.45339649975077473  1.0000
  Ti  Ti1       1.0  0.5623868800000001  0.16210817500000002  0.5207461232993993  1.0000
  Ti  Ti2       1.0  0.048347180000000066  0.15305751500000003  0.4985982820715049  1.0000
  Ti  Ti3       1.0  0.55609226  0.15559709500000002  0.47602660343366526  1.0000
  Ti  Ti4       1.0  0.05609226000000007  0.15559709500000002  0.45339649975077473  1.0000
