data_image0
_chemical_formula_structural       COCu24Ge8
_chemical_formula_sum              "C1 O1 Cu24 Ge8"
_cell_length_a       6.30660862345722
_cell_length_b       10.137278664297847
_cell_length_c       103.19284652
_cell_angle_alpha    95.28725730388686
_cell_angle_beta     86.7854531894558
_cell_angle_gamma    54.814998212294796

_space_group_name_H-M_alt    "P 1"
_space_group_IT_number       1

loop_
  _space_group_symop_operation_xyz
  'x, y, z'

loop_
  _atom_site_type_symbol
  _atom_site_label
  _atom_site_symmetry_multiplicity
  _atom_site_fract_x
  _atom_site_fract_y
  _atom_site_fract_z
  _atom_site_occupancy
  C   C1        1.0  0.47748274500000015  0.23387958499999995  0.541854486103355  1.0000
  O   O1        1.0  0.36214011500000015  0.300953355  0.5522572727769439  1.0000
  Cu  Cu1       1.0  0.6345152650000002  0.893053085  0.4847703928116705  1.0000
  Cu  Cu2       1.0  0.37306294500000026  0.641205515  0.504685387313632  1.0000
  Cu  Cu3       1.0  0.8845152650000001  0.143053085  0.46466674243801853  1.0000
  Cu  Cu4       1.0  0.1281801950000001  0.39313179499999995  0.5213889249908005  1.0000
  Cu  Cu5       1.0  0.2570034450000001  0.35222368499999995  0.4880536695253504  1.0000
  Cu  Cu6       1.0  0.012366185000000116  0.104598745  0.5088238893971274  1.0000
  Cu  Cu7       1.0  0.507003445  0.602223685  0.4679500191516985  1.0000
  Cu  Cu8       1.0  0.7570034450000002  0.852223685  0.4478463687780466  1.0000
  Cu  Cu9       1.0  0.759983025  0.600896715  0.4880798557361811  1.0000
  Cu  Cu10      1.0  0.520963295  0.34648178500000004  0.5081159771440819  1.0000
  Cu  Cu11      1.0  0.00998302499999999  0.850896715  0.4679762053625291  1.0000
  Cu  Cu12      1.0  0.2599830250000001  0.100896715  0.44787255498887735  1.0000
  Cu  Cu13      1.0  0.502320175  0.858154555  0.5077362465294881  1.0000
  Cu  Cu14      1.0  0.2589816950000001  0.601898045  0.44795307895423  1.0000
  Cu  Cu15      1.0  0.758981695  0.10189804499999999  0.48816037970153364  1.0000
  Cu  Cu16      1.0  0.008981695000000123  0.35189804499999994  0.46805672932788184  1.0000
  Cu  Cu17      1.0  0.1315356850000002  0.6443800550000001  0.4847442066008398  1.0000
  Cu  Cu18      1.0  0.874161755  0.38818060499999996  0.5040011201700101  1.0000
  Cu  Cu19      1.0  0.3815356849999999  0.8943800550000001  0.46464055622718786  1.0000
  Cu  Cu20      1.0  0.6510508350000002  0.136196695  0.5248220076738966  1.0000
  Cu  Cu21      1.0  0.8786838850000002  0.899103285  0.5053457295050172  1.0000
  Cu  Cu22      1.0  0.629835055  0.638062785  0.5221050523995346  1.0000
  Cu  Cu23      1.0  0.1325370150000001  0.14337872499999998  0.48466368263548715  1.0000
  Cu  Cu24      1.0  0.3825370150000002  0.393378725  0.4645600322618352  1.0000
  Ge  Ge1       1.0  0.9910183050000003  0.6233203549999999  0.5094012758856108  1.0000
  Ge  Ge2       1.0  0.7531369050000001  0.353512535  0.4477427272230563  1.0000
  Ge  Ge3       1.0  0.25313690500000025  0.853512535  0.48795002797036013  1.0000
  Ge  Ge4       1.0  0.5031369050000002  0.10351253499999999  0.4678463775967082  1.0000
  Ge  Ge5       1.0  0.8883818050000002  0.641764235  0.4647703839930089  1.0000
  Ge  Ge6       1.0  0.6383818050000002  0.391764235  0.4848740343666607  1.0000
  Ge  Ge7       1.0  0.14879081500000021  0.885963085  0.523926687583776  1.0000
  Ge  Ge8       1.0  0.388976975  0.13849988500000002  0.5055351798729705  1.0000
