data_image0
_chemical_formula_structural       COTi2Au8Ti2Au8Ti2Au8Ti2Au8
_chemical_formula_sum              "C1 O1 Ti8 Au32"
_cell_length_a       8.06569238
_cell_length_b       6.63157506
_cell_length_c       109.78945038
_cell_angle_alpha    90.0
_cell_angle_beta     90.0
_cell_angle_gamma    90.0

_space_group_name_H-M_alt    "P 1"
_space_group_IT_number       1

loop_
  _space_group_symop_operation_xyz
  'x, y, z'

loop_
  _atom_site_type_symbol
  _atom_site_label
  _atom_site_symmetry_multiplicity
  _atom_site_fract_x
  _atom_site_fract_y
  _atom_site_fract_z
  _atom_site_occupancy
  C   C1        1.0  0.16580357500000006  0.54767359  0.5575918011783254  1.0000
  O   O1        1.0  0.18008904500000003  0.5284985600000001  0.5681887825902715  1.0000
  Ti  Ti1       1.0  0.252162475  0.051733320000000055  0.492213880625655  1.0000
  Ti  Ti2       1.0  0.0002926450000000427  0.5511047200000001  0.5222833055043522  1.0000
  Au  Au1       1.0  0.252162475  0.8448104100000001  0.5160764028557241  1.0000
  Au  Au2       1.0  0.25140106500000003  0.2464671300000001  0.5284387813265469  1.0000
  Au  Au3       1.0  0.004613465000000042  0.94090183  0.5347137239497672  1.0000
  Au  Au4       1.0  0.0021624750000000426  0.15667589000000007  0.5099165164311495  1.0000
  Au  Au5       1.0  0.999707355  0.3656906000000001  0.5453816519124013  1.0000
  Au  Au6       1.0  0.0021624750000000426  0.75865623  0.4985526918156293  1.0000
  Au  Au7       1.0  0.252162475  0.44679075000000007  0.504712574616044  1.0000
  Au  Au8       1.0  0.262220355  0.66116196  0.5406995311104883  1.0000
  Ti  Ti3       1.0  0.252162475  0.051733320000000055  0.43181121740972833  1.0000
  Ti  Ti4       1.0  0.0021624750000000426  0.5517333200000001  0.46201255082977155  1.0000
  Au  Au9       1.0  0.252162475  0.8448104100000001  0.45567373963979735  1.0000
  Au  Au10      1.0  0.252162475  0.2586562300000001  0.4683513620197458  1.0000
  Au  Au11      1.0  0.0021624750000000426  0.9467907500000001  0.47451124482016055  1.0000
  Au  Au12      1.0  0.0021624750000000426  0.15667589000000007  0.4495138568393826  1.0000
  Au  Au13      1.0  0.0021624750000000426  0.34481041000000007  0.4858750694356809  1.0000
  Au  Au14      1.0  0.0021624750000000426  0.75865623  0.4381500285997026  1.0000
  Au  Au15      1.0  0.252162475  0.44679075000000007  0.4443099150242771  1.0000
  Au  Au16      1.0  0.252162475  0.6566758900000002  0.479715186635266  1.0000
  Ti  Ti5       1.0  0.752162475  0.051733320000000055  0.492213880625655  1.0000
  Ti  Ti6       1.0  0.5023760950000001  0.5579479500000001  0.5227785034402381  1.0000
  Au  Au17      1.0  0.752162475  0.8448104100000001  0.5160764028557241  1.0000
  Au  Au18      1.0  0.759749275  0.24437968000000007  0.528687181233788  1.0000
  Au  Au19      1.0  0.5055436150000001  0.94826668  0.535577085775017  1.0000
  Au  Au20      1.0  0.5021624750000001  0.15667589000000007  0.5099165164311495  1.0000
  Au  Au21      1.0  0.508434785  0.3616765600000001  0.5444296322679095  1.0000
  Au  Au22      1.0  0.5021624750000001  0.75865623  0.4985526918156293  1.0000
  Au  Au23      1.0  0.752162475  0.44679075000000007  0.504712574616044  1.0000
  Au  Au24      1.0  0.750785785  0.6556128600000002  0.5398450738456717  1.0000
  Ti  Ti7       1.0  0.752162475  0.051733320000000055  0.43181121740972833  1.0000
  Ti  Ti8       1.0  0.5021624750000001  0.5517333200000001  0.46201255082977155  1.0000
  Au  Au25      1.0  0.752162475  0.8448104100000001  0.45567373963979735  1.0000
  Au  Au26      1.0  0.752162475  0.2586562300000001  0.4683513620197458  1.0000
  Au  Au27      1.0  0.5021624750000001  0.9467907500000001  0.47451124482016055  1.0000
  Au  Au28      1.0  0.5021624750000001  0.15667589000000007  0.4495138568393826  1.0000
  Au  Au29      1.0  0.5021624750000001  0.34481041000000007  0.4858750694356809  1.0000
  Au  Au30      1.0  0.5021624750000001  0.75865623  0.4381500285997026  1.0000
  Au  Au31      1.0  0.752162475  0.44679075000000007  0.4443099150242771  1.0000
  Au  Au32      1.0  0.752162475  0.6566758900000002  0.479715186635266  1.0000
