data_image0
_chemical_formula_structural       COIn12Cu12Se24
_chemical_formula_sum              "C1 O1 In12 Cu12 Se24"
_cell_length_a       5.95822641
_cell_length_b       16.88480562869013
_cell_length_c       110.09186299999999
_cell_angle_alpha    71.36746394930546
_cell_angle_beta     90.0
_cell_angle_gamma    90.0

_space_group_name_H-M_alt    "P 1"
_space_group_IT_number       1

loop_
  _space_group_symop_operation_xyz
  'x, y, z'

loop_
  _atom_site_type_symbol
  _atom_site_label
  _atom_site_symmetry_multiplicity
  _atom_site_fract_x
  _atom_site_fract_y
  _atom_site_fract_z
  _atom_site_occupancy
  C   C1        1.0  0.8381328299999999  0.008793490000000001  0.5604864612574818  1.0000
  O   O1        1.0  0.72068035  0.000987820000000001  0.5690398930862567  1.0000
  In  In1       1.0  0.5944721799999999  0.9424955700000001  0.5141733972553324  1.0000
  In  In2       1.0  0.60948172  0.28046392000000003  0.47266312533443305  1.0000
  In  In3       1.0  0.60948172  0.61379725  0.43220008584623826  1.0000
  In  In4       1.0  0.10948171999999999  0.86379725  0.4928946468993672  1.0000
  In  In5       1.0  0.10948171999999999  0.19713059  0.45243160741117244  1.0000
  In  In6       1.0  0.18342719  0.55303071  0.5286579937273285  1.0000
  In  In7       1.0  0.10948171999999999  0.61379725  0.4928946468993672  1.0000
  In  In8       1.0  0.10948171999999999  0.9471305900000001  0.45243160741117244  1.0000
  In  In9       1.0  0.17415531  0.29429891  0.5277228447243879  1.0000
  In  In10      1.0  0.60948172  0.53046392  0.47266312533443305  1.0000
  In  In11      1.0  0.60948172  0.86379725  0.43220008584623826  1.0000
  In  In12      1.0  0.6152878499999999  0.19060414  0.5129982801711553  1.0000
  Cu  Cu1       1.0  0.60948172  0.78046392  0.47266312533443305  1.0000
  Cu  Cu2       1.0  0.60948172  0.11379725  0.4322000858462383  1.0000
  Cu  Cu3       1.0  0.59643821  0.44913177000000004  0.5141888852931122  1.0000
  Cu  Cu4       1.0  0.58193464  0.6977836800000001  0.514711804128972  1.0000
  Cu  Cu5       1.0  0.60948172  0.030463920000000002  0.47266312533443305  1.0000
  Cu  Cu6       1.0  0.60948172  0.36379724999999996  0.43220008584623815  1.0000
  Cu  Cu7       1.0  0.18778866999999996  0.7960928100000001  0.5282558983378496  1.0000
  Cu  Cu8       1.0  0.10948171999999999  0.11379725  0.49289464689936724  1.0000
  Cu  Cu9       1.0  0.10948171999999999  0.44713059000000005  0.45243160741117244  1.0000
  Cu  Cu10      1.0  0.10948171999999999  0.6971305900000001  0.45243160741117244  1.0000
  Cu  Cu11      1.0  0.19152718999999996  0.03736068  0.5285250544329126  1.0000
  Cu  Cu12      1.0  0.10948171999999999  0.36379724999999996  0.4928946468993672  1.0000
  Se  Se1       1.0  0.8288486999999999  0.5747978899999999  0.5132675273080582  1.0000
  Se  Se2       1.0  0.8288369499999998  0.9054639200000001  0.47266312533443305  1.0000
  Se  Se3       1.0  0.8288369499999998  0.23879725000000002  0.43220008584623826  1.0000
  Se  Se4       1.0  0.39012648999999994  0.73879725  0.4928946468993672  1.0000
  Se  Se5       1.0  0.39012648999999994  0.07213059  0.45243160741117244  1.0000
  Se  Se6       1.0  0.39484305999999997  0.40583733000000005  0.5349684641667003  1.0000
  Se  Se7       1.0  0.38542539  0.66673926  0.5350876051598823  1.0000
  Se  Se8       1.0  0.35948171999999995  0.99901218  0.4916546643251988  1.0000
  Se  Se9       1.0  0.35948171999999995  0.33234551  0.451191624837004  1.0000
  Se  Se10      1.0  0.86002197  0.8120657800000001  0.5142175197725531  1.0000
  Se  Se11      1.0  0.8594817199999999  0.145249  0.47390310790860146  1.0000
  Se  Se12      1.0  0.8594817199999999  0.47858233000000006  0.4334400684204067  1.0000
  Se  Se13      1.0  0.35870473  0.90264463  0.5351694845488879  1.0000
  Se  Se14      1.0  0.32883694999999996  0.23879725000000002  0.4928946468993672  1.0000
  Se  Se15      1.0  0.32883694999999996  0.5721305900000001  0.45243160741117244  1.0000
  Se  Se16      1.0  0.89012649  0.73879725  0.43220008584623826  1.0000
  Se  Se17      1.0  0.8905182799999999  0.06867909  0.5128314004788773  1.0000
  Se  Se18      1.0  0.89012649  0.40546392000000003  0.47266312533443305  1.0000
  Se  Se19      1.0  0.8594817199999999  0.6656788400000001  0.47142314640193816  1.0000
  Se  Se20      1.0  0.8594817199999999  0.99901218  0.4309601069137434  1.0000
  Se  Se21      1.0  0.84180828  0.33471841  0.5114280560691192  1.0000
  Se  Se22      1.0  0.35948171999999995  0.47858233000000006  0.4941346258318621  1.0000
  Se  Se23      1.0  0.35948171999999995  0.81191566  0.45367158634366733  1.0000
  Se  Se24      1.0  0.36772075  0.14741012  0.5345522135919757  1.0000
