data_image0
_chemical_formula_structural       COPd8V4
_chemical_formula_sum              "C1 O1 Pd8 V4"
_cell_length_a       4.716216647409019
_cell_length_b       4.803231020502581
_cell_length_c       101.63576959
_cell_angle_alpha    86.09170521888558
_cell_angle_beta     89.14650208322449
_cell_angle_gamma    81.05585031091879

_space_group_name_H-M_alt    "P 1"
_space_group_IT_number       1

loop_
  _space_group_symop_operation_xyz
  'x, y, z'

loop_
  _atom_site_type_symbol
  _atom_site_label
  _atom_site_symmetry_multiplicity
  _atom_site_fract_x
  _atom_site_fract_y
  _atom_site_fract_z
  _atom_site_occupancy
  C   C1        1.0  0.90733611  0.05436530500000001  0.5359591982581844  1.0000
  O   O1        1.0  0.8342143999999998  0.07984993500000002  0.5470466710384135  1.0000
  Pd  Pd1       1.0  0.86511694  0.44808365499999997  0.5050601051313796  1.0000
  Pd  Pd2       1.0  0.22844784999999992  0.175296275  0.524535850680416  1.0000
  Pd  Pd3       1.0  0.7764275800000001  0.9230238949999999  0.5187845838436502  1.0000
  Pd  Pd4       1.0  0.41445651  0.183998085  0.4983725311907588  1.0000
  Pd  Pd5       1.0  0.12323169999999997  0.9456346949999999  0.4661062203970001  1.0000
  Pd  Pd6       1.0  0.4982317  0.695634695  0.4855603516280736  1.0000
  Pd  Pd7       1.0  0.042256099999999956  0.431488305  0.4787086999883195  1.0000
  Pd  Pd8       1.0  0.6672561  0.6814883050000001  0.459254568757246  1.0000
  V   V1        1.0  0.9577439000000001  0.938561495  0.4918615914237332  1.0000
  V   V2        1.0  0.31054963  0.707792505  0.5091915711992702  1.0000
  V   V3        1.0  0.20774389999999998  0.43856149499999997  0.4529533289615864  1.0000
  V   V4        1.0  0.5827439000000001  0.18856149500000002  0.4724074601926598  1.0000
