data_image0
_chemical_formula_structural       COGe16Os8Ge16Os8
_chemical_formula_sum              "C1 O1 Ge32 Os16"
_cell_length_a       6.30017066
_cell_length_b       8.657957372150168
_cell_length_c       113.96134708
_cell_angle_alpha    79.67509462589102
_cell_angle_beta     90.0
_cell_angle_gamma    90.0

_space_group_name_H-M_alt    "P 1"
_space_group_IT_number       1

loop_
  _space_group_symop_operation_xyz
  'x, y, z'

loop_
  _atom_site_type_symbol
  _atom_site_label
  _atom_site_symmetry_multiplicity
  _atom_site_fract_x
  _atom_site_fract_y
  _atom_site_fract_z
  _atom_site_occupancy
  C   C1        1.0  0.376823445  0.620117865  0.5594967057495435  1.0000
  O   O1        1.0  0.376820495  0.642274665  0.5693210827287971  1.0000
  Ge  Ge1       1.0  0.12317296500000001  0.343756265  0.5306245605216279  1.0000
  Ge  Ge2       1.0  0.126826975  0.834561815  0.46699981889197634  1.0000
  Ge  Ge3       1.0  0.126826975  0.6585529950000001  0.4526371306936651  1.0000
  Ge  Ge4       1.0  0.126826975  0.158552995  0.5169299063958898  1.0000
  Ge  Ge5       1.0  0.376826975  0.501910635  0.47832001741639085  1.0000
  Ge  Ge6       1.0  0.376827045  0.019466605000000033  0.5419264510355994  1.0000
  Ge  Ge7       1.0  0.376826975  0.4912041750000001  0.5056097078714752  1.0000
  Ge  Ge8       1.0  0.376826975  0.9912041749999999  0.44131693216925044  1.0000
  Ge  Ge9       1.0  0.376826975  0.584561815  0.4348534329696472  1.0000
  Ge  Ge10      1.0  0.376826975  0.08456181500000003  0.49914620867187187  1.0000
  Ge  Ge11      1.0  0.376827065  0.420573275  0.5489723154717218  1.0000
  Ge  Ge12      1.0  0.376826975  0.9085529950000001  0.48478351661599417  1.0000
  Ge  Ge13      1.0  0.126826975  0.251910635  0.44617363149406175  1.0000
  Ge  Ge14      1.0  0.126826975  0.751910635  0.5104664071962866  1.0000
  Ge  Ge15      1.0  0.129491765  0.7390401550000001  0.5383600614025271  1.0000
  Ge  Ge16      1.0  0.126826975  0.241204175  0.4734633180915796  1.0000
  Os  Os1       1.0  0.376826965  0.572528945  0.5265211590609652  1.0000
  Os  Os2       1.0  0.376826975  0.06898376500000002  0.4628253070510982  1.0000
  Os  Os3       1.0  0.376826975  0.424131045  0.4568116463921095  1.0000
  Os  Os4       1.0  0.376826975  0.924131045  0.5211044182367678  1.0000
  Os  Os5       1.0  0.126826975  0.818983765  0.4306789172712027  1.0000
  Os  Os6       1.0  0.126826975  0.31898376500000003  0.4949716929734274  1.0000
  Os  Os7       1.0  0.125287215  0.189910075  0.5506540408599632  1.0000
  Os  Os8       1.0  0.126826975  0.674131045  0.48895803231443863  1.0000
  Ge  Ge17      1.0  0.6304811349999999  0.343756365  0.5306245643791941  1.0000
  Ge  Ge18      1.0  0.626826975  0.834561815  0.46699981889197634  1.0000
  Ge  Ge19      1.0  0.626826975  0.6585529950000001  0.4526371306936651  1.0000
  Ge  Ge20      1.0  0.626826975  0.158552995  0.5169299063958898  1.0000
  Ge  Ge21      1.0  0.876826975  0.501910635  0.47832001741639085  1.0000
  Ge  Ge22      1.0  0.8768270349999999  0.008795825000000033  0.5426192313970457  1.0000
  Ge  Ge23      1.0  0.876826975  0.4912041750000001  0.5056097078714752  1.0000
  Ge  Ge24      1.0  0.876826975  0.9912041749999999  0.44131693216925044  1.0000
  Ge  Ge25      1.0  0.876826975  0.584561815  0.4348534329696472  1.0000
  Ge  Ge26      1.0  0.876826975  0.08456181500000003  0.49914620867187187  1.0000
  Ge  Ge27      1.0  0.8768269649999999  0.422403635  0.5497718231245545  1.0000
  Ge  Ge28      1.0  0.876826975  0.9085529950000001  0.48478351661599417  1.0000
  Ge  Ge29      1.0  0.626826975  0.251910635  0.44617363149406175  1.0000
  Ge  Ge30      1.0  0.626826975  0.751910635  0.5104664071962866  1.0000
  Ge  Ge31      1.0  0.6241623249999999  0.739040115  0.5383600768327931  1.0000
  Ge  Ge32      1.0  0.626826975  0.241204175  0.4734633180915796  1.0000
  Os  Os9       1.0  0.8768269649999999  0.574369855  0.5260743448524592  1.0000
  Os  Os10      1.0  0.876826975  0.06898376500000002  0.4628253070510982  1.0000
  Os  Os11      1.0  0.876826975  0.424131045  0.4568116463921095  1.0000
  Os  Os12      1.0  0.876826975  0.924131045  0.5211044182367678  1.0000
  Os  Os13      1.0  0.626826975  0.818983765  0.4306789172712027  1.0000
  Os  Os14      1.0  0.626826975  0.31898376500000003  0.4949716929734274  1.0000
  Os  Os15      1.0  0.6283667549999999  0.189910105  0.5506540408599632  1.0000
  Os  Os16      1.0  0.626826975  0.674131045  0.48895803231443863  1.0000
