data_image0
_chemical_formula_structural       Pt4Rh12CO
_chemical_formula_sum              "Pt4 Rh12 C1 O1"
_cell_length_a       4.75041432
_cell_length_b       4.750414327104038
_cell_length_c       102.97695791000001
_cell_angle_alpha    90.0
_cell_angle_beta     90.0
_cell_angle_gamma    109.31081165380668

_space_group_name_H-M_alt    "P 1"
_space_group_IT_number       1

loop_
  _space_group_symop_operation_xyz
  'x, y, z'

loop_
  _atom_site_type_symbol
  _atom_site_label
  _atom_site_symmetry_multiplicity
  _atom_site_fract_x
  _atom_site_fract_y
  _atom_site_fract_z
  _atom_site_occupancy
  Pt  Pt1       1.0  0.5045150700000001  0.511607475  0.4556485754019115  1.0000
  Pt  Pt2       1.0  0.004515069999999941  0.011607474999999987  0.4823349341898793  1.0000
  Pt  Pt3       1.0  0.5052427899999999  0.510880805  0.5090096748056147  1.0000
  Pt  Pt4       1.0  0.02772598999999996  0.9883925250000001  0.535618520402048  1.0000
  Rh  Rh1       1.0  0.50451507  0.011607474999999987  0.44230539921029044  1.0000
  Rh  Rh2       1.0  0.004515069999999953  0.511607475  0.4689917547958955  1.0000
  Rh  Rh3       1.0  0.004515069999999953  0.511607475  0.44230539921029044  1.0000
  Rh  Rh4       1.0  0.50451507  0.011607474999999987  0.4689917547958955  1.0000
  Rh  Rh5       1.0  0.004515069999999941  0.011607474999999987  0.4556485754019115  1.0000
  Rh  Rh6       1.0  0.5045150700000001  0.511607475  0.4823349341898793  1.0000
  Rh  Rh7       1.0  0.50451507  0.011607474999999987  0.49567811038150045  1.0000
  Rh  Rh8       1.0  0.99671132  0.49929406499999995  0.5221194403799512  1.0000
  Rh  Rh9       1.0  0.004515069999999953  0.511607475  0.49567811038150045  1.0000
  Rh  Rh10      1.0  0.51682911  0.019407954999999987  0.5221189568231687  1.0000
  Rh  Rh11      1.0  0.0032886799999999406  0.012846684999999986  0.5086992889937457  1.0000
  Rh  Rh12      1.0  0.4797728699999999  0.5363481649999999  0.5351595865870512  1.0000
  C   C1        1.0  0.25578128999999994  0.760339655  0.5460505982989019  1.0000
  O   O1        1.0  0.26455255999999994  0.7515780350000001  0.5576946007897094  1.0000
