data_image0
_chemical_formula_structural       COAl24
_chemical_formula_sum              "C1 O1 Al24"
_cell_length_a       8.1198903
_cell_length_b       4.972397009818432
_cell_length_c       102.73232428
_cell_angle_alpha    92.9025258716826
_cell_angle_beta     90.0
_cell_angle_gamma    114.09484256768695

_space_group_name_H-M_alt    "P 1"
_space_group_IT_number       1

loop_
  _space_group_symop_operation_xyz
  'x, y, z'

loop_
  _atom_site_type_symbol
  _atom_site_label
  _atom_site_symmetry_multiplicity
  _atom_site_fract_x
  _atom_site_fract_y
  _atom_site_fract_z
  _atom_site_occupancy
  C   C1        1.0  0.431649285  0.74422117  0.549971897994625  1.0000
  O   O1        1.0  0.449437555  0.81772032  0.5613027738240646  1.0000
  Al  Al1       1.0  0.445259125  0.80555556  0.4652486930811432  1.0000
  Al  Al2       1.0  0.13970356499999995  0.58333333  0.447547715144338  1.0000
  Al  Al3       1.0  0.2508146849999999  0.02777777999999999  0.4829496678317727  1.0000
  Al  Al4       1.0  0.29248134499999995  0.19444444  0.45639820411274057  1.0000
  Al  Al5       1.0  0.4869257849999999  0.97222222  0.43869722617593543  1.0000
  Al  Al6       1.0  0.09803690499999992  0.41666667  0.47409917886337005  1.0000
  Al  Al7       1.0  0.35602449499999994  0.4663645799999999  0.5178254299625272  1.0000
  Al  Al8       1.0  0.05637023499999993  0.25  0.5006506457685779  1.0000
  Al  Al9       1.0  0.19377230499999992  0.6862923  0.5364324957520418  1.0000
  Al  Al10      1.0  0.20301122499999993  0.86294328  0.5100194267639174  1.0000
  Al  Al11      1.0  0.40359245499999996  0.63888889  0.49180015680017525  1.0000
  Al  Al12      1.0  0.013074214999999929  0.06815855999999999  0.529689748084708  1.0000
  Al  Al13      1.0  0.945259125  0.80555556  0.4652486930811432  1.0000
  Al  Al14      1.0  0.6397035649999999  0.58333333  0.447547715144338  1.0000
  Al  Al15      1.0  0.7508146849999999  0.02777777999999999  0.4829496678317727  1.0000
  Al  Al16      1.0  0.7924813449999999  0.19444444  0.45639820411274057  1.0000
  Al  Al17      1.0  0.986925785  0.97222222  0.43869722617593543  1.0000
  Al  Al18      1.0  0.5980369050000001  0.41666667  0.47409917886337005  1.0000
  Al  Al19      1.0  0.8682878249999999  0.4773946399999999  0.5201005601940447  1.0000
  Al  Al20      1.0  0.5563702349999999  0.25  0.5006506457685779  1.0000
  Al  Al21      1.0  0.6386352449999999  0.70087598  0.5361735456883833  1.0000
  Al  Al22      1.0  0.7153975149999999  0.86945262  0.5100602512341063  1.0000
  Al  Al23      1.0  0.903592455  0.63888889  0.4918001568001753  1.0000
  Al  Al24      1.0  0.5195322549999999  0.1163961  0.5272953338045734  1.0000
