data_image0
_chemical_formula_structural       COZn12Sn12Sb24
_chemical_formula_sum              "C1 O1 Zn12 Sn12 Sb24"
_cell_length_a       12.97218709
_cell_length_b       14.451019088427152
_cell_length_c       106.55850787
_cell_angle_alpha    71.56505118961587
_cell_angle_beta     90.0
_cell_angle_gamma    90.0

_space_group_name_H-M_alt    "P 1"
_space_group_IT_number       1

loop_
  _space_group_symop_operation_xyz
  'x, y, z'

loop_
  _atom_site_type_symbol
  _atom_site_label
  _atom_site_symmetry_multiplicity
  _atom_site_fract_x
  _atom_site_fract_y
  _atom_site_fract_z
  _atom_site_occupancy
  C   C1        1.0  0.8050931699999999  0.8847539750000002  0.544766435684368  1.0000
  O   O1        1.0  0.74867013  0.9033673750000001  0.5519223663377433  1.0000
  Zn  Zn1       1.0  0.50126813  0.669179875  0.4567129352069511  1.0000
  Zn  Zn2       1.0  0.47341252  0.29878437500000005  0.5109241291378741  1.0000
  Zn  Zn3       1.0  0.50126813  0.0025132050000000496  0.4853032586033246  1.0000
  Zn  Zn4       1.0  0.75126813  0.5025132050000001  0.4853032586033246  1.0000
  Zn  Zn5       1.0  0.75126813  0.16917987500000004  0.45671293520695116  1.0000
  Zn  Zn6       1.0  0.71515636  0.8279693950000002  0.5100017995501492  1.0000
  Zn  Zn7       1.0  0.012113690000000002  0.672965265  0.5008375072410732  1.0000
  Zn  Zn8       1.0  0.001268130000000001  0.33584653500000006  0.4710080986205574  1.0000
  Zn  Zn9       1.0  0.99873187  0.06426904500000005  0.5194058045762984  1.0000
  Zn  Zn10      1.0  0.25126813  0.835846535  0.47100809862055737  1.0000
  Zn  Zn11      1.0  0.23422348  0.5597311250000001  0.5194005828394244  1.0000
  Zn  Zn12      1.0  0.25850996  0.17687731500000003  0.500100470403079  1.0000
  Sn  Sn1       1.0  0.5041724200000001  0.6675465550000002  0.49993798930149225  1.0000
  Sn  Sn2       1.0  0.50126813  0.33584653500000006  0.4710080986205574  1.0000
  Sn  Sn3       1.0  0.42837471  0.9873895050000001  0.5213045269118403  1.0000
  Sn  Sn4       1.0  0.25126813  0.5025132050000001  0.4853032586033246  1.0000
  Sn  Sn5       1.0  0.25126813  0.16917987500000004  0.45671293520695116  1.0000
  Sn  Sn6       1.0  0.26440511000000005  0.835271155  0.5151004241994372  1.0000
  Sn  Sn7       1.0  0.001268130000000001  0.669179875  0.4567129352069511  1.0000
  Sn  Sn8       1.0  0.025956550000000002  0.337452405  0.5161051659694551  1.0000
  Sn  Sn9       1.0  0.001268130000000001  0.0025132050000000496  0.4853032586033246  1.0000
  Sn  Sn10      1.0  0.75126813  0.835846535  0.47100809862055737  1.0000
  Sn  Sn11      1.0  0.8386813900000001  0.5898782050000001  0.5238560452659257  1.0000
  Sn  Sn12      1.0  0.75230483  0.17106409500000008  0.5001023024710755  1.0000
  Sb  Sb1       1.0  0.62626813  0.660507245  0.47741181783528563  1.0000
  Sb  Sb2       1.0  0.62626813  0.3271739150000001  0.4488214944389121  1.0000
  Sb  Sb3       1.0  0.61942328  0.9974867949999999  0.5066549338193638  1.0000
  Sb  Sb4       1.0  0.37626813000000003  0.511185835  0.46237279707586293  1.0000
  Sb  Sb5       1.0  0.34463579000000005  0.16321165500000007  0.523971136189168  1.0000
  Sb  Sb6       1.0  0.37626813000000003  0.8445191650000002  0.4909631204722364  1.0000
  Sb  Sb7       1.0  0.37626813000000003  0.8271739150000001  0.45105307333803946  1.0000
  Sb  Sb8       1.0  0.38121176  0.48664967500000006  0.5082788699712999  1.0000
  Sb  Sb9       1.0  0.37626813000000003  0.16050724500000008  0.4796433967344128  1.0000
  Sb  Sb10      1.0  0.62609866  0.6605727250000001  0.5232547667249773  1.0000
  Sb  Sb11      1.0  0.62626813  0.34451916500000007  0.4931946993713636  1.0000
  Sb  Sb12      1.0  0.62626813  0.011185835000000048  0.46460437597499027  1.0000
  Sb  Sb13      1.0  0.10287565000000001  0.6791988449999999  0.5242109655547651  1.0000
  Sb  Sb14      1.0  0.12626813  0.3271739150000001  0.4917069812488918  1.0000
  Sb  Sb15      1.0  0.12626813  0.9938405750000002  0.4631166578525183  1.0000
  Sb  Sb16      1.0  0.8762681299999999  0.8445191650000002  0.4480776336622567  1.0000
  Sb  Sb17      1.0  0.8941149099999999  0.5060030950000001  0.503676142213932  1.0000
  Sb  Sb18      1.0  0.8762681299999999  0.17785249500000008  0.47666796048946913  1.0000
  Sb  Sb19      1.0  0.8762681299999999  0.4938405750000001  0.4653482367516456  1.0000
  Sb  Sb20      1.0  0.8635250800000001  0.18242665500000005  0.5234724157167963  1.0000
  Sb  Sb21      1.0  0.8762681299999999  0.8271739150000001  0.4939385601480191  1.0000
  Sb  Sb22      1.0  0.12626813  0.6778524950000001  0.4788995393885964  1.0000
  Sb  Sb23      1.0  0.12626813  0.34451916500000007  0.450309212561384  1.0000
  Sb  Sb24      1.0  0.14066839  0.01167389500000005  0.5058677861477419  1.0000
