data_image0
_chemical_formula_structural       COPt6Pb24
_chemical_formula_sum              "C1 O1 Pt6 Pb24"
_cell_length_a       15.35323779804169
_cell_length_b       6.20469403
_cell_length_c       108.84096073
_cell_angle_alpha    90.0
_cell_angle_beta     108.43494882292202
_cell_angle_gamma    90.0

_space_group_name_H-M_alt    "P 1"
_space_group_IT_number       1

loop_
  _space_group_symop_operation_xyz
  'x, y, z'

loop_
  _atom_site_type_symbol
  _atom_site_label
  _atom_site_symmetry_multiplicity
  _atom_site_fract_x
  _atom_site_fract_y
  _atom_site_fract_z
  _atom_site_occupancy
  C   C1        1.0  0.7957687800000001  0.10649291000000004  0.5408695316433741  1.0000
  O   O1        1.0  0.8124819700000001  0.12671382000000003  0.5521051010645716  1.0000
  Pt  Pt1       1.0  0.7669682400000001  0.062122600000000035  0.5229411106756521  1.0000
  Pt  Pt2       1.0  0.44110576000000007  0.07673531000000004  0.4634681167617363  1.0000
  Pt  Pt3       1.0  0.10777243000000004  0.07673531000000004  0.4932064337035454  1.0000
  Pt  Pt4       1.0  0.7744391  0.07673531000000004  0.47833727523264086  1.0000
  Pt  Pt5       1.0  0.43684986000000003  0.07700248000000004  0.5065829904805684  1.0000
  Pt  Pt6       1.0  0.10777243000000004  0.07673531000000004  0.44859896185942955  1.0000
  Pb  Pb1       1.0  0.8247334900000001  0.82571769  0.4582770453424996  1.0000
  Pb  Pb2       1.0  0.49140016000000003  0.82571769  0.48801535871571095  1.0000
  Pb  Pb3       1.0  0.15679244000000003  0.8427666100000001  0.5173459597962671  1.0000
  Pb  Pb4       1.0  0.5946322300000001  0.81718583  0.5218623271451717  1.0000
  Pb  Pb5       1.0  0.27443910000000005  0.82571769  0.46276405740633303  1.0000
  Pb  Pb6       1.0  0.9411057600000001  0.82571769  0.4925023707795444  1.0000
  Pb  Pb7       1.0  0.8247334900000001  0.3277529300000001  0.5028845171866155  1.0000
  Pb  Pb8       1.0  0.49760152  0.3290694600000001  0.5305574546530758  1.0000
  Pb  Pb9       1.0  0.15806682000000002  0.3277529300000001  0.47314620381340416  1.0000
  Pb  Pb10      1.0  0.7241447000000001  0.3277529300000001  0.4537900332786662  1.0000
  Pb  Pb11      1.0  0.39081137000000005  0.3277529300000001  0.48352834665187755  1.0000
  Pb  Pb12      1.0  0.054299170000000035  0.3401032600000001  0.5121263752810277  1.0000
  Pb  Pb13      1.0  0.6059281100000002  0.3251789900000001  0.5083474764996387  1.0000
  Pb  Pb14      1.0  0.27443910000000005  0.3277529300000001  0.44930302121483284  1.0000
  Pb  Pb15      1.0  0.9411057600000001  0.3277529300000001  0.47904133815664185  1.0000
  Pb  Pb16      1.0  0.9411057600000001  0.3277529300000001  0.44789489893542844  1.0000
  Pb  Pb17      1.0  0.6077724300000001  0.3277529300000001  0.4776332123086398  1.0000
  Pb  Pb18      1.0  0.27524544  0.32820177000000006  0.509449823481046  1.0000
  Pb  Pb19      1.0  0.7241447000000001  0.82571769  0.4983975051227821  1.0000
  Pb  Pb20      1.0  0.38639407000000003  0.8529026600000001  0.5271750877475991  1.0000
  Pb  Pb21      1.0  0.05747804000000003  0.82571769  0.46865919174957077  1.0000
  Pb  Pb22      1.0  0.94570083  0.9378774  0.5228517851054336  1.0000
  Pb  Pb23      1.0  0.6077724300000001  0.82571769  0.4641721796857374  1.0000
  Pb  Pb24      1.0  0.27443910000000005  0.82571769  0.49391049305894874  1.0000
