data_image0
_chemical_formula_structural       COV12Ga10V12Ga10
_chemical_formula_sum              "C1 O1 V24 Ga20"
_cell_length_a       8.528865770518944
_cell_length_b       8.52886577
_cell_length_c       100.89973413999999
_cell_angle_alpha    90.0
_cell_angle_beta     90.0
_cell_angle_gamma    120.00000003677287

_space_group_name_H-M_alt    "P 1"
_space_group_IT_number       1

loop_
  _space_group_symop_operation_xyz
  'x, y, z'

loop_
  _atom_site_type_symbol
  _atom_site_label
  _atom_site_symmetry_multiplicity
  _atom_site_fract_x
  _atom_site_fract_y
  _atom_site_fract_z
  _atom_site_occupancy
  C   C1        1.0  0.024380820000000015  0.23359369500000007  0.547951509751311  1.0000
  O   O1        1.0  0.02302575000000001  0.23084958500000005  0.5595692554787506  1.0000
  V   V1        1.0  0.025630520000000014  0.23621070500000005  0.5282350540503032  1.0000
  V   V2        1.0  0.3366826500000001  0.3924938850000001  0.5043288589774795  1.0000
  V   V3        1.0  0.18120943000000003  0.047002035000000136  0.4914710751712139  1.0000
  V   V4        1.0  0.022548980000000014  0.7062518649999999  0.52789516832885  1.0000
  V   V5        1.0  0.87107619  0.3924445250000002  0.5043200912696558  1.0000
  V   V6        1.0  0.33631851  0.857101345  0.5044516160742706  1.0000
  V   V7        1.0  0.6812094300000001  0.5470020350000001  0.4914710751712139  1.0000
  V   V8        1.0  0.19019505000000003  0.045537005000000116  0.517617889674428  1.0000
  V   V9        1.0  0.4989060300000001  0.7061456850000002  0.5278866119279909  1.0000
  V   V10       1.0  0.6812094300000001  0.04700203500000021  0.4914710751712139  1.0000
  V   V11       1.0  0.6790742700000001  0.5430329650000002  0.5181299936345029  1.0000
  V   V12       1.0  0.6706141000000001  0.04548114500000013  0.5176200609300504  1.0000
  Ga  Ga1       1.0  0.18120943000000003  0.547002035  0.4914710751712139  1.0000
  Ga  Ga2       1.0  0.36776502000000005  0.3572705250000001  0.5311608500945081  1.0000
  Ga  Ga3       1.0  0.5944204300000001  0.7532517750000002  0.5040687033549399  1.0000
  Ga  Ga4       1.0  0.97432364  0.13361614500000007  0.504114406907703  1.0000
  Ga  Ga5       1.0  0.8046522100000002  0.35767550500000017  0.5311574875575921  1.0000
  Ga  Ga6       1.0  0.18245758000000006  0.550136265  0.5186490309129544  1.0000
  Ga  Ga7       1.0  0.36954211000000003  0.9235595150000002  0.5311595455036826  1.0000
  Ga  Ga8       1.0  0.97432185  0.7531301750000001  0.5040784755364507  1.0000
  Ga  Ga9       1.0  0.51544168  0.21577129500000014  0.5049316442495932  1.0000
  Ga  Ga10      1.0  0.8516320300000001  0.8879233750000002  0.5279289896928754  1.0000
  V   V13       1.0  0.024400690000000013  0.2333845650000001  0.4787109917431178  1.0000
  V   V14       1.0  0.33801816000000007  0.3901933050000001  0.45319082794934545  1.0000
  V   V15       1.0  0.18120943000000003  0.047002035000000136  0.44043074452124936  1.0000
  V   V16       1.0  0.024400690000000013  0.7038107750000001  0.4787109917431178  1.0000
  V   V17       1.0  0.86759196  0.3901933050000001  0.45319082794934545  1.0000
  V   V18       1.0  0.33801816000000007  0.8606195050000001  0.45319082794934545  1.0000
  V   V19       1.0  0.6812094300000001  0.5470020350000001  0.44043074452124936  1.0000
  V   V20       1.0  0.18120943000000003  0.047002035000000136  0.46595090831502173  1.0000
  V   V21       1.0  0.49482690000000007  0.7038107750000001  0.4787109917431178  1.0000
  V   V22       1.0  0.6812094300000001  0.04700203500000021  0.44043074452124936  1.0000
  V   V23       1.0  0.6812094300000001  0.5470020350000001  0.46595090831502173  1.0000
  V   V24       1.0  0.6812094300000001  0.04700203500000021  0.46595090831502173  1.0000
  Ga  Ga11      1.0  0.18120943000000003  0.547002035  0.44043074452124936  1.0000
  Ga  Ga12      1.0  0.38496784000000006  0.34324362500000016  0.4787109917431178  1.0000
  Ga  Ga13      1.0  0.58872625  0.7507604450000002  0.45319082794934545  1.0000
  Ga  Ga14      1.0  0.9774510200000001  0.13948521500000008  0.45319082794934545  1.0000
  Ga  Ga15      1.0  0.77369261  0.34324362500000016  0.4787109917431178  1.0000
  Ga  Ga16      1.0  0.18120943000000003  0.547002035  0.46595090831502173  1.0000
  Ga  Ga17      1.0  0.38496784000000006  0.9545188550000001  0.4787109917431178  1.0000
  Ga  Ga18      1.0  0.9774510200000001  0.7507604450000002  0.45319082794934545  1.0000
  Ga  Ga19      1.0  0.5145427600000001  0.21366870500000013  0.45319082794934545  1.0000
  Ga  Ga20      1.0  0.8478760900000001  0.880335375  0.4787109917431178  1.0000
