data_image0
_chemical_formula_structural       COAl72Re6
_chemical_formula_sum              "C1 O1 Al72 Re6"
_cell_length_a       10.711877040991375
_cell_length_b       10.71187704
_cell_length_c       109.35794939
_cell_angle_alpha    90.0
_cell_angle_beta     90.0
_cell_angle_gamma    60.00000000306151

_space_group_name_H-M_alt    "P 1"
_space_group_IT_number       1

loop_
  _space_group_symop_operation_xyz
  'x, y, z'

loop_
  _atom_site_type_symbol
  _atom_site_label
  _atom_site_symmetry_multiplicity
  _atom_site_fract_x
  _atom_site_fract_y
  _atom_site_fract_z
  _atom_site_occupancy
  C   C1        1.0  0.44503623499999995  0.4886885449999999  0.5564673718488025  1.0000
  O   O1        1.0  0.416956085  0.48807960499999997  0.5667957989876894  1.0000
  Al  Al1       1.0  0.934687125  0.13159792499999998  0.4934891855892889  1.0000
  Al  Al2       1.0  0.21824639499999998  0.5111000749999999  0.5350856389509733  1.0000
  Al  Al3       1.0  0.601353795  0.7982645949999998  0.4535002733205425  1.0000
  Al  Al4       1.0  0.7517471649999999  0.3771956449999999  0.4485395131415843  1.0000
  Al  Al5       1.0  0.08508050499999997  0.7105289850000001  0.4885284254103307  1.0000
  Al  Al6       1.0  0.4462537749999999  0.025356135000000002  0.5299083664022642  1.0000
  Al  Al7       1.0  0.6865752549999999  0.815794955  0.47815387705901746  1.0000
  Al  Al8       1.0  0.017671324999999977  0.15432942499999996  0.5177053414146318  1.0000
  Al  Al9       1.0  0.353241925  0.4824616250000001  0.43816496479027095  1.0000
  Al  Al10      1.0  0.9572508249999999  0.9661883350000002  0.4731931168800592  1.0000
  Al  Al11      1.0  0.290584155  0.299521665  0.5131820291488056  1.0000
  Al  Al12      1.0  0.6239174949999999  0.6328550049999999  0.43320420101231066  1.0000
  Al  Al13      1.0  0.563773875  0.06894016499999994  0.4485395131415843  1.0000
  Al  Al14      1.0  0.8971072050000001  0.402273495  0.4885284254103307  1.0000
  Al  Al15      1.0  0.22387685499999996  0.7542064350000001  0.5296464562195171  1.0000
  Al  Al16      1.0  0.49860196499999987  0.507539475  0.47815387705901746  1.0000
  Al  Al17      1.0  0.8340748349999999  0.8401587549999999  0.5171506811997983  1.0000
  Al  Al18      1.0  0.165268625  0.17420613499999998  0.43816496479027095  1.0000
  Al  Al19      1.0  0.769277535  0.2744438150000001  0.4731931168800592  1.0000
  Al  Al20      1.0  0.10261086499999998  0.6077771550000001  0.5131820291488056  1.0000
  Al  Al21      1.0  0.435944195  0.9411104850000002  0.43320420101231066  1.0000
  Al  Al22      1.0  0.8144049349999999  0.9436246350000002  0.4934891855892889  1.0000
  Al  Al23      1.0  0.19866987499999997  0.265604285  0.5351333653183542  1.0000
  Al  Al24      1.0  0.48107160499999996  0.610291295  0.4535002733205425  1.0000
  Al  Al25      1.0  0.626431635  0.25188011499999996  0.4934891855892889  1.0000
  Al  Al26      1.0  0.9562180549999999  0.5230605650000002  0.5365779399953828  1.0000
  Al  Al27      1.0  0.293098305  0.9185467849999999  0.4535002733205425  1.0000
  Al  Al28      1.0  0.06000265499999998  0.880966865  0.4485395131415843  1.0000
  Al  Al29      1.0  0.393335985  0.2143002049999999  0.4885284254103307  1.0000
  Al  Al30      1.0  0.7130240849999999  0.5333454649999999  0.5298610503211273  1.0000
  Al  Al31      1.0  0.190346475  0.0037682549999999296  0.47815387705901746  1.0000
  Al  Al32      1.0  0.5232937149999999  0.334224215  0.5173445378510768  1.0000
  Al  Al33      1.0  0.8570131449999999  0.670434915  0.43816496479027095  1.0000
  Al  Al34      1.0  0.6489953449999999  0.08647052499999996  0.4731931168800592  1.0000
  Al  Al35      1.0  0.9823286750000001  0.419803855  0.5131820291488056  1.0000
  Al  Al36      1.0  0.31566200499999997  0.753137195  0.43320420101231066  1.0000
  Al  Al37      1.0  0.934687125  0.13159792499999998  0.43350581538666816  1.0000
  Al  Al38      1.0  0.26802045499999994  0.464931265  0.4734947276554146  1.0000
  Al  Al39      1.0  0.601353795  0.7982645949999998  0.5134836435231632  1.0000
  Al  Al40      1.0  0.418413835  0.04386231499999995  0.4685339674764564  1.0000
  Al  Al41      1.0  0.7517471649999999  0.3771956449999999  0.5085228797452028  1.0000
  Al  Al42      1.0  0.956822605  0.7653330449999998  0.5398461074628264  1.0000
  Al  Al43      1.0  0.01990859499999998  0.14912828499999992  0.45815941912514313  1.0000
  Al  Al44      1.0  0.353241925  0.4824616250000001  0.49814833139388953  1.0000
  Al  Al45      1.0  0.6888819549999998  0.7829402550000002  0.5387754547121536  1.0000
  Al  Al46      1.0  0.290584155  0.299521665  0.453198658946185  1.0000
  Al  Al47      1.0  0.6239174949999999  0.6328550049999999  0.49318757121493134  1.0000
  Al  Al48      1.0  0.9637201449999999  0.002306425000000061  0.53412994192766  1.0000
  Al  Al49      1.0  0.23044054499999997  0.735606825  0.4685339674764564  1.0000
  Al  Al50      1.0  0.563773875  0.06894016499999994  0.5085228797452028  1.0000
  Al  Al51      1.0  0.9689630250000001  0.25677056499999995  0.541948723691165  1.0000
  Al  Al52      1.0  0.831935295  0.8408728050000001  0.45815941912514313  1.0000
  Al  Al53      1.0  0.165268625  0.17420613499999998  0.49814833139388953  1.0000
  Al  Al54      1.0  0.47511032499999994  0.5295779850000001  0.5388279533563723  1.0000
  Al  Al55      1.0  0.10261086499999998  0.6077771550000001  0.453198658946185  1.0000
  Al  Al56      1.0  0.435944195  0.9411104850000002  0.49318757121493134  1.0000
  Al  Al57      1.0  0.7280404549999999  0.27215320499999995  0.5342428822138208  1.0000
  Al  Al58      1.0  0.8144049349999999  0.9436246350000002  0.43350581538666816  1.0000
  Al  Al59      1.0  0.14773826499999995  0.276957965  0.4734947276554146  1.0000
  Al  Al60      1.0  0.48107160499999996  0.610291295  0.5134836435231632  1.0000
  Al  Al61      1.0  0.626431635  0.25188011499999996  0.43350581538666816  1.0000
  Al  Al62      1.0  0.9597649749999999  0.5852134549999999  0.4734947276554146  1.0000
  Al  Al63      1.0  0.293098305  0.9185467849999999  0.5134836435231632  1.0000
  Al  Al64      1.0  0.7266693249999999  0.547633535  0.4685339674764564  1.0000
  Al  Al65      1.0  0.06000265499999998  0.880966865  0.5085228797452028  1.0000
  Al  Al66      1.0  0.45451781499999994  0.26916368499999993  0.5399349884196801  1.0000
  Al  Al67      1.0  0.5236798149999999  0.337101585  0.45815941912514313  1.0000
  Al  Al68      1.0  0.8570131449999999  0.670434915  0.49814833139388953  1.0000
  Al  Al69      1.0  0.21917511499999998  0.997693575  0.5389064871820732  1.0000
  Al  Al70      1.0  0.9823286750000001  0.419803855  0.453198658946185  1.0000
  Al  Al71      1.0  0.31566200499999997  0.753137195  0.49318757121493134  1.0000
  Al  Al72      1.0  0.6984611249999999  0.034675754999999954  0.534624718345883  1.0000
  Re  Re1       1.0  0.7918412349999999  0.10903422499999997  0.5133328345364833  1.0000
  Re  Re2       1.0  0.12517456499999996  0.4423675549999999  0.43335500999899046  1.0000
  Re  Re3       1.0  0.4585078949999999  0.7757008950000001  0.4733439222677369  1.0000
  Re  Re4       1.0  0.7918412349999999  0.10903422499999997  0.4533494643338627  1.0000
  Re  Re5       1.0  0.12517456499999996  0.4423675549999999  0.4933383802016112  1.0000
  Re  Re6       1.0  0.4601731949999999  0.7735259250000001  0.5318735583328822  1.0000
