data_image0
_chemical_formula_structural       COIn6Au9
_chemical_formula_sum              "C1 O1 In6 Au9"
_cell_length_a       4.744083148789125
_cell_length_b       11.117246552143039
_cell_length_c       40.04691768
_cell_angle_alpha    97.63564979328059
_cell_angle_beta     108.46755581555256
_cell_angle_gamma    64.73966706006095

_space_group_name_H-M_alt    "P 1"
_space_group_IT_number       1

loop_
  _space_group_symop_operation_xyz
  'x, y, z'

loop_
  _atom_site_type_symbol
  _atom_site_label
  _atom_site_symmetry_multiplicity
  _atom_site_fract_x
  _atom_site_fract_y
  _atom_site_fract_z
  _atom_site_occupancy
  C   C1        1.0  0.42347588500000016  0.2684737  0.5958095365341193  1.0000
  O   O1        1.0  0.5748344450000001  0.30492552  0.6204461937214619  1.0000
  In  In1       1.0  0.31377681500000026  0.6784609599999999  0.5500005160047621  1.0000
  In  In2       1.0  0.5825971650000001  0.05007991  0.4220111966343607  1.0000
  In  In3       1.0  0.9777962550000002  0.37417435  0.48547225026466095  1.0000
  In  In4       1.0  0.12847698499999993  0.6104733400000001  0.4617547186148659  1.0000
  In  In5       1.0  0.4617510050000003  0.9499200899999999  0.5277743961690629  1.0000
  In  In6       1.0  0.7951436550000002  0.27714  0.39942556726879025  1.0000
  Au  Au1       1.0  0.5897582250000002  0.54649938  0.4233502211651047  1.0000
  Au  Au2       1.0  0.9529100349999999  0.8603003699999999  0.4919945067707007  1.0000
  Au  Au3       1.0  0.14536025500000005  0.21773710999999998  0.5531117252086257  1.0000
  Au  Au4       1.0  0.787982595  0.7807205300000001  0.39808654273804644  1.0000
  Au  Au5       1.0  0.12131592500000003  0.11405387  0.46041568660462434  1.0000
  Au  Au6       1.0  0.520834235  0.42459007000000004  0.5205897254408386  1.0000
  Au  Au7       1.0  0.35553707500000026  0.8302766199999999  0.4418829576246134  1.0000
  Au  Au8       1.0  0.7010669250000002  0.13952731  0.5063855013725946  1.0000
  Au  Au9       1.0  0.022203745000000063  0.49694329  0.3795538062785378  1.0000
