data_image0
_chemical_formula_structural       COVPd3VPd3VPd3VPd3VPd3VPd3VPd3VPd3
_chemical_formula_sum              "C1 O1 V8 Pd24"
_cell_length_a       7.82946544
_cell_length_b       7.82946544
_cell_length_c       101.31786176
_cell_angle_alpha    90.0
_cell_angle_beta     90.0
_cell_angle_gamma    90.0

_space_group_name_H-M_alt    "P 1"
_space_group_IT_number       1

loop_
  _space_group_symop_operation_xyz
  'x, y, z'

loop_
  _atom_site_type_symbol
  _atom_site_label
  _atom_site_symmetry_multiplicity
  _atom_site_fract_x
  _atom_site_fract_y
  _atom_site_fract_z
  _atom_site_occupancy
  C   C1        1.0  0.37838496  0.37685404499999997  0.5283725569288751  1.0000
  O   O1        1.0  0.37922805000000004  0.37686780499999994  0.5403068119828138  1.0000
  V   V1        1.0  0.12325515000000001  0.12325798500000001  0.5000285829430926  1.0000
  Pd  Pd1       1.0  0.37672053  0.37681846499999994  0.4978560103466719  1.0000
  Pd  Pd2       1.0  0.37681633  0.128336645  0.5174063570406908  1.0000
  Pd  Pd3       1.0  0.12836568  0.376849465  0.5174061499403138  1.0000
  V   V2        1.0  0.12644879  0.126850035  0.4596931880171863  1.0000
  Pd  Pd4       1.0  0.37644879000000003  0.37685003499999997  0.4596931880171863  1.0000
  Pd  Pd5       1.0  0.37644879000000003  0.126850035  0.47901225304677186  1.0000
  Pd  Pd6       1.0  0.12644879  0.37685003499999997  0.47901225304677186  1.0000
  V   V3        1.0  0.12322597999999998  0.6304808749999999  0.5000430923336924  1.0000
  Pd  Pd7       1.0  0.37661895999999995  0.876890645  0.49831881477747025  1.0000
  Pd  Pd8       1.0  0.37691769  0.625387845  0.5174072039885017  1.0000
  Pd  Pd9       1.0  0.1263435  0.8769103349999999  0.517060635417123  1.0000
  V   V4        1.0  0.12644879  0.626850035  0.4596931880171863  1.0000
  Pd  Pd10      1.0  0.37644879000000003  0.876850035  0.4596931880171863  1.0000
  Pd  Pd11      1.0  0.37644879000000003  0.626850035  0.47901225304677186  1.0000
  Pd  Pd12      1.0  0.12644879  0.876850035  0.47901225304677186  1.0000
  V   V5        1.0  0.63057893  0.12308966500000001  0.5000173315196194  1.0000
  Pd  Pd13      1.0  0.8765351499999999  0.376809995  0.4983237264565634  1.0000
  Pd  Pd14      1.0  0.8766805799999999  0.126474775  0.5170532138051013  1.0000
  Pd  Pd15      1.0  0.62536918  0.37687741500000005  0.5174136921033012  1.0000
  V   V6        1.0  0.62644879  0.126850035  0.4596931880171863  1.0000
  Pd  Pd16      1.0  0.87644879  0.37685003499999997  0.4596931880171863  1.0000
  Pd  Pd17      1.0  0.87644879  0.126850035  0.47901225304677186  1.0000
  Pd  Pd18      1.0  0.62644879  0.37685003499999997  0.47901225304677186  1.0000
  V   V7        1.0  0.63053187  0.6305839050000001  0.5000001730988227  1.0000
  Pd  Pd19      1.0  0.8767740199999999  0.876865655  0.49805984348351123  1.0000
  Pd  Pd20      1.0  0.8765198399999999  0.627222115  0.5170545367746745  1.0000
  Pd  Pd21      1.0  0.6270157900000001  0.876817695  0.5170487225088631  1.0000
  V   V8        1.0  0.62644879  0.626850035  0.4596931880171863  1.0000
  Pd  Pd22      1.0  0.87644879  0.876850035  0.4596931880171863  1.0000
  Pd  Pd23      1.0  0.87644879  0.626850035  0.47901225304677186  1.0000
  Pd  Pd24      1.0  0.62644879  0.876850035  0.47901225304677186  1.0000
