data_image0
_chemical_formula_structural       Si4Rh4Si4Rh4CO
_chemical_formula_sum              "Si8 Rh8 C1 O1"
_cell_length_a       4.73903233
_cell_length_b       4.73903233
_cell_length_c       103.17322630999999
_cell_angle_alpha    90.0
_cell_angle_beta     90.0
_cell_angle_gamma    90.0

_space_group_name_H-M_alt    "P 1"
_space_group_IT_number       1

loop_
  _space_group_symop_operation_xyz
  'x, y, z'

loop_
  _atom_site_type_symbol
  _atom_site_label
  _atom_site_symmetry_multiplicity
  _atom_site_fract_x
  _atom_site_fract_y
  _atom_site_fract_z
  _atom_site_occupancy
  Si  Si1       1.0  0.33869022500000007  0.6455931150000002  0.44600881407047116  1.0000
  Si  Si2       1.0  0.6548874450000001  0.14559311500000008  0.45445138534518037  1.0000
  Si  Si3       1.0  0.15488744500000004  0.3293958950000001  0.46897519985053876  1.0000
  Si  Si4       1.0  0.838690225  0.829395895  0.47741777112524797  1.0000
  Rh  Rh1       1.0  0.649099705  0.3351836350000001  0.47768361806983434  1.0000
  Rh  Rh2       1.0  0.34447796500000005  0.8351836350000001  0.4687093529059523  1.0000
  Rh  Rh3       1.0  0.844477965  0.639805375  0.45471723228976674  1.0000
  Rh  Rh4       1.0  0.149099705  0.13980537500000004  0.44574296712588474  1.0000
  Si  Si5       1.0  0.33869022500000007  0.6455931150000002  0.4919415888459004  1.0000
  Si  Si6       1.0  0.657309115  0.14942108500000004  0.5003997639427483  1.0000
  Si  Si7       1.0  0.17598612500000002  0.3428225650000001  0.5165903933264052  1.0000
  Si  Si8       1.0  0.8509002950000001  0.860194625  0.5217939898867476  1.0000
  Rh  Rh5       1.0  0.684589145  0.363254075  0.5244590474701682  1.0000
  Rh  Rh6       1.0  0.353279335  0.8498253150000001  0.5143057178930578  1.0000
  Rh  Rh7       1.0  0.8469541650000001  0.6322002250000001  0.5005341728809035  1.0000
  Rh  Rh8       1.0  0.149099705  0.13980537500000004  0.49167574190131397  1.0000
  C   C1        1.0  0.688947355  0.3734250050000001  0.5429614218479775  1.0000
  O   O1        1.0  0.6948548050000001  0.3802616350000001  0.5542570328741152  1.0000
