data_image0
_chemical_formula_structural       COZn12Cu6Au6
_chemical_formula_sum              "C1 O1 Zn12 Cu6 Au6"
_cell_length_a       4.55265204
_cell_length_b       11.03794176649362
_cell_length_c       99.44000535
_cell_angle_alpha    99.56334231640759
_cell_angle_beta     90.0
_cell_angle_gamma    90.0

_space_group_name_H-M_alt    "P 1"
_space_group_IT_number       1

loop_
  _space_group_symop_operation_xyz
  'x, y, z'

loop_
  _atom_site_type_symbol
  _atom_site_label
  _atom_site_symmetry_multiplicity
  _atom_site_fract_x
  _atom_site_fract_y
  _atom_site_fract_z
  _atom_site_occupancy
  C   C1        1.0  0.749999595  0.12575232000000006  0.5325612466432487  1.0000
  O   O1        1.0  0.749999305  0.13708146000000002  0.5443799101020448  1.0000
  Zn  Zn1       1.0  0.7500001749999999  0.36058956999999997  0.512732918571729  1.0000
  Zn  Zn2       1.0  0.749999475  0.02189073000000005  0.4646984142129535  1.0000
  Zn  Zn3       1.0  0.749999505  0.6911327700000001  0.4887438629526659  1.0000
  Zn  Zn4       1.0  0.749999475  0.5216363500000001  0.46466075860073497  1.0000
  Zn  Zn5       1.0  0.749999725  0.18919338000000005  0.4895094362766672  1.0000
  Zn  Zn6       1.0  0.750000375  0.8510787599999999  0.5131680527223248  1.0000
  Zn  Zn7       1.0  0.249999475  0.30934432000000006  0.48042992772982007  1.0000
  Zn  Zn8       1.0  0.249999895  0.9781092699999998  0.5075245662401286  1.0000
  Zn  Zn9       1.0  0.249999475  0.6426776500000001  0.45575842890197565  1.0000
  Zn  Zn10      1.0  0.249999475  0.14242328  0.45572077625033675  1.0000
  Zn  Zn11      1.0  0.249999475  0.80908995  0.48039227211760155  1.0000
  Zn  Zn12      1.0  0.250000265  0.48396959000000006  0.5075668670017749  1.0000
  Cu  Cu1       1.0  0.249999475  0.39416518000000006  0.4556200898979553  1.0000
  Cu  Cu2       1.0  0.249999475  0.06083185000000004  0.4802915887257998  1.0000
  Cu  Cu3       1.0  0.250000525  0.7315225599999999  0.5065063548146214  1.0000
  Cu  Cu4       1.0  0.749999355  0.44080621  0.4885844683063704  1.0000
  Cu  Cu5       1.0  0.750000155  0.10491290000000005  0.5136227030137921  1.0000
  Cu  Cu6       1.0  0.749999475  0.7701488299999998  0.46479909760475535  1.0000
  Au  Au1       1.0  0.749999475  0.27284852000000004  0.46459928216487384  1.0000
  Au  Au2       1.0  0.749999455  0.9444406899999999  0.48918946571280686  1.0000
  Au  Au3       1.0  0.750000525  0.60803054  0.5128665680176273  1.0000
  Au  Au4       1.0  0.249999475  0.55813215  0.48049140416568115  1.0000
  Au  Au5       1.0  0.250000035  0.22648762000000003  0.5060182499734198  1.0000
  Au  Au6       1.0  0.249999475  0.89146549  0.4558199082984163  1.0000
