data_image0
_chemical_formula_structural       COCu9Pd3Cu9Pd3Cu9Pd3Cu9Pd3
_chemical_formula_sum              "C1 O1 Cu36 Pd12"
_cell_length_a       8.415441744790689
_cell_length_b       7.52699992
_cell_length_c       101.93435611
_cell_angle_alpha    90.0
_cell_angle_beta     108.43494880139193
_cell_angle_gamma    90.0

_space_group_name_H-M_alt    "P 1"
_space_group_IT_number       1

loop_
  _space_group_symop_operation_xyz
  'x, y, z'

loop_
  _atom_site_type_symbol
  _atom_site_label
  _atom_site_symmetry_multiplicity
  _atom_site_fract_x
  _atom_site_fract_y
  _atom_site_fract_z
  _atom_site_occupancy
  C   C1        1.0  0.777323535  0.6157759249999999  0.5476932212347462  1.0000
  O   O1        1.0  0.811095255  0.608237715  0.5598274039610677  1.0000
  Cu  Cu1       1.0  0.7472850649999999  0.371940845  0.5183215264105723  1.0000
  Cu  Cu2       1.0  0.39870290499999994  0.368073915  0.5343509200534685  1.0000
  Cu  Cu3       1.0  0.08257082499999999  0.37336196499999996  0.5010888420120986  1.0000
  Cu  Cu4       1.0  0.9121749349999999  0.12254487499999998  0.5341286579119258  1.0000
  Cu  Cu5       1.0  0.582570825  0.12336196499999998  0.5010888420120986  1.0000
  Cu  Cu6       1.0  0.247149235  0.12301094499999998  0.5188596222219133  1.0000
  Cu  Cu7       1.0  0.08185548499999999  0.37338729499999995  0.5269146809284652  1.0000
  Cu  Cu8       1.0  0.7492374849999999  0.37336196499999996  0.4923865207112412  1.0000
  Cu  Cu9       1.0  0.418626825  0.37705612499999996  0.5099998822069883  1.0000
  Pd  Pd1       1.0  0.9170800450000001  0.123129435  0.5095238823264612  1.0000
  Pd  Pd2       1.0  0.581519725  0.12293428499999998  0.5272193241101514  1.0000
  Pd  Pd3       1.0  0.24923748499999995  0.12336196499999998  0.4923865207112412  1.0000
  Cu  Cu10      1.0  0.7492374849999999  0.37336196499999996  0.4662795599415045  1.0000
  Cu  Cu11      1.0  0.415904155  0.37336196499999996  0.48368419941038393  1.0000
  Cu  Cu12      1.0  0.08257082499999999  0.37336196499999996  0.4488749173397897  1.0000
  Cu  Cu13      1.0  0.9159041549999999  0.12336196499999998  0.4836841994103838  1.0000
  Cu  Cu14      1.0  0.582570825  0.12336196499999998  0.4488749173397897  1.0000
  Cu  Cu15      1.0  0.24923748499999995  0.12336196499999998  0.4662795599415045  1.0000
  Cu  Cu16      1.0  0.08257082499999999  0.37336196499999996  0.47498187810952647  1.0000
  Cu  Cu17      1.0  0.7492374849999999  0.37336196499999996  0.4401725960389324  1.0000
  Cu  Cu18      1.0  0.415904155  0.37336196499999996  0.45757723864064714  1.0000
  Pd  Pd4       1.0  0.9159041549999999  0.12336196499999998  0.4575772386406471  1.0000
  Pd  Pd5       1.0  0.582570825  0.12336196499999998  0.47498187810952647  1.0000
  Pd  Pd6       1.0  0.24923748499999995  0.12336196499999998  0.4401725960389323  1.0000
  Cu  Cu19      1.0  0.747335835  0.8740084549999999  0.5183306335631315  1.0000
  Cu  Cu20      1.0  0.39917912499999997  0.877455125  0.5343252683970685  1.0000
  Cu  Cu21      1.0  0.08257082499999999  0.8733619649999999  0.5010888420120986  1.0000
  Cu  Cu22      1.0  0.913283875  0.6231229349999999  0.5346322768694951  1.0000
  Cu  Cu23      1.0  0.582570825  0.623361965  0.5010888420120986  1.0000
  Cu  Cu24      1.0  0.25224196499999996  0.622644925  0.519227169605951  1.0000
  Cu  Cu25      1.0  0.08233864499999997  0.872368665  0.5269075975875858  1.0000
  Cu  Cu26      1.0  0.7492374849999999  0.8733619649999999  0.4923865207112412  1.0000
  Cu  Cu27      1.0  0.418817345  0.8690517649999999  0.5100031090274684  1.0000
  Pd  Pd7       1.0  0.918144515  0.623171245  0.5097216049681772  1.0000
  Pd  Pd8       1.0  0.590687285  0.622273345  0.5297443361986008  1.0000
  Pd  Pd9       1.0  0.24923748499999995  0.623361965  0.4923865207112412  1.0000
  Cu  Cu28      1.0  0.7492374849999999  0.8733619649999999  0.4662795599415045  1.0000
  Cu  Cu29      1.0  0.415904155  0.8733619649999999  0.48368419941038393  1.0000
  Cu  Cu30      1.0  0.08257082499999999  0.8733619649999999  0.4488749173397897  1.0000
  Cu  Cu31      1.0  0.9159041549999999  0.623361965  0.4836841994103838  1.0000
  Cu  Cu32      1.0  0.582570825  0.623361965  0.4488749173397897  1.0000
  Cu  Cu33      1.0  0.24923748499999995  0.623361965  0.4662795599415045  1.0000
  Cu  Cu34      1.0  0.08257082499999999  0.8733619649999999  0.47498187810952647  1.0000
  Cu  Cu35      1.0  0.7492374849999999  0.8733619649999999  0.4401725960389324  1.0000
  Cu  Cu36      1.0  0.415904155  0.8733619649999999  0.45757723864064714  1.0000
  Pd  Pd10      1.0  0.9159041549999999  0.623361965  0.4575772386406471  1.0000
  Pd  Pd11      1.0  0.582570825  0.623361965  0.47498187810952647  1.0000
  Pd  Pd12      1.0  0.24923748499999995  0.623361965  0.4401725960389323  1.0000
