data_image0
_chemical_formula_structural       COSb4Ru4Sb4Ru4
_chemical_formula_sum              "C1 O1 Sb8 Ru8"
_cell_length_a       5.98412161
_cell_length_b       6.68831379
_cell_length_c       100.5213688
_cell_angle_alpha    90.0
_cell_angle_beta     90.0
_cell_angle_gamma    90.0

_space_group_name_H-M_alt    "P 1"
_space_group_IT_number       1

loop_
  _space_group_symop_operation_xyz
  'x, y, z'

loop_
  _atom_site_type_symbol
  _atom_site_label
  _atom_site_symmetry_multiplicity
  _atom_site_fract_x
  _atom_site_fract_y
  _atom_site_fract_z
  _atom_site_occupancy
  C   C1        1.0  0.043895874999999994  0.26092163  0.5306738828411128  1.0000
  O   O1        1.0  0.06511938499999999  0.28734455  0.5422067921861503  1.0000
  Sb  Sb1       1.0  0.803086305  0.5850625500000001  0.4767701235957605  1.0000
  Sb  Sb2       1.0  0.20365880499999997  0.42504992999999996  0.45779320781384963  1.0000
  Sb  Sb3       1.0  0.303086305  0.92504993  0.4767701235957605  1.0000
  Sb  Sb4       1.0  0.703658805  0.08506255  0.45779320781384963  1.0000
  Ru  Ru1       1.0  0.996326225  0.21106017  0.4767701235957605  1.0000
  Ru  Ru2       1.0  0.010418884999999989  0.79905231  0.45779320781384963  1.0000
  Ru  Ru3       1.0  0.49632622500000007  0.29905231  0.4767701235957605  1.0000
  Ru  Ru4       1.0  0.510418885  0.7110601699999999  0.45779320781384963  1.0000
  Sb  Sb5       1.0  0.796502065  0.5762567799999999  0.5155279843089628  1.0000
  Sb  Sb6       1.0  0.198502695  0.43597923  0.49519247620869994  1.0000
  Sb  Sb7       1.0  0.324276835  0.93071163  0.5152259811167497  1.0000
  Sb  Sb8       1.0  0.701093765  0.06928837  0.4948995849723687  1.0000
  Ru  Ru5       1.0  0.003673774999999988  0.20458825000000005  0.5127240402496104  1.0000
  Ru  Ru6       1.0  0.017360964999999985  0.7956548999999999  0.4972474636464241  1.0000
  Ru  Ru7       1.0  0.49800009500000003  0.29559919  0.5112751724656539  1.0000
  Ru  Ru8       1.0  0.5171643550000001  0.7046158899999999  0.4956454354524217  1.0000
