data_image0
_chemical_formula_structural       COMn8Al48
_chemical_formula_sum              "C1 O1 Mn8 Al48"
_cell_length_a       6.49733481
_cell_length_b       11.669102310368924
_cell_length_c       105.00730691999999
_cell_angle_alpha    81.05367781407239
_cell_angle_beta     90.0
_cell_angle_gamma    90.0

_space_group_name_H-M_alt    "P 1"
_space_group_IT_number       1

loop_
  _space_group_symop_operation_xyz
  'x, y, z'

loop_
  _atom_site_type_symbol
  _atom_site_label
  _atom_site_symmetry_multiplicity
  _atom_site_fract_x
  _atom_site_fract_y
  _atom_site_fract_z
  _atom_site_occupancy
  C   C1        1.0  0.5125457099999999  0.34430544500000004  0.5529614146008753  1.0000
  O   O1        1.0  0.51650906  0.3116263150000001  0.5642850369538757  1.0000
  Mn  Mn1       1.0  0.47215994999999994  0.12215905500000004  0.44585295708516315  1.0000
  Mn  Mn2       1.0  0.47215994999999994  0.622159055  0.5014162454044171  1.0000
  Mn  Mn3       1.0  0.55844271  0.372159055  0.47363459957789156  1.0000
  Mn  Mn4       1.0  0.54385097  0.880178275  0.5278297775240696  1.0000
  Mn  Mn5       1.0  0.9854519700000001  0.381030345  0.5278381486889204  1.0000
  Mn  Mn6       1.0  0.9721599500000001  0.8721590550000001  0.4736345995778915  1.0000
  Mn  Mn7       1.0  0.058442710000000016  0.622159055  0.44585295708516315  1.0000
  Mn  Mn8       1.0  0.058442710000000016  0.12215905500000004  0.5014162454044171  1.0000
  Al  Al1       1.0  0.80080669  0.533478655  0.5117028301199046  1.0000
  Al  Al2       1.0  0.80156095  0.030929795000000038  0.45599095112420185  1.0000
  Al  Al3       1.0  0.22904171  0.46338831500000005  0.4634966055388528  1.0000
  Al  Al4       1.0  0.21602803000000004  0.969070205  0.5185549269251004  1.0000
  Al  Al5       1.0  0.51530133  0.910490855  0.44159327434869905  1.0000
  Al  Al6       1.0  0.51530133  0.41049085500000004  0.497156562667953  1.0000
  Al  Al7       1.0  0.51530133  0.33382725500000004  0.4501126398216272  1.0000
  Al  Al8       1.0  0.51530133  0.833827255  0.505675924807084  1.0000
  Al  Al9       1.0  0.51530133  0.583827255  0.4778942823143556  1.0000
  Al  Al10      1.0  0.48676712  0.06977122500000005  0.5342605356998357  1.0000
  Al  Al11      1.0  0.51638092  0.6614592850000001  0.5265343139264866  1.0000
  Al  Al12      1.0  0.51530133  0.16049085500000004  0.4693749201752247  1.0000
  Al  Al13      1.0  0.8750731100000001  0.446947635  0.4819455993899925  1.0000
  Al  Al14      1.0  0.8681245  0.9508805850000001  0.5375798609185287  1.0000
  Al  Al15      1.0  0.15552955000000002  0.19694763500000004  0.4541639568972641  1.0000
  Al  Al16      1.0  0.1556639  0.699666535  0.5097678875385793  1.0000
  Al  Al17      1.0  0.8750731100000001  0.2973704750000001  0.46532360309958776  1.0000
  Al  Al18      1.0  0.8671218500000001  0.7886949950000002  0.5227351952776895  1.0000
  Al  Al19      1.0  0.15552955000000002  0.04737047500000004  0.43754195727306217  1.0000
  Al  Al20      1.0  0.15552955000000002  0.547370475  0.49310524559231617  1.0000
  Al  Al21      1.0  0.22173007  0.789308555  0.5378444210655066  1.0000
  Al  Al22      1.0  0.22904171  0.2809297950000001  0.4837725969507274  1.0000
  Al  Al23      1.0  0.80156095  0.21338831500000005  0.43571496304612434  1.0000
  Al  Al24      1.0  0.80156095  0.713388315  0.49127824803158116  1.0000
  Al  Al25      1.0  0.3031505  0.2857886150000001  0.5378813995444093  1.0000
  Al  Al26      1.0  0.30156095  0.780929795  0.4837725969507274  1.0000
  Al  Al27      1.0  0.7290417100000001  0.713388315  0.43571496304612434  1.0000
  Al  Al28      1.0  0.7290417100000001  0.21338831500000005  0.4912782480315811  1.0000
  Al  Al29      1.0  0.015301330000000012  0.660490855  0.46937492017522464  1.0000
  Al  Al30      1.0  0.014548030000000012  0.16102426500000006  0.5266285970460184  1.0000
  Al  Al31      1.0  0.03885895000000001  0.573071585  0.5341037838877617  1.0000
  Al  Al32      1.0  0.015301330000000012  0.08382725500000004  0.4778942823143556  1.0000
  Al  Al33      1.0  0.015301330000000012  0.833827255  0.4501126398216272  1.0000
  Al  Al34      1.0  0.015301330000000012  0.33382725500000004  0.505675924807084  1.0000
  Al  Al35      1.0  0.015301330000000012  0.41049085500000004  0.441593274348699  1.0000
  Al  Al36      1.0  0.015301330000000012  0.910490855  0.497156562667953  1.0000
  Al  Al37      1.0  0.37507310999999993  0.696947635  0.4541639568972641  1.0000
  Al  Al38      1.0  0.37488958999999994  0.19914351500000005  0.5097988185093021  1.0000
  Al  Al39      1.0  0.6650698600000001  0.453793785  0.5380752431844917  1.0000
  Al  Al40      1.0  0.65552955  0.946947635  0.4819455993899925  1.0000
  Al  Al41      1.0  0.37507310999999993  0.547370475  0.4375419572730622  1.0000
  Al  Al42      1.0  0.37507310999999993  0.04737047500000004  0.49310524559231617  1.0000
  Al  Al43      1.0  0.6614925400000001  0.29060201500000005  0.5229361999142274  1.0000
  Al  Al44      1.0  0.65552955  0.7973704750000001  0.46532360309958776  1.0000
  Al  Al45      1.0  0.7290417100000001  0.530929795  0.45599095112420185  1.0000
  Al  Al46      1.0  0.7303033800000001  0.03243628500000004  0.5117852015819248  1.0000
  Al  Al47      1.0  0.32013909000000007  0.469114825  0.5190175279628765  1.0000
  Al  Al48      1.0  0.30156095  0.963388315  0.4634966055388528  1.0000
