data_image0
_chemical_formula_structural       COMo2Pt2Mo2Pt2Mo2Pt2
_chemical_formula_sum              "C1 O1 Mo6 Pt6"
_cell_length_a       4.51201224
_cell_length_b       5.692236132734956
_cell_length_c       103.15982944000001
_cell_angle_alpha    119.04222522298787
_cell_angle_beta     90.0
_cell_angle_gamma    90.0

_space_group_name_H-M_alt    "P 1"
_space_group_IT_number       1

loop_
  _space_group_symop_operation_xyz
  'x, y, z'

loop_
  _atom_site_type_symbol
  _atom_site_label
  _atom_site_symmetry_multiplicity
  _atom_site_fract_x
  _atom_site_fract_y
  _atom_site_fract_z
  _atom_site_occupancy
  C   C1        1.0  0.81416766  0.9726751599999999  0.5366565757386209  1.0000
  O   O1        1.0  0.5739624299999999  0.02732484000000005  0.5435029378650906  1.0000
  Mo  Mo1       1.0  0.71183307  0.25440131000000005  0.4564970621349093  1.0000
  Mo  Mo2       1.0  0.21183307  0.92479233  0.4744546759538246  1.0000
  Pt  Pt1       1.0  0.71183307  0.75560266  0.45652924162321656  1.0000
  Pt  Pt2       1.0  0.21183307  0.42359098  0.4744224932511044  1.0000
  Mo  Mo3       1.0  0.71183307  0.25440131000000005  0.4832838358671638  1.0000
  Mo  Mo4       1.0  0.21692166  0.9117249199999999  0.5011614075885525  1.0000
  Pt  Pt3       1.0  0.71183307  0.75560266  0.4833160153554709  1.0000
  Pt  Pt4       1.0  0.21509650000000005  0.41415181  0.5012771039548137  1.0000
  Mo  Mo5       1.0  0.7045004300000001  0.23766498000000005  0.5096749282196694  1.0000
  Mo  Mo6       1.0  0.20706727000000003  0.91202217  0.5277803632481325  1.0000
  Pt  Pt5       1.0  0.72092313  0.73861025  0.5095285309950701  1.0000
  Pt  Pt6       1.0  0.18583234  0.36817605000000003  0.5269057311204802  1.0000
