data_image0
_chemical_formula_structural       COPd6Rh6Zn12
_chemical_formula_sum              "C1 O1 Pd6 Rh6 Zn12"
_cell_length_a       6.13867412
_cell_length_b       7.518309645331625
_cell_length_c       103.05777183000001
_cell_angle_alpha    94.34775312600226
_cell_angle_beta     90.0
_cell_angle_gamma    114.09484255307402

_space_group_name_H-M_alt    "P 1"
_space_group_IT_number       1

loop_
  _space_group_symop_operation_xyz
  'x, y, z'

loop_
  _atom_site_type_symbol
  _atom_site_label
  _atom_site_symmetry_multiplicity
  _atom_site_fract_x
  _atom_site_fract_y
  _atom_site_fract_z
  _atom_site_occupancy
  C   C1        1.0  0.51970564  0.17491022  0.5393649606313394  1.0000
  O   O1        1.0  0.45493901000000003  0.16342417000000004  0.5500595350023173  1.0000
  Pd  Pd1       1.0  0.69618851  0.35305475000000003  0.4966608987921417  1.0000
  Pd  Pd2       1.0  0.28320079000000004  0.52344621  0.4699885477641448  1.0000
  Pd  Pd3       1.0  0.10634176  0.19867268  0.5224437436531832  1.0000
  Pd  Pd4       1.0  0.9915341200000001  0.94011288  0.48335393413665734  1.0000
  Pd  Pd5       1.0  0.57486746  0.10677954000000002  0.456623158183939  1.0000
  Pd  Pd6       1.0  0.40312787  0.77525211  0.5102258646305177  1.0000
  Rh  Rh1       1.0  0.19635096  0.35875545999999997  0.49702700886038975  1.0000
  Rh  Rh2       1.0  0.7832007900000001  0.52344621  0.4699885477641448  1.0000
  Rh  Rh3       1.0  0.6072964500000001  0.20688691000000003  0.5221026760460805  1.0000
  Rh  Rh4       1.0  0.49153412  0.94011288  0.48335393413665734  1.0000
  Rh  Rh5       1.0  0.07486746000000001  0.10677954000000002  0.456623158183939  1.0000
  Rh  Rh6       1.0  0.89802937  0.7648978700000001  0.5093234282521013  1.0000
  Zn  Zn1       1.0  0.5110692700000001  0.49537715  0.5174250509596232  1.0000
  Zn  Zn2       1.0  0.09570079000000002  0.6484462100000001  0.4900366305306069  1.0000
  Zn  Zn3       1.0  0.67903412  0.8151128799999999  0.46330585137019525  1.0000
  Zn  Zn4       1.0  0.47070079000000004  0.39844620999999997  0.4499404649976828  1.0000
  Zn  Zn5       1.0  0.29027379  0.059887120000000016  0.5033856095521834  1.0000
  Zn  Zn6       1.0  0.8873674600000001  0.23177953999999998  0.47667124095040103  1.0000
  Zn  Zn7       1.0  0.97070079  0.39844620999999997  0.4499404649976828  1.0000
  Zn  Zn8       1.0  0.79843427  0.060224599999999996  0.5034136768680564  1.0000
  Zn  Zn9       1.0  0.38736746  0.23177953999999998  0.47667124095040103  1.0000
  Zn  Zn10      1.0  0.008465879999999992  0.49500644  0.517582741159431  1.0000
  Zn  Zn11      1.0  0.5957007900000001  0.6484462100000001  0.4900366305306069  1.0000
  Zn  Zn12      1.0  0.17903411999999996  0.8151128799999999  0.46330585137019525  1.0000
