data_image0
_chemical_formula_structural       COSn12Pd12
_chemical_formula_sum              "C1 O1 Sn12 Pd12"
_cell_length_a       6.18784673
_cell_length_b       10.387484870841064
_cell_length_c       100.70631412
_cell_angle_alpha    82.82479823703324
_cell_angle_beta     90.0
_cell_angle_gamma    90.0

_space_group_name_H-M_alt    "P 1"
_space_group_IT_number       1

loop_
  _space_group_symop_operation_xyz
  'x, y, z'

loop_
  _atom_site_type_symbol
  _atom_site_label
  _atom_site_symmetry_multiplicity
  _atom_site_fract_x
  _atom_site_fract_y
  _atom_site_fract_z
  _atom_site_occupancy
  C   C1        1.0  0.43605294999999994  0.9604181750000002  0.5345678090166152  1.0000
  O   O1        1.0  0.41407427  0.9285479950000001  0.5461350609398531  1.0000
  Sn  Sn1       1.0  0.31690377  0.6096272350000002  0.5192707849032167  1.0000
  Sn  Sn2       1.0  0.30920555  0.9608037150000001  0.4938628390701379  1.0000
  Sn  Sn3       1.0  0.30931415  0.29343937500000006  0.4683168667945535  1.0000
  Sn  Sn4       1.0  0.68318359  0.7196947650000001  0.4977341014749762  1.0000
  Sn  Sn5       1.0  0.69068585  0.06364650500000003  0.471397538446587  1.0000
  Sn  Sn6       1.0  0.67140195  0.3716573950000001  0.5207829501384781  1.0000
  Sn  Sn7       1.0  0.8093141499999998  0.7303131750000001  0.45869297705466977  1.0000
  Sn  Sn8       1.0  0.8439035599999999  0.03919628500000004  0.5094738346167275  1.0000
  Sn  Sn9       1.0  0.8093141499999998  0.39697984500000005  0.4841021028875994  1.0000
  Sn  Sn10      1.0  0.19068585  0.6267727050000002  0.4810214281864707  1.0000
  Sn  Sn11      1.0  0.19068585  0.9601060450000001  0.45561230235354105  1.0000
  Sn  Sn12      1.0  0.18211265000000001  0.27853724500000004  0.5080224439474292  1.0000
  Pd  Pd1       1.0  0.47375422  0.48260738500000006  0.49735626979145736  1.0000
  Pd  Pd2       1.0  0.48974025  0.8251080250000002  0.4731449017399814  1.0000
  Pd  Pd3       1.0  0.49752301  0.12611633500000005  0.5215483919538926  1.0000
  Pd  Pd4       1.0  0.49066302  0.860948825  0.5176803280499421  1.0000
  Pd  Pd5       1.0  0.5149396799999999  0.19739505500000004  0.4921566599059059  1.0000
  Pd  Pd6       1.0  0.5102597499999999  0.531977855  0.46656950350115906  1.0000
  Pd  Pd7       1.0  0.9830073499999998  0.5180469450000001  0.5050116941470247  1.0000
  Pd  Pd8       1.0  0.9897402499999999  0.8653111950000002  0.47927406794217153  1.0000
  Pd  Pd9       1.0  0.9897402499999999  0.19864452500000004  0.45386493906014663  1.0000
  Pd  Pd10      1.0  0.029618910000000023  0.802219515  0.5100058316037617  1.0000
  Pd  Pd11      1.0  0.010259750000000024  0.15844135500000003  0.48584946618099384  1.0000
  Pd  Pd12      1.0  0.010259750000000024  0.4917746950000001  0.460440337298969  1.0000
