data_image0
_chemical_formula_structural       CORe18Pt6
_chemical_formula_sum              "C1 O1 Re18 Pt6"
_cell_length_a       9.6982991
_cell_length_b       7.146597333866325
_cell_length_c       98.58638933
_cell_angle_alpha    85.45707747551863
_cell_angle_beta     90.0
_cell_angle_gamma    47.27146127307058

_space_group_name_H-M_alt    "P 1"
_space_group_IT_number       1

loop_
  _space_group_symop_operation_xyz
  'x, y, z'

loop_
  _atom_site_type_symbol
  _atom_site_label
  _atom_site_symmetry_multiplicity
  _atom_site_fract_x
  _atom_site_fract_y
  _atom_site_fract_z
  _atom_site_occupancy
  C   C1        1.0  0.572983985  0.19174096000000002  0.5331363762068881  1.0000
  O   O1        1.0  0.6624103150000001  0.12333435000000002  0.5435311641312152  1.0000
  Re  Re1       1.0  0.732071505  0.68048371  0.49250119273246085  1.0000
  Re  Re2       1.0  0.06962578500000005  0.008442460000000014  0.4685506217907505  1.0000
  Re  Re3       1.0  0.40693195500000007  0.33349276  0.5156243895088245  1.0000
  Re  Re4       1.0  0.930374215  0.31356104  0.5157869832711263  1.0000
  Re  Re5       1.0  0.23639921500000008  0.6769099000000001  0.4934713214026694  1.0000
  Re  Re6       1.0  0.577017025  0.99365998  0.4696222142575576  1.0000
  Re  Re7       1.0  0.09459592500000003  0.49237322000000006  0.5056518019761219  1.0000
  Re  Re8       1.0  0.41774160499999985  0.8343845500000001  0.48116820394612  1.0000
  Re  Re9       1.0  0.7510749349999999  0.16771789  0.4570046321021884  1.0000
  Re  Re10      1.0  0.5844082750000001  0.66032664  0.4575404283355919  1.0000
  Re  Re11      1.0  0.9162404150000001  0.006340020000000014  0.5056115696322203  1.0000
  Re  Re12      1.0  0.2510749350000001  0.32699331000000004  0.4817040001795234  1.0000
  Re  Re13      1.0  0.4015042750000001  0.012298000000000016  0.5054382965385608  1.0000
  Re  Re14      1.0  0.743683695  0.3417758  0.48063240771271637  1.0000
  Re  Re15      1.0  0.07701702500000011  0.6751091300000001  0.45646883586878484  1.0000
  Re  Re16      1.0  0.233485545  0.8542207700000002  0.515510866157755  1.0000
  Re  Re17      1.0  0.569470235  0.17545254000000002  0.4928865069513448  1.0000
  Re  Re18      1.0  0.9029591149999999  0.50105122  0.4690864180241541  1.0000
  Pt  Pt1       1.0  0.7519707550000001  0.83048362  0.5160426551047245  1.0000
  Pt  Pt2       1.0  0.07687070500000004  0.17758851000000003  0.49240770871318973  1.0000
  Pt  Pt3       1.0  0.4103503650000001  0.50105122  0.4690864180241541  1.0000
  Pt  Pt4       1.0  0.5790580550000001  0.5039127800000001  0.5051885225491064  1.0000
  Pt  Pt5       1.0  0.9103503649999999  0.8343845500000001  0.48116820394611987  1.0000
  Pt  Pt6       1.0  0.2436836950000001  0.16771789  0.4570046321021884  1.0000
