data_image0
_chemical_formula_structural       COFe6Rh12Sn6
_chemical_formula_sum              "C1 O1 Fe6 Rh12 Sn6"
_cell_length_a       4.571696585133519
_cell_length_b       7.403572852428454
_cell_length_c       102.14266818
_cell_angle_alpha    88.10039009147255
_cell_angle_beta     86.46209488683418
_cell_angle_gamma    82.30181772408287

_space_group_name_H-M_alt    "P 1"
_space_group_IT_number       1

loop_
  _space_group_symop_operation_xyz
  'x, y, z'

loop_
  _atom_site_type_symbol
  _atom_site_label
  _atom_site_symmetry_multiplicity
  _atom_site_fract_x
  _atom_site_fract_y
  _atom_site_fract_z
  _atom_site_occupancy
  C   C1        1.0  0.25352916000000003  0.04639960000000003  0.5487660077233077  1.0000
  O   O1        1.0  0.18350697000000002  0.020091490000000024  0.559933681960834  1.0000
  Fe  Fe1       1.0  0.004761390000000029  0.97990851  0.4968842691962687  1.0000
  Fe  Fe2       1.0  0.35698175000000004  0.08231895000000003  0.5321685766903029  1.0000
  Fe  Fe3       1.0  0.64373264  0.53298232  0.514428682078331  1.0000
  Fe  Fe4       1.0  0.004761390000000017  0.31324185000000004  0.4444369301507647  1.0000
  Fe  Fe5       1.0  0.33809472  0.42435295999999995  0.47940182389671415  1.0000
  Fe  Fe6       1.0  0.67142806  0.8687974  0.4619193754503192  1.0000
  Rh  Rh1       1.0  0.12629893000000003  0.45382839  0.5264038009648558  1.0000
  Rh  Rh2       1.0  0.5047613900000001  0.89657518  0.509996105531065  1.0000
  Rh  Rh3       1.0  0.8380947200000001  0.34101962  0.49251365708467  1.0000
  Rh  Rh4       1.0  0.5046740000000001  0.72146107  0.5343427633853065  1.0000
  Rh  Rh5       1.0  0.83993434  0.17590650000000002  0.517889545757297  1.0000
  Rh  Rh6       1.0  0.17142806000000002  0.6187974  0.5012548813078676  1.0000
  Rh  Rh7       1.0  0.17142806000000002  0.7854640700000001  0.4750312117851154  1.0000
  Rh  Rh8       1.0  0.50476139  0.22990851000000004  0.45754876333872047  1.0000
  Rh  Rh9       1.0  0.83809472  0.6743529600000001  0.44006631803916596  1.0000
  Rh  Rh10      1.0  0.5047613900000001  0.06324185000000003  0.48377243600831293  1.0000
  Rh  Rh11      1.0  0.83809472  0.50768629  0.466289987561918  1.0000
  Rh  Rh12      1.0  0.17142806000000005  0.95213074  0.4488075422623634  1.0000
  Sn  Sn1       1.0  0.99523861  0.8259465500000001  0.524602952276207  1.0000
  Sn  Sn2       1.0  0.33809471999999996  0.25768629000000004  0.5056254934194662  1.0000
  Sn  Sn3       1.0  0.6246035500000001  0.36173053000000005  0.539581761858419  1.0000
  Sn  Sn4       1.0  0.004761390000000029  0.14657518000000003  0.4706605996735167  1.0000
  Sn  Sn5       1.0  0.33809472  0.5910196200000001  0.45317815122712174  1.0000
  Sn  Sn6       1.0  0.67142806  0.70213074  0.4881430481199117  1.0000
