data_image0
_chemical_formula_structural       COAl4Cu4Se8
_chemical_formula_sum              "C1 O1 Al4 Cu4 Se8"
_cell_length_a       5.70772972
_cell_length_b       5.70772972
_cell_length_c       103.81377746999999
_cell_angle_alpha    90.0
_cell_angle_beta     90.0
_cell_angle_gamma    90.0

_space_group_name_H-M_alt    "P 1"
_space_group_IT_number       1

loop_
  _space_group_symop_operation_xyz
  'x, y, z'

loop_
  _atom_site_type_symbol
  _atom_site_label
  _atom_site_symmetry_multiplicity
  _atom_site_fract_x
  _atom_site_fract_y
  _atom_site_fract_z
  _atom_site_occupancy
  C   C1        1.0  0.44979815  0.53671682  0.54906732964887  1.0000
  O   O1        1.0  0.34321648000000005  0.55249452  0.5585298528691433  1.0000
  Al  Al1       1.0  0.06694857  4.180000000011038e-06  0.48218460995802276  1.0000
  Al  Al2       1.0  0.56694857  4.180000000011038e-06  0.455041632568474  1.0000
  Al  Al3       1.0  0.6456439700000001  0.37730586  0.5344559675162336  1.0000
  Al  Al4       1.0  0.06692637999999995  0.50001412  0.5091566028894825  1.0000
  Cu  Cu1       1.0  0.56694857  0.50000418  0.48218460995802276  1.0000
  Cu  Cu2       1.0  0.06694857  0.50000418  0.455041632568474  1.0000
  Cu  Cu3       1.0  0.93307362  0.08624442000000002  0.5327848863611124  1.0000
  Cu  Cu4       1.0  0.56695136  0.9999958200000001  0.5102015802924045  1.0000
  Se  Se1       1.0  0.81694857  0.7518412100000001  0.4686131212632484  1.0000
  Se  Se2       1.0  0.8187856000000001  0.25000418  0.49575609539564003  1.0000
  Se  Se3       1.0  0.31511154  0.75000418  0.49575609539564003  1.0000
  Se  Se4       1.0  0.31694857  0.24816715000000003  0.4686131212632484  1.0000
  Se  Se5       1.0  0.29215658  0.23709616000000003  0.5229411324538678  1.0000
  Se  Se6       1.0  0.31878560000000006  0.75000418  0.44147014713085675  1.0000
  Se  Se7       1.0  0.81511154  0.25000418  0.44147014713085675  1.0000
  Se  Se8       1.0  0.8027262700000001  0.7245198400000001  0.5230018491179926  1.0000
