data_image0
_chemical_formula_structural       COAs8Ru4As8Ru4As8Ru4
_chemical_formula_sum              "C1 O1 As24 Ru12"
_cell_length_a       11.432957850407837
_cell_length_b       6.27310913
_cell_length_c       100.2642809
_cell_angle_alpha    90.0
_cell_angle_beta     74.6502273126183
_cell_angle_gamma    90.0

_space_group_name_H-M_alt    "P 1"
_space_group_IT_number       1

loop_
  _space_group_symop_operation_xyz
  'x, y, z'

loop_
  _atom_site_type_symbol
  _atom_site_label
  _atom_site_symmetry_multiplicity
  _atom_site_fract_x
  _atom_site_fract_y
  _atom_site_fract_z
  _atom_site_occupancy
  C   C1        1.0  0.34004182  0.48649055999999996  0.5438660829372868  1.0000
  O   O1        1.0  0.32071374999999996  0.47707252  0.555966059528221  1.0000
  As  As1       1.0  0.45716057000000004  0.14066056000000002  0.5216368552193904  1.0000
  As  As2       1.0  0.9626163  0.13905157999999998  0.5078839417122218  1.0000
  As  As3       1.0  0.28251067999999996  0.8685332799999999  0.527559170587881  1.0000
  As  As4       1.0  0.78812399  0.87929514  0.5118450186079222  1.0000
  As  As5       1.0  0.53573061  0.63993632  0.5053278420281576  1.0000
  As  As6       1.0  0.039111579999999986  0.6468114299999999  0.5184077526671325  1.0000
  As  As7       1.0  0.20836745  0.37104755  0.5157954977225099  1.0000
  As  As8       1.0  0.72179245  0.34552808  0.5293006628166429  1.0000
  Ru  Ru1       1.0  0.37167443  0.50363846  0.5243618855265685  1.0000
  Ru  Ru2       1.0  0.8707966300000001  0.50550792  0.5095902086189715  1.0000
  Ru  Ru3       1.0  0.62944323  0.026835549999999993  0.5298932994296028  1.0000
  Ru  Ru4       1.0  0.13190464  0.9931863500000001  0.5159335254453012  1.0000
  As  As9       1.0  0.4583045  0.14149818  0.4916976708084191  1.0000
  As  As10      1.0  0.9583044999999999  0.14149818  0.47660541630445247  1.0000
  As  As11      1.0  0.28738369999999996  0.8721291199999999  0.4968568312356622  1.0000
  As  As12      1.0  0.7873837  0.8721291199999999  0.48176457673169565  1.0000
  As  As13      1.0  0.5373837  0.64149818  0.4742184494797123  1.0000
  As  As14      1.0  0.037383699999999985  0.64149818  0.48931070398367893  1.0000
  As  As15      1.0  0.20830449999999998  0.37212912  0.4841515435564358  1.0000
  As  As16      1.0  0.7083045  0.37212912  0.4992437980604025  1.0000
  Ru  Ru5       1.0  0.3728441  0.50681365  0.4942772510220406  1.0000
  Ru  Ru6       1.0  0.8728440999999999  0.50681365  0.479184996518074  1.0000
  Ru  Ru7       1.0  0.6236215500000001  0.0075643699999999965  0.5014484564876365  1.0000
  Ru  Ru8       1.0  0.12284409999999998  0.006813649999999997  0.48673112377005734  1.0000
  As  As17      1.0  0.4583045  0.14149818  0.4615131618004858  1.0000
  As  As18      1.0  0.9583044999999999  0.14149818  0.4464209072965191  1.0000
  As  As19      1.0  0.28738369999999996  0.8721291199999999  0.466672322227729  1.0000
  As  As20      1.0  0.7873837  0.8721291199999999  0.45158006772376236  1.0000
  As  As21      1.0  0.5373837  0.64149818  0.444033940471779  1.0000
  As  As22      1.0  0.037383699999999985  0.64149818  0.45912619497574564  1.0000
  As  As23      1.0  0.20830449999999998  0.37212912  0.4539670345485025  1.0000
  As  As24      1.0  0.7083045  0.37212912  0.4690592890524692  1.0000
  Ru  Ru9       1.0  0.3728441  0.50681365  0.46409274201410733  1.0000
  Ru  Ru10      1.0  0.8728440999999999  0.50681365  0.44900048751014077  1.0000
  Ru  Ru11      1.0  0.6228441  0.006813649999999997  0.47163886926609067  1.0000
  Ru  Ru12      1.0  0.12284409999999998  0.006813649999999997  0.45654661476212405  1.0000
