data_image0
_chemical_formula_structural       COV9Si18
_chemical_formula_sum              "C1 O1 V9 Si18"
_cell_length_a       4.58275186812534
_cell_length_b       11.1771279260388
_cell_length_c       101.47655496
_cell_angle_alpha    90.70453493822976
_cell_angle_beta     106.92891940973836
_cell_angle_gamma    65.7944377915142

_space_group_name_H-M_alt    "P 1"
_space_group_IT_number       1

loop_
  _space_group_symop_operation_xyz
  'x, y, z'

loop_
  _atom_site_type_symbol
  _atom_site_label
  _atom_site_symmetry_multiplicity
  _atom_site_fract_x
  _atom_site_fract_y
  _atom_site_fract_z
  _atom_site_occupancy
  C   C1        1.0  0.933778875  0.11445809000000005  0.5362277405727223  1.0000
  O   O1        1.0  0.9436541350000001  0.07447256000000005  0.5472556102186372  1.0000
  V   V1        1.0  0.5618079550000001  0.8040392700000001  0.4830001771869941  1.0000
  V   V2        1.0  0.5618079550000001  0.13737260000000004  0.4571513873578678  1.0000
  V   V3        1.0  0.5547585550000003  0.47372137  0.5084918969888959  1.0000
  V   V4        1.0  0.563574005  0.74951616  0.5126381061143833  1.0000
  V   V5        1.0  0.561807955  0.08181705000000004  0.48730830934215763  1.0000
  V   V6        1.0  0.5618079550000002  0.41515038000000004  0.4614595195130314  1.0000
  V   V7        1.0  0.061807955000000143  0.52626149  0.47869204503183055  1.0000
  V   V8        1.0  0.06180795500000004  0.8595948200000001  0.4528432552027043  1.0000
  V   V9        1.0  0.05634586500000001  0.18977890000000006  0.5041217370412258  1.0000
  Si  Si1       1.0  0.7361242050000002  0.41387545000000003  0.487407174763499  1.0000
  Si  Si2       1.0  0.736124205  0.7472087800000001  0.46155838493437285  1.0000
  Si  Si3       1.0  0.720447445  0.08855736000000004  0.5147511362025183  1.0000
  Si  Si4       1.0  0.8937507650000001  0.8643808800000001  0.5056561409119391  1.0000
  Si  Si5       1.0  0.898966085  0.19420309000000005  0.47859317961048903  1.0000
  Si  Si6       1.0  0.898966085  0.5275364200000001  0.4527443897813629  1.0000
  Si  Si7       1.0  0.9033160850000003  0.57908704  0.5010068729581908  1.0000
  Si  Si8       1.0  0.8989660849999997  0.9126005200000001  0.4745816468212048  1.0000
  Si  Si9       1.0  0.9172241350000001  0.26179161000000006  0.5252593148741794  1.0000
  Si  Si10      1.0  0.3874917049999999  0.6386475300000001  0.469976915300162  1.0000
  Si  Si11      1.0  0.386903925  0.97118865  0.520718518786409  1.0000
  Si  Si12      1.0  0.38749170499999996  0.30531420000000004  0.4958257082311432  1.0000
  Si  Si13      1.0  0.20896969500000007  0.6540713100000001  0.5207758162501877  1.0000
  Si  Si14      1.0  0.2246498250000003  0.9694310000000002  0.4960234390738261  1.0000
  Si  Si15      1.0  0.22464982500000005  0.3027643400000001  0.47017464924469987  1.0000
  Si  Si16      1.0  0.22464982500000003  0.6954780200000001  0.4914187075527833  1.0000
  Si  Si17      1.0  0.22464982500000003  0.02881135000000004  0.4655699177236571  1.0000
  Si  Si18      1.0  0.22149146499999997  0.36725492000000004  0.5167781084282087  1.0000
