data_image0
_chemical_formula_structural       COAl54Ir12
_chemical_formula_sum              "C1 O1 Al54 Ir12"
_cell_length_a       16.21731947639215
_cell_length_b       6.49111758
_cell_length_c       101.35801591
_cell_angle_alpha    90.0
_cell_angle_beta     89.97171314537516
_cell_angle_gamma    90.0

_space_group_name_H-M_alt    "P 1"
_space_group_IT_number       1

loop_
  _space_group_symop_operation_xyz
  'x, y, z'

loop_
  _atom_site_type_symbol
  _atom_site_label
  _atom_site_symmetry_multiplicity
  _atom_site_fract_x
  _atom_site_fract_y
  _atom_site_fract_z
  _atom_site_occupancy
  C   C1        1.0  0.115694505  0.612362635  0.548675285226957  1.0000
  O   O1        1.0  0.116862135  0.551604515  0.5595548549133642  1.0000
  Al  Al1       1.0  0.677776265  0.507462785  0.5116862778616944  1.0000
  Al  Al2       1.0  0.011231175000000006  0.509924225  0.4429435331539993  1.0000
  Al  Al3       1.0  0.344564515  0.509924225  0.47731895218185116  1.0000
  Al  Al4       1.0  0.844564515  0.009924225000000031  0.47731895218185116  1.0000
  Al  Al5       1.0  0.177764145  0.01609412500000003  0.5115353505340018  1.0000
  Al  Al6       1.0  0.511231175  0.009924225000000031  0.4429435331539993  1.0000
  Al  Al7       1.0  0.7866960850000001  0.613765345  0.46727253017840686  1.0000
  Al  Al8       1.0  0.120029415  0.613765345  0.5016479461124712  1.0000
  Al  Al9       1.0  0.43413096500000004  0.6221226849999999  0.534165737582411  1.0000
  Al  Al10      1.0  0.7330063550000001  0.09945568500000002  0.5196233772280114  1.0000
  Al  Al11      1.0  0.06909960500000001  0.11376534500000002  0.4529899551574436  1.0000
  Al  Al12      1.0  0.40243294500000004  0.11376534500000002  0.4873653741852954  1.0000
  Al  Al13      1.0  0.6344520350000001  0.529772675  0.47936130360172347  1.0000
  Al  Al14      1.0  0.963203035  0.553872815  0.5135287118293658  1.0000
  Al  Al15      1.0  0.30111870500000004  0.529772675  0.4449858876676591  1.0000
  Al  Al16      1.0  0.5546769850000001  0.02977267500000003  0.47527659766819136  1.0000
  Al  Al17      1.0  0.887386965  0.028223345000000028  0.5090485084814574  1.0000
  Al  Al18      1.0  0.221343655  0.02977267500000003  0.440901181734127  1.0000
  Al  Al19      1.0  0.7213436550000001  0.490075775  0.440901181734127  1.0000
  Al  Al20      1.0  0.05467698500000001  0.490075775  0.47527659766819136  1.0000
  Al  Al21      1.0  0.38667651500000005  0.488478545  0.5088452497387942  1.0000
  Al  Al22      1.0  0.8011187049999999  0.9900757749999999  0.4449858876676591  1.0000
  Al  Al23      1.0  0.134452035  0.9900757749999999  0.47936130360172347  1.0000
  Al  Al24      1.0  0.463624425  0.965332355  0.5133768068648341  1.0000
  Al  Al25      1.0  0.8978398650000001  0.29916796500000004  0.5319720813927753  1.0000
  Al  Al26      1.0  0.21470276500000002  0.31529318500000003  0.4640809109661848  1.0000
  Al  Al27      1.0  0.548036095  0.31529318500000003  0.4984563269002492  1.0000
  Al  Al28      1.0  0.6410929249999999  0.8152931849999999  0.45618157436966567  1.0000
  Al  Al29      1.0  0.9744262550000001  0.8152931849999999  0.4905569903037299  1.0000
  Al  Al30      1.0  0.29962315500000003  0.809855265  0.5261052053776029  1.0000
  Al  Al31      1.0  0.474426255  0.7045552649999999  0.49055699030373  1.0000
  Al  Al32      1.0  0.799886885  0.7139885449999999  0.5256862694293917  1.0000
  Al  Al33      1.0  0.141092925  0.7045552649999999  0.4561815743696656  1.0000
  Al  Al34      1.0  0.7147027650000001  0.20455526500000004  0.4640809109661848  1.0000
  Al  Al35      1.0  0.048036095000000015  0.20455526500000004  0.49845632690024916  1.0000
  Al  Al36      1.0  0.39914839500000004  0.21851971500000003  0.5318031884412733  1.0000
  Al  Al37      1.0  0.7208675150000001  0.22533508500000005  0.49271570525773595  1.0000
  Al  Al38      1.0  0.06208954500000001  0.27064102500000004  0.5251765277252953  1.0000
  Al  Al39      1.0  0.38753417500000004  0.22533508500000005  0.45834028932367166  1.0000
  Al  Al40      1.0  0.468261515  0.725335085  0.4619221960121788  1.0000
  Al  Al41      1.0  0.801594845  0.725335085  0.49629761194624317  1.0000
  Al  Al42      1.0  0.132033805  0.7014752850000001  0.5297554167057623  1.0000
  Al  Al43      1.0  0.631297405  0.826427645  0.5296092630921281  1.0000
  Al  Al44      1.0  0.9682615150000001  0.794513365  0.4619221960121788  1.0000
  Al  Al45      1.0  0.30159484500000006  0.794513365  0.49629761194624317  1.0000
  Al  Al46      1.0  0.887534175  0.294513365  0.45834028932367166  1.0000
  Al  Al47      1.0  0.22086751500000001  0.294513365  0.49271570525773606  1.0000
  Al  Al48      1.0  0.563863825  0.242459695  0.5253118902082516  1.0000
  Al  Al49      1.0  0.620029415  0.906083105  0.5016479461124712  1.0000
  Al  Al50      1.0  0.935292055  0.893284015  0.5343193750679232  1.0000
  Al  Al51      1.0  0.28669608500000004  0.906083105  0.46727253017840686  1.0000
  Al  Al52      1.0  0.569099605  0.406083105  0.4529899551574436  1.0000
  Al  Al53      1.0  0.902432945  0.406083105  0.4873653741852954  1.0000
  Al  Al54      1.0  0.233890055  0.420527445  0.519675436389685  1.0000
  Ir  Ir1       1.0  0.8670268649999999  0.632771755  0.4454419243151505  1.0000
  Ir  Ir2       1.0  0.20036019500000002  0.632771755  0.4798173402492148  1.0000
  Ir  Ir3       1.0  0.534659085  0.6172896849999999  0.514918072997937  1.0000
  Ir  Ir4       1.0  0.6554354950000001  0.13277175500000002  0.4404451450866356  1.0000
  Ir  Ir5       1.0  0.9887688250000001  0.13277175500000002  0.4748205610206999  1.0000
  Ir  Ir6       1.0  0.32136067500000004  0.12866726500000003  0.5100062986738105  1.0000
  Ir  Ir7       1.0  0.488768825  0.387076695  0.47482056102069997  1.0000
  Ir  Ir8       1.0  0.8211614549999999  0.38900808500000006  0.5100775083798925  1.0000
  Ir  Ir9       1.0  0.155435495  0.387076695  0.4404451450866356  1.0000
  Ir  Ir10      1.0  0.7003601950000001  0.887076695  0.4798173402492148  1.0000
  Ir  Ir11      1.0  0.03617322500000001  0.8989519649999999  0.5150231813332731  1.0000
  Ir  Ir12      1.0  0.36702686500000004  0.887076695  0.4454419243151505  1.0000
