data_image0
_chemical_formula_structural       COAl36Ir8
_chemical_formula_sum              "C1 O1 Al36 Ir8"
_cell_length_a       6.49111758
_cell_length_b       10.452671970602221
_cell_length_c       104.07241404999999
_cell_angle_alpha    107.83688430844563
_cell_angle_beta     90.0
_cell_angle_gamma    90.0

_space_group_name_H-M_alt    "P 1"
_space_group_IT_number       1

loop_
  _space_group_symop_operation_xyz
  'x, y, z'

loop_
  _atom_site_type_symbol
  _atom_site_label
  _atom_site_symmetry_multiplicity
  _atom_site_fract_x
  _atom_site_fract_y
  _atom_site_fract_z
  _atom_site_occupancy
  C   C1        1.0  0.41275625499999996  0.12105042000000005  0.5474771183013047  1.0000
  O   O1        1.0  0.37011231499999997  0.16534773000000005  0.5592929229919539  1.0000
  Al  Al1       1.0  0.457713135  0.93199815  0.533225953700356  1.0000
  Al  Al2       1.0  0.508291095  0.5  0.47746250487212133  1.0000
  Al  Al3       1.0  0.008291095000000009  0.25000000000000006  0.5047451242921465  1.0000
  Al  Al4       1.0  0.008291095000000009  0.75  0.4501798887260103  1.0000
  Al  Al5       1.0  0.609573555  0.3716232300000001  0.5139419745193634  1.0000
  Al  Al6       1.0  0.612132215  0.8763528899999999  0.4596527004439743  1.0000
  Al  Al7       1.0  0.09307504500000001  0.86696183  0.521554423854877  1.0000
  Al  Al8       1.0  0.112132215  0.37364711000000006  0.4679896931541572  1.0000
  Al  Al9       1.0  0.527236155  0.26243493000000007  0.5359107367539634  1.0000
  Al  Al10      1.0  0.5281395449999999  0.83525185  0.4845743989378753  1.0000
  Al  Al11      1.0  0.028139545000000005  0.41474815  0.44306799793417034  1.0000
  Al  Al12      1.0  0.028139545000000005  0.9147481500000001  0.49763323022639244  1.0000
  Al  Al13      1.0  0.49554347499999996  0.64450948  0.5257281502876929  1.0000
  Al  Al14      1.0  0.488442645  0.16474815000000007  0.4703506140802814  1.0000
  Al  Al15      1.0  0.991708905  0.57871212  0.5113361680948303  1.0000
  Al  Al16      1.0  0.9884426449999999  0.08525185000000005  0.4572917795178501  1.0000
  Al  Al17      1.0  0.313660055  0.69329819  0.49872031702326425  1.0000
  Al  Al18      1.0  0.313660055  0.19329819000000006  0.444155081457128  1.0000
  Al  Al19      1.0  0.8427460749999999  0.54324862  0.536649204085166  1.0000
  Al  Al20      1.0  0.8136600549999999  0.05670181000000003  0.4834873121410036  1.0000
  Al  Al21      1.0  0.7029221349999999  0.3067018100000001  0.4562046959948925  1.0000
  Al  Al22      1.0  0.698711205  0.80539608  0.5107327268015545  1.0000
  Al  Al23      1.0  0.213773395  0.4320984  0.527375197525097  1.0000
  Al  Al24      1.0  0.202922135  0.9432981900000001  0.4714376976032391  1.0000
  Al  Al25      1.0  0.187989175  0.14290933000000006  0.5245428526165945  1.0000
  Al  Al26      1.0  0.223701955  0.66254844  0.47042855615250995  1.0000
  Al  Al27      1.0  0.7237019549999999  0.58745156  0.4572138374456216  1.0000
  Al  Al28      1.0  0.7176901549999999  0.08247381000000004  0.5108233160038296  1.0000
  Al  Al29      1.0  0.8137771949999999  0.82953059  0.5390519787287418  1.0000
  Al  Al30      1.0  0.7928802349999999  0.33745156000000004  0.4844964568656468  1.0000
  Al  Al31      1.0  0.292880235  0.41254843999999996  0.497711172298621  1.0000
  Al  Al32      1.0  0.292880235  0.9125484400000001  0.44314594000639895  1.0000
  Al  Al33      1.0  0.854705025  0.08809153000000003  0.5376737853146422  1.0000
  Al  Al34      1.0  0.9044499749999999  0.62635289  0.4869353198639995  1.0000
  Al  Al35      1.0  0.40444997499999996  0.62364711  0.4407070770080462  1.0000
  Al  Al36      1.0  0.40444997499999996  0.12364711000000006  0.4952723093002682  1.0000
  Ir  Ir1       1.0  0.631138625  0.54787564  0.5010681324713723  1.0000
  Ir  Ir2       1.0  0.631138625  0.04787564000000003  0.44650289690523604  1.0000
  Ir  Ir3       1.0  0.132941195  0.69123095  0.5336760055716951  1.0000
  Ir  Ir4       1.0  0.131138625  0.20212436000000006  0.4811394966928955  1.0000
  Ir  Ir5       1.0  0.385443565  0.45212436000000006  0.4538568805467845  1.0000
  Ir  Ir6       1.0  0.385443565  0.95212436  0.5084221128390065  1.0000
  Ir  Ir7       1.0  0.8751554249999999  0.28947741000000005  0.5279778792703089  1.0000
  Ir  Ir8       1.0  0.8854435649999999  0.79787564  0.47378551632526117  1.0000
