data_image0
_chemical_formula_structural       COCo3Sn3Co3Sn3Co3Sn3Co3Sn3
_chemical_formula_sum              "C1 O1 Co12 Sn12"
_cell_length_a       5.334482234910441
_cell_length_b       8.51618202
_cell_length_c       107.34137563
_cell_angle_alpha    90.0
_cell_angle_beta     59.999999968439056
_cell_angle_gamma    90.0

_space_group_name_H-M_alt    "P 1"
_space_group_IT_number       1

loop_
  _space_group_symop_operation_xyz
  'x, y, z'

loop_
  _atom_site_type_symbol
  _atom_site_label
  _atom_site_symmetry_multiplicity
  _atom_site_fract_x
  _atom_site_fract_y
  _atom_site_fract_z
  _atom_site_occupancy
  C   C1        1.0  0.9323972400000001  0.38128888  0.5442007806232132  1.0000
  O   O1        1.0  0.8447375900000001  0.3812896  0.5565375986722039  1.0000
  Co  Co1       1.0  0.56760276  0.13127381000000005  0.4765933505588361  1.0000
  Co  Co2       1.0  0.06760276  0.13127381000000005  0.45174513689618145  1.0000
  Co  Co3       1.0  0.56760276  0.13127381000000005  0.45174513689618145  1.0000
  Sn  Sn1       1.0  0.7342694300000001  0.38127381000000005  0.4600278759433162  1.0000
  Sn  Sn2       1.0  0.40093609  0.38127381000000005  0.44346240132779624  1.0000
  Sn  Sn3       1.0  0.06760276  0.13127381000000005  0.4765933505588361  1.0000
  Co  Co4       1.0  0.5789909199999999  0.12508343000000002  0.5252672481724884  1.0000
  Co  Co5       1.0  0.06878978  0.13297557000000004  0.5009467677657731  1.0000
  Co  Co6       1.0  0.5755631300000001  0.13296227000000005  0.5009892815633554  1.0000
  Sn  Sn4       1.0  0.70982172  0.38124213  0.5121931717854552  1.0000
  Sn  Sn5       1.0  0.40093609  0.38127381000000005  0.49315882169560643  1.0000
  Sn  Sn6       1.0  0.07601232  0.11872619000000004  0.5254618842067517  1.0000
  Co  Co7       1.0  0.56760276  0.63127381  0.4765933505588361  1.0000
  Co  Co8       1.0  0.06760276  0.63127381  0.45174513689618145  1.0000
  Co  Co9       1.0  0.56760276  0.63127381  0.45174513689618145  1.0000
  Sn  Sn7       1.0  0.7342694300000001  0.8812738099999999  0.4600278759433162  1.0000
  Sn  Sn8       1.0  0.40093609  0.8812738099999999  0.44346240132779624  1.0000
  Sn  Sn9       1.0  0.06760276  0.63127381  0.4765933505588361  1.0000
  Co  Co10      1.0  0.5790689000000001  0.6374868600000001  0.5252580294863258  1.0000
  Co  Co11      1.0  0.0686958  0.6295734000000002  0.5009492898591572  1.0000
  Co  Co12      1.0  0.5755865099999999  0.62958593  0.5009926942166103  1.0000
  Sn  Sn10      1.0  0.72503264  0.88116208  0.5106939664242018  1.0000
  Sn  Sn11      1.0  0.40093609  0.8812738099999999  0.49315882169560643  1.0000
  Sn  Sn12      1.0  0.07595926  0.6437989700000001  0.525461633736788  1.0000
