data_image0
_chemical_formula_structural       COAs12Mo6
_chemical_formula_sum              "C1 O1 As12 Mo6"
_cell_length_a       4.885291958002758
_cell_length_b       7.057998349944087
_cell_length_c       100.37995161
_cell_angle_alpha    92.03485245985662
_cell_angle_beta     93.42768280593268
_cell_angle_gamma    91.36805390816312

_space_group_name_H-M_alt    "P 1"
_space_group_IT_number       1

loop_
  _space_group_symop_operation_xyz
  'x, y, z'

loop_
  _atom_site_type_symbol
  _atom_site_label
  _atom_site_symmetry_multiplicity
  _atom_site_fract_x
  _atom_site_fract_y
  _atom_site_fract_z
  _atom_site_occupancy
  C   C1        1.0  0.94081761  0.27089851  0.5399060165806338  1.0000
  O   O1        1.0  0.9647681800000001  0.30538783  0.5514668103921109  1.0000
  As  As1       1.0  0.84303333  0.86574048  0.5338461000760293  1.0000
  As  As2       1.0  0.63445315  0.90719691  0.5097980294096489  1.0000
  As  As3       1.0  0.15524231000000002  0.53361515  0.5123294360120951  1.0000
  As  As4       1.0  0.44737502  0.30502272  0.530537241143281  1.0000
  As  As5       1.0  0.16043866  0.9938448499999999  0.5021715350495961  1.0000
  As  As6       1.0  0.8352318200000001  0.0061551500000000285  0.478798149017347  1.0000
  As  As7       1.0  0.35843028  0.63590973  0.4815211570248227  1.0000
  As  As8       1.0  0.6372402  0.36409027  0.49944852704212056  1.0000
  As  As9       1.0  0.3604386600000001  0.09384485000000002  0.4719065756401382  1.0000
  As  As10      1.0  0.03523182000000001  0.10615515000000003  0.4485331896078891  1.0000
  As  As11      1.0  0.5584302800000001  0.73590973  0.4512561976153647  1.0000
  As  As12      1.0  0.8372402000000001  0.46409027  0.46918356763266267  1.0000
  Mo  Mo1       1.0  0.91392722  0.20413914000000002  0.5199746431965507  1.0000
  Mo  Mo2       1.0  0.6736785200000001  0.58829551  0.5203112258631352  1.0000
  Mo  Mo3       1.0  0.11269139000000002  0.30333861  0.48902847100121694  1.0000
  Mo  Mo4       1.0  0.8829790900000001  0.69666139  0.4919412130657263  1.0000
  Mo  Mo5       1.0  0.3126914  0.40333861  0.458763511591759  1.0000
  Mo  Mo6       1.0  0.08297908000000001  0.79666139  0.4616762536562684  1.0000
