data_image0
_chemical_formula_structural       COCo16As16Se16
_chemical_formula_sum              "C1 O1 Co16 As16 Se16"
_cell_length_a       11.60791436
_cell_length_b       8.282256878974808
_cell_length_c       103.1290275
_cell_angle_alpha    89.13813038612619
_cell_angle_beta     90.0
_cell_angle_gamma    90.0

_space_group_name_H-M_alt    "P 1"
_space_group_IT_number       1

loop_
  _space_group_symop_operation_xyz
  'x, y, z'

loop_
  _atom_site_type_symbol
  _atom_site_label
  _atom_site_symmetry_multiplicity
  _atom_site_fract_x
  _atom_site_fract_y
  _atom_site_fract_z
  _atom_site_occupancy
  C   C1        1.0  0.365346165  0.44867418  0.5386534396944824  1.0000
  O   O1        1.0  0.3554358650000001  0.35928309  0.5475082058472261  1.0000
  Co  Co1       1.0  0.6306109550000001  0.41362592  0.47273206365915893  1.0000
  Co  Co2       1.0  0.630436595  0.92466448  0.5122603389392993  1.0000
  Co  Co3       1.0  0.37525889500000004  0.59287768  0.5256372294713467  1.0000
  Co  Co4       1.0  0.3761582150000001  0.08888995999999999  0.48680745868050995  1.0000
  Co  Co5       1.0  0.876158215  0.66111004  0.4930115274907816  1.0000
  Co  Co6       1.0  0.876158215  0.16111003999999998  0.45285669874966894  1.0000
  Co  Co7       1.0  0.12787307500000003  0.33535927  0.5078192502167816  1.0000
  Co  Co8       1.0  0.13061095500000006  0.83637408  0.46693209377101996  1.0000
  Co  Co9       1.0  0.3761582150000001  0.58637408  0.48700950814157634  1.0000
  Co  Co10      1.0  0.37686468500000003  0.07427365999999999  0.5252384117122899  1.0000
  Co  Co11      1.0  0.6308518049999999  0.40532681  0.5126343667132846  1.0000
  Co  Co12      1.0  0.6306109550000001  0.91111004  0.4729341131202253  1.0000
  Co  Co13      1.0  0.13061095500000006  0.33888996  0.46673004430995363  1.0000
  Co  Co14      1.0  0.134254895  0.8349832600000001  0.5070857789026101  1.0000
  Co  Co15      1.0  0.876158215  0.66362592  0.45265464928860255  1.0000
  Co  Co16      1.0  0.876158215  0.16362591999999998  0.4928094780297153  1.0000
  As  As1       1.0  0.5682760050000001  0.52542906  0.4524917941527738  1.0000
  As  As2       1.0  0.5682760050000001  0.02542905999999998  0.49264662289388644  1.0000
  As  As3       1.0  0.445345165  0.8364551  0.5174253196400441  1.0000
  As  As4       1.0  0.4384931650000001  0.34091781  0.4778285884078658  1.0000
  As  As5       1.0  0.9312278949999999  0.41018286000000004  0.5031883961984059  1.0000
  As  As6       1.0  0.9384931649999999  0.90908219  0.4618355690223131  1.0000
  As  As7       1.0  0.05756390500000005  0.200459  0.5255158109063924  1.0000
  As  As8       1.0  0.06827600500000004  0.72457094  0.48717236327740504  1.0000
  As  As9       1.0  0.440735315  0.47560194000000006  0.5070204678767593  1.0000
  As  As10      1.0  0.4384931650000001  0.97457094  0.4670949489068487  1.0000
  As  As11      1.0  0.5620265750000001  0.16385895999999997  0.5209312216754991  1.0000
  As  As12      1.0  0.5682760050000001  0.65908219  0.48191298339286937  1.0000
  As  As13      1.0  0.06827600500000004  0.59091781  0.4577511740373094  1.0000
  As  As14      1.0  0.06827600500000004  0.09091781  0.4979060027784221  1.0000
  As  As15      1.0  0.9424360949999999  0.7672713900000001  0.51256987484594  1.0000
  As  As16      1.0  0.9384931649999999  0.27542906  0.4725692085233302  1.0000
  Se  Se1       1.0  0.8231056250000001  0.53235773  0.47267482214769185  1.0000
  Se  Se2       1.0  0.8352991949999999  0.03129080999999998  0.513646435441648  1.0000
  Se  Se3       1.0  0.18433621500000003  0.58531545  0.5186906304175396  1.0000
  Se  Se4       1.0  0.183663545  0.08960269999999998  0.4772721484902619  1.0000
  Se  Se5       1.0  0.6862098649999999  0.66220512  0.502995293233183  1.0000
  Se  Se6       1.0  0.683663545  0.16039729999999996  0.46239200893991705  1.0000
  Se  Se7       1.0  0.32273364500000007  0.22172357999999998  0.5071839173040534  1.0000
  Se  Se8       1.0  0.32310562500000006  0.71764227  0.46698933528248704  1.0000
  Se  Se9       1.0  0.183663545  0.46764227  0.4870667496530433  1.0000
  Se  Se10      1.0  0.18948385500000003  0.9676196399999999  0.5279547638059469  1.0000
  Se  Se11      1.0  0.8111258250000001  0.41356691  0.5232393019572205  1.0000
  Se  Se12      1.0  0.8231056250000001  0.9103973  0.4824694233104733  1.0000
  Se  Se13      1.0  0.32310562500000006  0.3396027  0.45719473411970546  1.0000
  Se  Se14      1.0  0.32310562500000006  0.8396027  0.4973495628608182  1.0000
  Se  Se15      1.0  0.683663545  0.78235773  0.4525974077771356  1.0000
  Se  Se16      1.0  0.683663545  0.28235773  0.4927522365182482  1.0000
