data_image0
_chemical_formula_structural       COCo6Cu12Sn6Se24
_chemical_formula_sum              "C1 O1 Co6 Cu12 Sn6 Se24"
_cell_length_a       11.34550269
_cell_length_b       12.866567721897491
_cell_length_c       102.55012775
_cell_angle_alpha    71.56505116299613
_cell_angle_beta     90.0
_cell_angle_gamma    90.0

_space_group_name_H-M_alt    "P 1"
_space_group_IT_number       1

loop_
  _space_group_symop_operation_xyz
  'x, y, z'

loop_
  _atom_site_type_symbol
  _atom_site_label
  _atom_site_symmetry_multiplicity
  _atom_site_fract_x
  _atom_site_fract_y
  _atom_site_fract_z
  _atom_site_occupancy
  C   C1        1.0  0.8554525349999998  0.8485851150000002  0.5341410357978579  1.0000
  O   O1        1.0  0.8614566049999999  0.845938375  0.5455143727173903  1.0000
  Co  Co1       1.0  0.06407566499999998  0.6788216050000001  0.5024037295112321  1.0000
  Co  Co2       1.0  0.06146717499999997  0.34498874500000004  0.47606301819395896  1.0000
  Co  Co3       1.0  0.04637049499999997  0.21477526500000002  0.501522931451927  1.0000
  Co  Co4       1.0  0.561467175  0.678322085  0.4628377257328572  1.0000
  Co  Co5       1.0  0.47261587499999996  0.34313003500000006  0.502937639815291  1.0000
  Co  Co6       1.0  0.561467175  0.011655415000000032  0.4892883074809907  1.0000
  Cu  Cu1       1.0  0.8114671749999998  0.5116554150000001  0.48928830748099067  1.0000
  Cu  Cu2       1.0  0.8114671749999998  0.17832208500000005  0.4628377257328572  1.0000
  Cu  Cu3       1.0  0.8030946249999998  0.8384966050000002  0.5171538388218033  1.0000
  Cu  Cu4       1.0  0.8114671749999998  0.8449887450000001  0.47606301819395885  1.0000
  Cu  Cu5       1.0  0.853922025  0.6365462850000001  0.5159386461465229  1.0000
  Cu  Cu6       1.0  0.8123010249999999  0.18813692500000007  0.5030783590318664  1.0000
  Cu  Cu7       1.0  0.31146717499999993  0.8449887450000001  0.47606301819395885  1.0000
  Cu  Cu8       1.0  0.25812091499999995  0.577447445  0.5099184797455385  1.0000
  Cu  Cu9       1.0  0.31244276499999996  0.17740978500000004  0.5029845493948861  1.0000
  Cu  Cu10      1.0  0.31146717499999993  0.5116554150000001  0.48928830748099067  1.0000
  Cu  Cu11      1.0  0.31146717499999993  0.17832208500000005  0.4628377257328572  1.0000
  Cu  Cu12      1.0  0.27208570499999996  0.8516711250000001  0.5115903258626175  1.0000
  Sn  Sn1       1.0  0.06146717499999997  0.678322085  0.4628377257328572  1.0000
  Sn  Sn2       1.0  0.08778785499999996  0.335047195  0.5210173104006619  1.0000
  Sn  Sn3       1.0  0.06146717499999997  0.011655415000000032  0.4892883074809907  1.0000
  Sn  Sn4       1.0  0.559276255  0.6697195550000001  0.5031570759662974  1.0000
  Sn  Sn5       1.0  0.561467175  0.34498874500000004  0.47606301819395896  1.0000
  Sn  Sn6       1.0  0.48325723500000006  0.988344585  0.5180028200040626  1.0000
  Se  Se1       1.0  0.928989575  0.859602595  0.4556452642117873  1.0000
  Se  Se2       1.0  0.953629505  0.5176986550000001  0.5065567714904194  1.0000
  Se  Se3       1.0  0.928989575  0.19293593500000006  0.48209584595992083  1.0000
  Se  Se4       1.0  0.693944775  0.678322085  0.4809362122048131  1.0000
  Se  Se5       1.0  0.693944775  0.34498874500000004  0.4544856272826097  1.0000
  Se  Se6       1.0  0.699300265  0.017723785000000034  0.5059811539073918  1.0000
  Se  Se7       1.0  0.677788085  0.6717072550000002  0.5251373833154163  1.0000
  Se  Se8       1.0  0.679050165  0.34900378500000007  0.49854499047064926  1.0000
  Se  Se9       1.0  0.693944775  0.011655415000000032  0.4711898241831047  1.0000
  Se  Se10      1.0  0.928989575  0.4970415650000001  0.4700301872539269  1.0000
  Se  Se11      1.0  0.9423394049999999  0.16939976500000004  0.5222579781612546  1.0000
  Se  Se12      1.0  0.9284648949999998  0.8230223950000001  0.4972533281024528  1.0000
  Se  Se13      1.0  0.428989575  0.5262692650000002  0.4688705534988191  1.0000
  Se  Se14      1.0  0.4415908049999999  0.18928234500000002  0.5211914430514614  1.0000
  Se  Se15      1.0  0.428989575  0.859602595  0.49532113842102254  1.0000
  Se  Se16      1.0  0.16632536499999998  0.685430705  0.5213745805386714  1.0000
  Se  Se17      1.0  0.19394477499999999  0.34498874500000004  0.49416150149184496  1.0000
  Se  Se18      1.0  0.19394477499999999  0.011655415000000032  0.46771091974371143  1.0000
  Se  Se19      1.0  0.19394477499999999  0.678322085  0.4844151134701365  1.0000
  Se  Se20      1.0  0.19394477499999999  0.34498874500000004  0.45796453172200297  1.0000
  Se  Se21      1.0  0.17423541499999995  0.022324535000000034  0.511160566315393  1.0000
  Se  Se22      1.0  0.428989575  0.8303748950000002  0.45680489796689516  1.0000
  Se  Se23      1.0  0.4353651149999999  0.4779963850000001  0.5126718330603025  1.0000
  Se  Se24      1.0  0.428989575  0.16370823500000006  0.4832554797150287  1.0000
