data_image0
_chemical_formula_structural       COIn18As6Se18
_chemical_formula_sum              "C1 O1 In18 As6 Se18"
_cell_length_a       17.33706422
_cell_length_b       10.624258014117835
_cell_length_c       100.25677997
_cell_angle_alpha    88.88826897458588
_cell_angle_beta     90.0
_cell_angle_gamma    90.0

_space_group_name_H-M_alt    "P 1"
_space_group_IT_number       1

loop_
  _space_group_symop_operation_xyz
  'x, y, z'

loop_
  _atom_site_type_symbol
  _atom_site_label
  _atom_site_symmetry_multiplicity
  _atom_site_fract_x
  _atom_site_fract_y
  _atom_site_fract_z
  _atom_site_occupancy
  C   C1        1.0  0.38073927  0.6205285899999999  0.5395668617359676  1.0000
  O   O1        1.0  0.43308399000000003  0.6269906199999999  0.546546856682653  1.0000
  In  In1       1.0  0.07170620000000001  0.14105212999999997  0.467218419477894  1.0000
  In  In2       1.0  0.06647549  0.8099833799999999  0.4938152639353025  1.0000
  In  In3       1.0  0.11242098  0.39139409000000003  0.5076280664348273  1.0000
  In  In4       1.0  0.9420753500000001  0.11831292  0.5050762991911188  1.0000
  In  In5       1.0  0.9395444400000001  0.8077188  0.4546437161346404  1.0000
  In  In6       1.0  0.9395444400000001  0.47438547  0.4797931228211476  1.0000
  In  In7       1.0  0.7027526700000002  0.10955923999999997  0.5047394500768602  1.0000
  In  In8       1.0  0.69982182  0.80594669  0.45437631257449773  1.0000
  In  In9       1.0  0.69982182  0.47261336  0.4795257162430764  1.0000
  In  In10      1.0  0.5688586400000001  0.14164086999999997  0.46730725824094266  1.0000
  In  In11      1.0  0.5622533700000002  0.8100052999999999  0.4963120686640591  1.0000
  In  In12      1.0  0.5481666500000001  0.38777534  0.5123562792546908  1.0000
  In  In13      1.0  0.4601136  0.11519038999999998  0.5059437061822489  1.0000
  In  In14      1.0  0.44239200000000006  0.8083075300000001  0.45473255489768905  1.0000
  In  In15      1.0  0.44239200000000006  0.4749741999999999  0.4798819585662677  1.0000
  In  In16      1.0  0.31142882  0.13928001999999998  0.4669510128998228  1.0000
  In  In17      1.0  0.31576965000000007  0.80988057  0.4929462755496065  1.0000
  In  In18      1.0  0.27485382999999997  0.43175706  0.5095138130602777  1.0000
  As  As1       1.0  0.5853994800000001  0.16460170999999996  0.5210945646499121  1.0000
  As  As2       1.0  0.5712774100000002  0.88891924  0.46689657248651195  1.0000
  As  As3       1.0  0.56934717  0.55327533  0.49280897187179756  1.0000
  As  As4       1.0  0.43997323000000005  0.22225258  0.47947127582976545  1.0000
  As  As5       1.0  0.43300638  0.8701917299999999  0.508968216845387  1.0000
  As  As6       1.0  0.43997323000000005  0.5555859099999999  0.45432187216118686  1.0000
  Se  Se1       1.0  0.19226051000000002  0.22377410000000003  0.47970086776296805  1.0000
  Se  Se2       1.0  0.19232099000000002  0.88013044  0.5055049929252727  1.0000
  Se  Se3       1.0  0.19226051000000002  0.55710743  0.4545514640943894  1.0000
  Se  Se4       1.0  0.057924650000000015  0.20174737  0.5197499597767966  1.0000
  Se  Se5       1.0  0.07167653  0.8847403399999999  0.46626599140334485  1.0000
  Se  Se6       1.0  0.07722269000000001  0.55488113  0.4881100631382609  1.0000
  Se  Se7       1.0  0.9395741100000001  0.21807368000000002  0.47884069474659846  1.0000
  Se  Se8       1.0  0.9347400000000001  0.8730130199999999  0.5032752175335173  1.0000
  Se  Se9       1.0  0.9395741100000001  0.5514070099999999  0.4536912910780198  1.0000
  Se  Se10      1.0  0.8200954900000001  0.20908506  0.5162433350260472  1.0000
  Se  Se11      1.0  0.8189901300000001  0.89044076  0.46712616441971444  1.0000
  Se  Se12      1.0  0.81924408  0.5406859799999999  0.49359970838783684  1.0000
  Se  Se13      1.0  0.7011253500000001  0.21649547  0.4786025500038542  1.0000
  Se  Se14      1.0  0.7053679400000001  0.86731931  0.4994986752881341  1.0000
  Se  Se15      1.0  0.7011253500000001  0.5498288  0.45345314331734704  1.0000
  Se  Se16      1.0  0.39741467  0.31950899  0.5196800796409679  1.0000
  Se  Se17      1.0  0.31012529000000005  0.8831621399999999  0.4660278466606006  1.0000
  Se  Se18      1.0  0.30443145  0.56256188  0.4871772546172865  1.0000
