data_image0
_chemical_formula_structural       COTiGaTiGaTiGaTiGaTiGaTiGaTiGaTiGa
_chemical_formula_sum              "C1 O1 Ti8 Ga8"
_cell_length_a       5.67374906
_cell_length_b       5.67374906
_cell_length_c       98.02637068
_cell_angle_alpha    90.0
_cell_angle_beta     90.0
_cell_angle_gamma    90.0

_space_group_name_H-M_alt    "P 1"
_space_group_IT_number       1

loop_
  _space_group_symop_operation_xyz
  'x, y, z'

loop_
  _atom_site_type_symbol
  _atom_site_label
  _atom_site_symmetry_multiplicity
  _atom_site_fract_x
  _atom_site_fract_y
  _atom_site_fract_z
  _atom_site_occupancy
  C   C1        1.0  0.6244310599999999  0.12504082500000002  0.5347186754493037  1.0000
  O   O1        1.0  0.62443826  0.12504600500000002  0.54657226496704  1.0000
  Ti  Ti1       1.0  0.37444462999999995  0.37504980499999996  0.45342773503295997  1.0000
  Ga  Ga1       1.0  0.12444462999999995  0.125049805  0.47384962320524915  1.0000
  Ti  Ti2       1.0  0.37333594  0.37617547500000004  0.49456629235357014  1.0000
  Ga  Ga2       1.0  0.12446257999999996  0.125073595  0.5135937890857649  1.0000
  Ti  Ti3       1.0  0.37444462999999995  0.875049805  0.45342773503295997  1.0000
  Ga  Ga3       1.0  0.12444462999999995  0.625049805  0.47384962320524915  1.0000
  Ti  Ti4       1.0  0.3733298299999999  0.8739484949999999  0.49456633809860057  1.0000
  Ga  Ga4       1.0  0.12445372999999996  0.625071855  0.5140680192389444  1.0000
  Ti  Ti5       1.0  0.87444463  0.37504980499999996  0.45342773503295997  1.0000
  Ga  Ga5       1.0  0.62444463  0.125049805  0.47384962320524915  1.0000
  Ti  Ti6       1.0  0.8755543299999999  0.37617232500000003  0.49456690133428766  1.0000
  Ga  Ga6       1.0  0.6244857899999999  0.124950195  0.5135766833034519  1.0000
  Ti  Ti7       1.0  0.87444463  0.875049805  0.45342773503295997  1.0000
  Ga  Ga7       1.0  0.62444463  0.625049805  0.47384962320524915  1.0000
  Ti  Ti8       1.0  0.8755553699999999  0.8739571349999998  0.49456677267638954  1.0000
  Ga  Ga8       1.0  0.62443719  0.6250436850000001  0.5135930800377934  1.0000
