data_image0
_chemical_formula_structural       COZnAgZnAgZnAgZnAgZnAgZnAgZnAgZnAgZnAgZnAgZnAgZnAg
_chemical_formula_sum              "C1 O1 Zn12 Ag12"
_cell_length_a       6.46078072
_cell_length_b       6.46078072
_cell_length_c       102.3039036
_cell_angle_alpha    90.0
_cell_angle_beta     90.0
_cell_angle_gamma    90.0

_space_group_name_H-M_alt    "P 1"
_space_group_IT_number       1

loop_
  _space_group_symop_operation_xyz
  'x, y, z'

loop_
  _atom_site_type_symbol
  _atom_site_label
  _atom_site_symmetry_multiplicity
  _atom_site_fract_x
  _atom_site_fract_y
  _atom_site_fract_z
  _atom_site_occupancy
  C   C1        1.0  0.625004115  0.6250131400000001  0.5448556278633847  1.0000
  O   O1        1.0  0.625021785  0.62503046  0.5561623742213043  1.0000
  Zn  Zn1       1.0  0.375020455  0.37503439  0.4438376257786956  1.0000
  Ag  Ag1       1.0  0.12502045499999997  0.12503438999999997  0.4596258325153152  1.0000
  Zn  Zn2       1.0  0.375020455  0.37503439  0.47541403925193476  1.0000
  Ag  Ag2       1.0  0.12502045499999997  0.12503438999999997  0.4912022459885544  1.0000
  Zn  Zn3       1.0  0.38028757500000004  0.38030428  0.5073295960364419  1.0000
  Ag  Ag3       1.0  0.12497954499999998  0.12496560999999998  0.5215515053049831  1.0000
  Zn  Zn4       1.0  0.375020455  0.87503439  0.4438376257786956  1.0000
  Ag  Ag4       1.0  0.12502045499999997  0.62503439  0.4596258325153152  1.0000
  Zn  Zn5       1.0  0.375020455  0.87503439  0.47541403925193476  1.0000
  Ag  Ag5       1.0  0.12502045499999997  0.62503439  0.4912022459885544  1.0000
  Zn  Zn6       1.0  0.380406745  0.86980008  0.5073191347706583  1.0000
  Ag  Ag6       1.0  0.12502261499999998  0.6252395900000001  0.5217689910104213  1.0000
  Zn  Zn7       1.0  0.875020455  0.37503439  0.4438376257786956  1.0000
  Ag  Ag7       1.0  0.6250204549999999  0.12503438999999997  0.4596258325153152  1.0000
  Zn  Zn8       1.0  0.875020455  0.37503439  0.47541403925193476  1.0000
  Ag  Ag8       1.0  0.6250204549999999  0.12503438999999997  0.4912022459885544  1.0000
  Zn  Zn9       1.0  0.8697437949999999  0.38035353  0.5073249732495094  1.0000
  Ag  Ag9       1.0  0.625140425  0.12499294999999998  0.5217693288780455  1.0000
  Zn  Zn10      1.0  0.875020455  0.87503439  0.4438376257786956  1.0000
  Ag  Ag10      1.0  0.6250204549999999  0.62503439  0.4596258325153152  1.0000
  Zn  Zn11      1.0  0.875020455  0.87503439  0.47541403925193476  1.0000
  Ag  Ag11      1.0  0.6250204549999999  0.62503439  0.4912022459885544  1.0000
  Zn  Zn12      1.0  0.869631575  0.8697516299999999  0.5073142562147767  1.0000
  Ag  Ag12      1.0  0.6250312349999999  0.6250113700000001  0.5236677375901114  1.0000
