data_image0
_chemical_formula_structural       COAl8Pb4Se16
_chemical_formula_sum              "C1 O1 Al8 Pb4 Se16"
_cell_length_a       6.32907854
_cell_length_b       11.10055347
_cell_length_c       103.41334739
_cell_angle_alpha    90.0
_cell_angle_beta     90.0
_cell_angle_gamma    90.0

_space_group_name_H-M_alt    "P 1"
_space_group_IT_number       1

loop_
  _space_group_symop_operation_xyz
  'x, y, z'

loop_
  _atom_site_type_symbol
  _atom_site_label
  _atom_site_symmetry_multiplicity
  _atom_site_fract_x
  _atom_site_fract_y
  _atom_site_fract_z
  _atom_site_occupancy
  C   C1        1.0  0.799617025  0.21212806000000003  0.5506484941520691  1.0000
  O   O1        1.0  0.9049187849999999  0.21979185000000004  0.5596352595631547  1.0000
  Al  Al1       1.0  0.9995108149999999  0.002185989999999998  0.44036474043684526  1.0000
  Al  Al2       1.0  0.0014675549999999967  0.50218599  0.44036474043684526  1.0000
  Al  Al3       1.0  0.49951081499999994  0.50218599  0.4423537638010798  1.0000
  Al  Al4       1.0  0.501467555  0.002185989999999998  0.4423537638010798  1.0000
  Al  Al5       1.0  0.49951081499999994  0.002185989999999998  0.4942155358076711  1.0000
  Al  Al6       1.0  0.501467555  0.50218599  0.4942155358076711  1.0000
  Al  Al7       1.0  0.9995108149999999  0.50218599  0.4962045591719057  1.0000
  Al  Al8       1.0  0.0014675549999999967  0.002185989999999998  0.4962045591719057  1.0000
  Pb  Pb1       1.0  0.0004891849999999969  0.25218599  0.4682846481888515  1.0000
  Pb  Pb2       1.0  0.0004891849999999969  0.75218599  0.4682846481888515  1.0000
  Pb  Pb3       1.0  0.442019465  0.16938609  0.5245799025048669  1.0000
  Pb  Pb4       1.0  0.42994436499999994  0.7859587900000001  0.5236688891768517  1.0000
  Se  Se1       1.0  0.750489185  0.17020377  0.44135925050343866  1.0000
  Se  Se2       1.0  0.7662913849999999  0.50218599  0.45928697476021935  1.0000
  Se  Se3       1.0  0.250489185  0.33416821  0.44135925050343866  1.0000
  Se  Se4       1.0  0.236915305  0.98245491  0.5355827480748954  1.0000
  Se  Se5       1.0  0.23468698500000001  0.002185989999999998  0.45928697476021935  1.0000
  Se  Se6       1.0  0.250489185  0.67020377  0.44135925050343866  1.0000
  Se  Se7       1.0  0.121165845  0.6081035499999999  0.5297206644200302  1.0000
  Se  Se8       1.0  0.750489185  0.83416821  0.44135925050343866  1.0000
  Se  Se9       1.0  0.250489185  0.17020377  0.49521004910531236  1.0000
  Se  Se10      1.0  0.249792965  0.46713642  0.5138969629826144  1.0000
  Se  Se11      1.0  0.750489185  0.33416821  0.49521004910531236  1.0000
  Se  Se12      1.0  0.7662913849999999  0.002185989999999998  0.47728232161748385  1.0000
  Se  Se13      1.0  0.7387149049999999  0.99781401  0.5130140630019551  1.0000
  Se  Se14      1.0  0.750489185  0.67020377  0.49521004910531236  1.0000
  Se  Se15      1.0  0.23468698500000001  0.50218599  0.47728232161748385  1.0000
  Se  Se16      1.0  0.250489185  0.83416821  0.49521004910531236  1.0000
