data_image0
_chemical_formula_structural       COGa12Ti4
_chemical_formula_sum              "C1 O1 Ga12 Ti4"
_cell_length_a       5.20584302
_cell_length_b       5.205843022274845
_cell_length_c       102.54830303
_cell_angle_alpha    90.0
_cell_angle_beta     90.0
_cell_angle_gamma    117.19834363969301

_space_group_name_H-M_alt    "P 1"
_space_group_IT_number       1

loop_
  _space_group_symop_operation_xyz
  'x, y, z'

loop_
  _atom_site_type_symbol
  _atom_site_label
  _atom_site_symmetry_multiplicity
  _atom_site_fract_x
  _atom_site_fract_y
  _atom_site_fract_z
  _atom_site_occupancy
  C   C1        1.0  0.4999944499999999  7.0100000000473015e-06  0.5456203215491617  1.0000
  O   O1        1.0  0.5000012699999998  7.400000000473007e-07  0.5572097976309345  1.0000
  Ga  Ga1       1.0  8.799999998371195e-07  0.50000201  0.4427902023690655  1.0000
  Ga  Ga2       1.0  0.5000008799999999  2.0100000000473007e-06  0.4692397719591689  1.0000
  Ga  Ga3       1.0  0.5000008799999999  2.0100000000473007e-06  0.4427902023690655  1.0000
  Ga  Ga4       1.0  8.799999998371195e-07  0.50000201  0.4692397719591689  1.0000
  Ga  Ga5       1.0  0.5000008799999999  0.50000201  0.4824645583411948  1.0000
  Ga  Ga6       1.0  8.799999998815503e-07  2.0100000000473007e-06  0.456014985577143  1.0000
  Ga  Ga7       1.0  8.799999998371195e-07  0.50000201  0.49568934154927224  1.0000
  Ga  Ga8       1.0  0.5000088999999999  7.600000000047299e-06  0.5223838193518173  1.0000
  Ga  Ga9       1.0  0.5000008799999999  2.0100000000473007e-06  0.49568934154927224  1.0000
  Ga  Ga10      1.0  8.389999999900676e-06  0.5000070700000001  0.5246956535961587  1.0000
  Ga  Ga11      1.0  0.5000097199999999  0.5000074600000001  0.5366312360636384  1.0000
  Ga  Ga12      1.0  0.9999991199999998  0.99999926  0.508335818648906  1.0000
  Ti  Ti1       1.0  0.5000008799999999  0.50000201  0.456014985577143  1.0000
  Ti  Ti2       1.0  8.799999998815503e-07  2.0100000000473007e-06  0.4824645583411948  1.0000
  Ti  Ti3       1.0  0.49999839999999984  0.49999909000000003  0.5088559018464734  1.0000
  Ti  Ti4       1.0  8.479999999881551e-06  6.1600000000473e-06  0.5337770470252611  1.0000
