data_image0
_chemical_formula_structural       COGa12Ti4
_chemical_formula_sum              "C1 O1 Ga12 Ti4"
_cell_length_a       5.20584302
_cell_length_b       5.205843022274845
_cell_length_c       102.54830303
_cell_angle_alpha    90.0
_cell_angle_beta     90.0
_cell_angle_gamma    117.19834363969301

_space_group_name_H-M_alt    "P 1"
_space_group_IT_number       1

loop_
  _space_group_symop_operation_xyz
  'x, y, z'

loop_
  _atom_site_type_symbol
  _atom_site_label
  _atom_site_symmetry_multiplicity
  _atom_site_fract_x
  _atom_site_fract_y
  _atom_site_fract_z
  _atom_site_occupancy
  C   C1        1.0  0.4765368849999999  0.78295704  0.5450029235042917  1.0000
  O   O1        1.0  0.3766465749999999  0.88290927  0.5541019006079608  1.0000
  Ga  Ga1       1.0  0.254278215  0.5050190200000001  0.4458980993920393  1.0000
  Ga  Ga2       1.0  0.754278215  0.005019020000000033  0.4723476689821426  1.0000
  Ga  Ga3       1.0  0.754278215  0.005019020000000033  0.4458980993920393  1.0000
  Ga  Ga4       1.0  0.254278215  0.5050190200000001  0.4723476689821426  1.0000
  Ga  Ga5       1.0  0.754278215  0.5050190200000001  0.4855724553641685  1.0000
  Ga  Ga6       1.0  0.2542782149999999  0.005019020000000033  0.45912288260011674  1.0000
  Ga  Ga7       1.0  0.254278215  0.5050190200000001  0.49879723857224595  1.0000
  Ga  Ga8       1.0  0.7599539049999999  0.019315180000000032  0.525577095588843  1.0000
  Ga  Ga9       1.0  0.754278215  0.005019020000000033  0.49879723857224595  1.0000
  Ga  Ga10      1.0  0.24004609499999996  0.49948447000000007  0.5255807107161592  1.0000
  Ga  Ga11      1.0  0.7050487649999999  0.55420854  0.5407040832507208  1.0000
  Ga  Ga12      1.0  0.26286627499999987  0.9965229399999999  0.5115435998304751  1.0000
  Ti  Ti1       1.0  0.754278215  0.5050190200000001  0.45912288260011674  1.0000
  Ti  Ti2       1.0  0.2542782149999999  0.005019020000000033  0.4855724553641685  1.0000
  Ti  Ti3       1.0  0.7503692549999998  0.5090252100000001  0.5127907870150726  1.0000
  Ti  Ti4       1.0  0.25604929499999995  0.0034770600000000327  0.5374476978091374  1.0000
