data_image0
_chemical_formula_structural       COSb12
_chemical_formula_sum              "C1 O1 Sb12"
_cell_length_a       4.616843018944443
_cell_length_b       9.97428402673103
_cell_length_c       100.33616515
_cell_angle_alpha    84.10314016001404
_cell_angle_beta     86.7259539551505
_cell_angle_gamma    79.99687085930144

_space_group_name_H-M_alt    "P 1"
_space_group_IT_number       1

loop_
  _space_group_symop_operation_xyz
  'x, y, z'

loop_
  _atom_site_type_symbol
  _atom_site_label
  _atom_site_symmetry_multiplicity
  _atom_site_fract_x
  _atom_site_fract_y
  _atom_site_fract_z
  _atom_site_occupancy
  C   C1        1.0  0.13106446000000002  0.03590698499999998  0.5453916716625095  1.0000
  O   O1        1.0  0.10393093000000005  0.03561000499999998  0.5568523896860326  1.0000
  Sb  Sb1       1.0  0.7281926000000001  0.9460910849999999  0.5149510749891645  1.0000
  Sb  Sb2       1.0  0.05272746000000002  0.31154746499999997  0.5027998819974735  1.0000
  Sb  Sb3       1.0  0.3773867499999999  0.681461675  0.48633979117335996  1.0000
  Sb  Sb4       1.0  0.26145375000000004  0.9643899949999999  0.49538431997864724  1.0000
  Sb  Sb5       1.0  0.5792642  0.22952999499999996  0.5208659976488039  1.0000
  Sb  Sb6       1.0  0.91566434  0.6010929349999999  0.505203566215257  1.0000
  Sb  Sb7       1.0  0.7107200799999999  0.06241405499999998  0.47194239956919765  1.0000
  Sb  Sb8       1.0  0.04405342000000005  0.44336643499999995  0.4575450049415825  1.0000
  Sb  Sb9       1.0  0.3773867500000001  0.8243188149999998  0.44314761031396754  1.0000
  Sb  Sb10      1.0  0.28927992  0.11300021499999999  0.4498615680351615  1.0000
  Sb  Sb11      1.0  0.6226132499999999  0.35109545499999995  0.4786563572903916  1.0000
  Sb  Sb12      1.0  0.9559465800000001  0.732047835  0.4642589626627765  1.0000
