data_image0
_chemical_formula_structural       CORe2Os6Re2Os6
_chemical_formula_sum              "C1 O1 Re4 Os12"
_cell_length_a       5.54182099
_cell_length_b       5.5418209920099795
_cell_length_c       100.61188228
_cell_angle_alpha    90.0
_cell_angle_beta     90.0
_cell_angle_gamma    120.0000000476933

_space_group_name_H-M_alt    "P 1"
_space_group_IT_number       1

loop_
  _space_group_symop_operation_xyz
  'x, y, z'

loop_
  _atom_site_type_symbol
  _atom_site_label
  _atom_site_symmetry_multiplicity
  _atom_site_fract_x
  _atom_site_fract_y
  _atom_site_fract_z
  _atom_site_occupancy
  C   C1        1.0  0.7207907399999999  0.8464486099999999  0.5337900982936163  1.0000
  O   O1        1.0  0.6686447399999998  0.82036923  0.5455631909207985  1.0000
  Re  Re1       1.0  0.33372579999999985  0.65291727  0.47616946059826953  1.0000
  Re  Re2       1.0  0.66705914  0.31958392999999996  0.4544368090792015  1.0000
  Os  Os1       1.0  0.1676932599999999  0.32085218  0.4544368090792015  1.0000
  Os  Os2       1.0  0.6657908899999999  0.81894981  0.4544368090792015  1.0000
  Os  Os3       1.0  0.1676932599999999  0.81894981  0.4544368090792015  1.0000
  Os  Os4       1.0  0.8330916799999998  0.65164902  0.47616946059826953  1.0000
  Os  Os5       1.0  0.33499404999999993  0.15355139  0.47616946059826953  1.0000
  Os  Os6       1.0  0.8330916799999998  0.15355139  0.47616946059826953  1.0000
  Re  Re3       1.0  0.32047807999999994  0.6462947  0.5188133728399783  1.0000
  Re  Re4       1.0  0.6641092899999999  0.31810913999999996  0.4977039342374368  1.0000
  Os  Os7       1.0  0.1644855599999999  0.31721246999999997  0.4982100903093572  1.0000
  Os  Os8       1.0  0.6657323399999999  0.81891508  0.4978072386598867  1.0000
  Os  Os9       1.0  0.16448587999999992  0.81938287  0.4982100842242147  1.0000
  Os  Os10      1.0  0.83551444  0.64120204  0.5196709002554213  1.0000
  Os  Os11      1.0  0.3388427199999999  0.15547497999999998  0.5187404515342658  1.0000
  Os  Os12      1.0  0.8355098599999997  0.16641709999999998  0.5196709154682777  1.0000
