data_image0
_chemical_formula_structural       In12Co4CO
_chemical_formula_sum              "In12 Co4 C1 O1"
_cell_length_a       6.95804403
_cell_length_b       6.95804403
_cell_length_c       98.82237
_cell_angle_alpha    90.0
_cell_angle_beta     90.0
_cell_angle_gamma    90.0

_space_group_name_H-M_alt    "P 1"
_space_group_IT_number       1

loop_
  _space_group_symop_operation_xyz
  'x, y, z'

loop_
  _atom_site_type_symbol
  _atom_site_label
  _atom_site_symmetry_multiplicity
  _atom_site_fract_x
  _atom_site_fract_y
  _atom_site_fract_z
  _atom_site_occupancy
  In  In1       1.0  0.5660612299999999  0.01583527000000001  0.5184722680355586  1.0000
  In  In2       1.0  0.56373924  0.01598456000000001  0.47858671326433727  1.0000
  In  In3       1.0  0.06373923999999997  0.5159845599999999  0.47858671326433727  1.0000
  In  In4       1.0  0.06377801999999998  0.51391679  0.5184484599639337  1.0000
  In  In5       1.0  0.7179081899999998  0.6701535099999998  0.46078720626779995  1.0000
  In  In6       1.0  0.9007723499999999  0.17878266  0.4971498139200906  1.0000
  In  In7       1.0  0.22863343999999997  0.8512163999999999  0.497191512315291  1.0000
  In  In8       1.0  0.21790818999999997  0.86181561  0.4599289257232107  1.0000
  In  In9       1.0  0.90957029  0.17015351  0.4599289257232107  1.0000
  In  In10      1.0  0.4095702899999999  0.3618156099999999  0.46078720626779995  1.0000
  In  In11      1.0  0.7236294299999999  0.6755426299999999  0.4966178057455285  1.0000
  In  In12      1.0  0.40439698999999996  0.35599568  0.49661017887951125  1.0000
  Co  Co1       1.0  0.9362607599999999  0.8856615699999999  0.5137116920143318  1.0000
  Co  Co2       1.0  0.7147722599999999  0.3649515399999999  0.47858671326433727  1.0000
  Co  Co3       1.0  0.4127062199999999  0.6670175799999999  0.47858671326433727  1.0000
  Co  Co4       1.0  0.19396787  0.14316479  0.5137396387180326  1.0000
  C   C1        1.0  0.07432235999999998  0.005009700000000008  0.5279480788699416  1.0000
  O   O1        1.0  0.08428381999999997  0.9949902999999999  0.5400710742767892  1.0000
