data_image0
_chemical_formula_structural       COFe6Re2Fe6Re2Fe6Re2Fe6Re2
_chemical_formula_sum              "C1 O1 Fe24 Re8"
_cell_length_a       5.11153962574118
_cell_length_b       8.14655146
_cell_length_c       105.78077737000001
_cell_angle_alpha    90.0
_cell_angle_beta     119.99999996284552
_cell_angle_gamma    90.0

_space_group_name_H-M_alt    "P 1"
_space_group_IT_number       1

loop_
  _space_group_symop_operation_xyz
  'x, y, z'

loop_
  _atom_site_type_symbol
  _atom_site_label
  _atom_site_symmetry_multiplicity
  _atom_site_fract_x
  _atom_site_fract_y
  _atom_site_fract_z
  _atom_site_occupancy
  C   C1        1.0  0.4671447799999999  0.12439972000000003  0.5398547558173818  1.0000
  O   O1        1.0  0.57730356  0.12439557000000001  0.552805668270836  1.0000
  Fe  Fe1       1.0  0.33098062  0.12430456000000001  0.4711576361508323  1.0000
  Fe  Fe2       1.0  0.8432545499999999  0.12430456000000001  0.4475897338120999  1.0000
  Fe  Fe3       1.0  0.8432545499999999  0.12430456000000001  0.4711576361508323  1.0000
  Fe  Fe4       1.0  0.6806792  0.37430456000000006  0.455445701258344  1.0000
  Fe  Fe5       1.0  0.16840527000000002  0.37430456000000006  0.4790136035970764  1.0000
  Fe  Fe6       1.0  0.16840527000000002  0.37430456000000006  0.455445701258344  1.0000
  Re  Re1       1.0  0.67249658  0.37430456000000006  0.47940900568001216  1.0000
  Re  Re2       1.0  0.33916324  0.12430456000000001  0.447194331729164  1.0000
  Fe  Fe7       1.0  0.34476911  0.12429492  0.5207915519169889  1.0000
  Fe  Fe8       1.0  0.8432545499999999  0.12430456000000001  0.4959117413558313  1.0000
  Fe  Fe9       1.0  0.8440559599999998  0.12429537000000002  0.5193242294843532  1.0000
  Fe  Fe10      1.0  0.67881454  0.37408576  0.5037851255036028  1.0000
  Fe  Fe11      1.0  0.15588766  0.37661246000000004  0.5264752957656945  1.0000
  Fe  Fe12      1.0  0.17399737  0.3728972  0.5040532290537595  1.0000
  Re  Re3       1.0  0.6663916  0.38056756  0.5264057507310467  1.0000
  Re  Re4       1.0  0.33916324  0.12430456000000001  0.49551633927289557  1.0000
  Fe  Fe13      1.0  0.33098062  0.62430456  0.4711576361508323  1.0000
  Fe  Fe14      1.0  0.8432545499999999  0.62430456  0.4475897338120999  1.0000
  Fe  Fe15      1.0  0.8432545499999999  0.62430456  0.4711576361508323  1.0000
  Fe  Fe16      1.0  0.6806792  0.87430456  0.455445701258344  1.0000
  Fe  Fe17      1.0  0.16840527000000002  0.87430456  0.4790136035970764  1.0000
  Fe  Fe18      1.0  0.16840527000000002  0.87430456  0.455445701258344  1.0000
  Re  Re5       1.0  0.67249658  0.87430456  0.47940900568001216  1.0000
  Re  Re6       1.0  0.33916324  0.62430456  0.447194331729164  1.0000
  Fe  Fe19      1.0  0.33227833  0.6242993199999999  0.5194023526419518  1.0000
  Fe  Fe20      1.0  0.8432545499999999  0.62430456  0.4959117413558313  1.0000
  Fe  Fe21      1.0  0.8441123399999999  0.62429743  0.5191598244812392  1.0000
  Fe  Fe22      1.0  0.6788356799999998  0.87451767  0.5037839957350438  1.0000
  Fe  Fe23      1.0  0.15592281000000002  0.87197809  0.5264789353793755  1.0000
  Fe  Fe24      1.0  0.17393407  0.8757050800000001  0.5040511927643209  1.0000
  Re  Re7       1.0  0.66640099  0.8680266800000002  0.526407773490323  1.0000
  Re  Re8       1.0  0.33916324  0.62430456  0.49551633927289557  1.0000
