data_image0
_chemical_formula_structural       COZn16Cu8Au8
_chemical_formula_sum              "C1 O1 Zn16 Cu8 Au8"
_cell_length_a       7.234690550230616
_cell_length_b       10.26947298443597
_cell_length_c       104.6170502
_cell_angle_alpha    77.72325567328
_cell_angle_beta     100.01412035401091
_cell_angle_gamma    56.08625307258877

_space_group_name_H-M_alt    "P 1"
_space_group_IT_number       1

loop_
  _space_group_symop_operation_xyz
  'x, y, z'

loop_
  _atom_site_type_symbol
  _atom_site_label
  _atom_site_symmetry_multiplicity
  _atom_site_fract_x
  _atom_site_fract_y
  _atom_site_fract_z
  _atom_site_occupancy
  C   C1        1.0  0.98552661  0.13082593999999992  0.5410616381275934  1.0000
  O   O1        1.0  0.95958276  0.15196776999999986  0.551492523942769  1.0000
  Zn  Zn1       1.0  0.7644733899999998  0.30112021  0.45348520873837267  1.0000
  Zn  Zn2       1.0  0.5332318599999999  0.013897249999999904  0.5196734124160634  1.0000
  Zn  Zn3       1.0  0.014473390000000003  0.5511202099999999  0.47416602160170457  1.0000
  Zn  Zn4       1.0  0.26447339  0.8011202099999997  0.4948468344650364  1.0000
  Zn  Zn5       1.0  0.39004572  0.4259294299999999  0.46380983157366124  1.0000
  Zn  Zn6       1.0  0.14323139  0.1755581899999999  0.5259516439511628  1.0000
  Zn  Zn7       1.0  0.6400457199999999  0.6759294299999998  0.48449064443699313  1.0000
  Zn  Zn8       1.0  0.88449527  0.9185382699999995  0.5067237359513364  1.0000
  Zn  Zn9       1.0  0.8307942500000001  0.2318441899999999  0.5003592439185514  1.0000
  Zn  Zn10      1.0  0.583293  0.9823005999999997  0.47985900267742193  1.0000
  Zn  Zn11      1.0  0.07044999  0.4874671399999999  0.5206064413513455  1.0000
  Zn  Zn12      1.0  0.33329299999999995  0.7323005999999996  0.4591781898140899  1.0000
  Zn  Zn13      1.0  0.20886533  0.10710981999999986  0.49018362551271066  1.0000
  Zn  Zn14      1.0  0.95886533  0.85710982  0.46950281264937865  1.0000
  Zn  Zn15      1.0  0.47021063999999996  0.34797541999999987  0.5121142278768595  1.0000
  Zn  Zn16      1.0  0.70886533  0.6071098199999998  0.44882199978604675  1.0000
  Cu  Cu1       1.0  0.7686571  0.4221272799999999  0.47448054533052025  1.0000
  Cu  Cu2       1.0  0.5186571  0.1721272799999999  0.45379973246718835  1.0000
  Cu  Cu3       1.0  0.018657100000000003  0.6721272799999998  0.49516135819385215  1.0000
  Cu  Cu4       1.0  0.26246689  0.9172521099999997  0.515508108096375  1.0000
  Cu  Cu5       1.0  0.45468162  0.23610274999999983  0.48986910178389487  1.0000
  Cu  Cu6       1.0  0.20468161999999998  0.9861027499999998  0.46918828892056297  1.0000
  Cu  Cu7       1.0  0.70926118  0.4866157999999999  0.510136520088274  1.0000
  Cu  Cu8       1.0  0.95468162  0.7361027499999997  0.44850747605723096  1.0000
  Au  Au1       1.0  0.8256320899999998  0.11515228999999992  0.47919370258207356  1.0000
  Au  Au2       1.0  0.5756320899999999  0.8651522899999998  0.45851288971874166  1.0000
  Au  Au3       1.0  0.09152877000000001  0.3557568699999999  0.49994428754461123  1.0000
  Au  Au4       1.0  0.31948895  0.6112260499999999  0.5192941991046112  1.0000
  Au  Au5       1.0  0.39770663  0.5430777399999998  0.4851559445323415  1.0000
  Au  Au6       1.0  0.14770663  0.29307773999999986  0.46447513166900956  1.0000
  Au  Au7       1.0  0.6428721099999999  0.7912061899999997  0.5064577045925226  1.0000
  Au  Au8       1.0  0.8804312299999999  0.0412913399999999  0.5262613895849746  1.0000
