data_image0
_chemical_formula_structural       CONi40
_chemical_formula_sum              "C1 O1 Ni40"
_cell_length_a       5.01325844
_cell_length_b       7.519887652738954
_cell_length_c       105.53760256000001
_cell_angle_alpha    94.04469124485112
_cell_angle_beta     90.0
_cell_angle_gamma    90.0

_space_group_name_H-M_alt    "P 1"
_space_group_IT_number       1

loop_
  _space_group_symop_operation_xyz
  'x, y, z'

loop_
  _atom_site_type_symbol
  _atom_site_label
  _atom_site_symmetry_multiplicity
  _atom_site_fract_x
  _atom_site_fract_y
  _atom_site_fract_z
  _atom_site_occupancy
  C   C1        1.0  0.379770475  0.6406327799999999  0.5504226915840681  1.0000
  O   O1        1.0  0.38052964499999997  0.6113020699999999  0.5614754838780582  1.0000
  Ni  Ni1       1.0  0.129074365  0.76533389  0.5399944782565644  1.0000
  Ni  Ni2       1.0  0.125826645  0.2088831  0.5284551727418334  1.0000
  Ni  Ni3       1.0  0.12150848499999999  0.5045831599999999  0.4946460631289941  1.0000
  Ni  Ni4       1.0  0.124058615  0.63565098  0.5170972363602507  1.0000
  Ni  Ni5       1.0  0.12150848499999999  0.07124981999999998  0.5058703752242389  1.0000
  Ni  Ni6       1.0  0.374463785  0.9205356299999999  0.5225096950991701  1.0000
  Ni  Ni7       1.0  0.371508485  0.35458315999999995  0.5114825279045685  1.0000
  Ni  Ni8       1.0  0.376898235  0.48420328999999995  0.5348896318309737  1.0000
  Ni  Ni9       1.0  0.371508485  0.78791649  0.5002582191766165  1.0000
  Ni  Ni10      1.0  0.378474165  0.05089224999999998  0.5439080202094441  1.0000
  Ni  Ni11      1.0  0.12150848499999999  0.93791649  0.48342175440104224  1.0000
  Ni  Ni12      1.0  0.12150848499999999  0.37124981999999995  0.47219744567309035  1.0000
  Ni  Ni13      1.0  0.12150848499999999  0.67124982  0.4385245161219418  1.0000
  Ni  Ni14      1.0  0.12150848499999999  0.80458316  0.46097313357784553  1.0000
  Ni  Ni15      1.0  0.12150848499999999  0.23791648999999998  0.4497488248498936  1.0000
  Ni  Ni16      1.0  0.371508485  0.08791648999999997  0.4665852896254679  1.0000
  Ni  Ni17      1.0  0.371508485  0.52124982  0.45536098089751603  1.0000
  Ni  Ni18      1.0  0.371508485  0.6545831599999999  0.47780959835341974  1.0000
  Ni  Ni19      1.0  0.371508485  0.95458316  0.4441366688022712  1.0000
  Ni  Ni20      1.0  0.371508485  0.22124981999999999  0.4890339104486646  1.0000
  Ni  Ni21      1.0  0.626957085  0.76551786  0.5399707220047661  1.0000
  Ni  Ni22      1.0  0.626291215  0.20897090999999998  0.5284491486547367  1.0000
  Ni  Ni23      1.0  0.621508485  0.5045831599999999  0.4946460631289941  1.0000
  Ni  Ni24      1.0  0.622622285  0.6355442899999999  0.5171044625709325  1.0000
  Ni  Ni25      1.0  0.621508485  0.07124981999999998  0.5058703752242389  1.0000
  Ni  Ni26      1.0  0.8746150550000001  0.91837068  0.5226005311939272  1.0000
  Ni  Ni27      1.0  0.8715084850000001  0.35458315999999995  0.5114825279045685  1.0000
  Ni  Ni28      1.0  0.876852575  0.48568079000000003  0.5337123420315417  1.0000
  Ni  Ni29      1.0  0.8715084850000001  0.78791649  0.5002582191766165  1.0000
  Ni  Ni30      1.0  0.878491515  0.045416839999999986  0.5439019153073164  1.0000
  Ni  Ni31      1.0  0.621508485  0.93791649  0.48342175440104224  1.0000
  Ni  Ni32      1.0  0.621508485  0.37124981999999995  0.47219744567309035  1.0000
  Ni  Ni33      1.0  0.621508485  0.67124982  0.4385245161219418  1.0000
  Ni  Ni34      1.0  0.621508485  0.80458316  0.46097313357784553  1.0000
  Ni  Ni35      1.0  0.621508485  0.23791648999999998  0.4497488248498936  1.0000
  Ni  Ni36      1.0  0.8715084850000001  0.08791648999999997  0.4665852896254679  1.0000
  Ni  Ni37      1.0  0.8715084850000001  0.52124982  0.45536098089751603  1.0000
  Ni  Ni38      1.0  0.8715084850000001  0.6545831599999999  0.47780959835341974  1.0000
  Ni  Ni39      1.0  0.8715084850000001  0.95458316  0.4441366688022712  1.0000
  Ni  Ni40      1.0  0.8715084850000001  0.22124981999999999  0.4890339104486646  1.0000
