data_image0
_chemical_formula_structural       CORh2Zn26
_chemical_formula_sum              "C1 O1 Rh2 Zn26"
_cell_length_a       6.752082446143593
_cell_length_b       7.809732972285134
_cell_length_c       103.72562639
_cell_angle_alpha    88.36478492462055
_cell_angle_beta     86.54230917552651
_cell_angle_gamma    78.88470418782867

_space_group_name_H-M_alt    "P 1"
_space_group_IT_number       1

loop_
  _space_group_symop_operation_xyz
  'x, y, z'

loop_
  _atom_site_type_symbol
  _atom_site_label
  _atom_site_symmetry_multiplicity
  _atom_site_fract_x
  _atom_site_fract_y
  _atom_site_fract_z
  _atom_site_occupancy
  C   C1        1.0  0.8913321649999999  0.7108165249999999  0.5363538061062351  1.0000
  O   O1        1.0  0.875390495  0.7216370750000001  0.5476836200454693  1.0000
  Rh  Rh1       1.0  0.19378728499999998  0.315142175  0.4751128636312997  1.0000
  Rh  Rh2       1.0  0.9189812849999999  0.6876075949999999  0.5184244577353334  1.0000
  Zn  Zn1       1.0  0.318787285  0.12764217500000002  0.4547914471912616  1.0000
  Zn  Zn2       1.0  0.06878728499999999  0.502642175  0.4954342800713379  1.0000
  Zn  Zn3       1.0  0.26325482499999997  0.468105665  0.5216093731825879  1.0000
  Zn  Zn4       1.0  0.564839375  0.10946096500000001  0.47682910966959974  1.0000
  Zn  Zn5       1.0  0.27507935499999997  0.143869935  0.49790934405664206  1.0000
  Zn  Zn6       1.0  0.525079355  0.7688699349999999  0.45726651117656575  1.0000
  Zn  Zn7       1.0  0.564344775  0.9100270249999999  0.5133800806609893  1.0000
  Zn  Zn8       1.0  0.8227352049999999  0.5208233950000001  0.47339661434157304  1.0000
  Zn  Zn9       1.0  0.11249521499999998  0.48641442500000004  0.45231637995453067  1.0000
  Zn  Zn10      1.0  0.862495215  0.8614144249999999  0.49295921283460703  1.0000
  Zn  Zn11      1.0  0.669879325  0.5800693949999999  0.5021744744704633  1.0000
  Zn  Zn12      1.0  0.9086325049999999  0.20352984500000001  0.4627202656236645  1.0000
  Zn  Zn13      1.0  0.20585648499999995  0.654325835  0.4727068306847856  1.0000
  Zn  Zn14      1.0  0.9283390449999999  0.024041475000000014  0.5150562268546566  1.0000
  Zn  Zn15      1.0  0.245650415  0.8086353249999999  0.5268027176194306  1.0000
  Zn  Zn16      1.0  0.47894207499999997  0.426754505  0.48750545838750836  1.0000
  Zn  Zn17      1.0  0.18171809499999997  0.9759585249999999  0.4775188965778138  1.0000
  Zn  Zn18      1.0  0.9312127150000001  0.34581280500000006  0.5177978623036813  1.0000
  Zn  Zn19      1.0  0.24495288499999993  0.7735467449999999  0.5012835608137455  1.0000
  Zn  Zn20      1.0  0.506360305  0.40613765500000004  0.4607040006958969  1.0000
  Zn  Zn21      1.0  0.577478225  0.5810902349999999  0.5268868938034652  1.0000
  Zn  Zn22      1.0  0.881214275  0.224146695  0.4895217233152758  1.0000
  Zn  Zn23      1.0  0.535372695  0.7716002750000001  0.4825828667490328  1.0000
  Zn  Zn24      1.0  0.2630329249999999  0.131668625  0.5243229390655123  1.0000
  Zn  Zn25      1.0  0.8522018850000002  0.8586840849999999  0.46764286051356674  1.0000
  Zn  Zn26      1.0  0.583931355  0.25412246499999996  0.5116132326700402  1.0000
