data_image0
_chemical_formula_structural       COAu3Pd6Zn3
_chemical_formula_sum              "C1 O1 Au3 Pd6 Zn3"
_cell_length_a       4.51009599
_cell_length_b       4.510095991767058
_cell_length_c       103.14230162
_cell_angle_alpha    90.0
_cell_angle_beta     90.0
_cell_angle_gamma    120.00000006038532

_space_group_name_H-M_alt    "P 1"
_space_group_IT_number       1

loop_
  _space_group_symop_operation_xyz
  'x, y, z'

loop_
  _atom_site_type_symbol
  _atom_site_label
  _atom_site_symmetry_multiplicity
  _atom_site_fract_x
  _atom_site_fract_y
  _atom_site_fract_z
  _atom_site_occupancy
  C   C1        1.0  0.34973576500000003  0.76173862  0.5525537307517557  1.0000
  O   O1        1.0  0.24289555500000004  0.7080501100000001  0.56304640585006  1.0000
  Au  Au1       1.0  0.17941536500000002  0.17195519000000004  0.4726564809685809  1.0000
  Au  Au2       1.0  0.8460820350000001  0.50528852  0.43695359414993984  1.0000
  Au  Au3       1.0  0.507683525  0.8364204900000002  0.5085925122818544  1.0000
  Pd  Pd1       1.0  0.4662684550000001  0.8195773500000001  0.5344251774199624  1.0000
  Pd  Pd2       1.0  0.17941536500000002  0.17195519000000004  0.4994336484925066  1.0000
  Pd  Pd3       1.0  0.8460820350000001  0.50528852  0.4637307616738655  1.0000
  Pd  Pd4       1.0  0.8309141250000001  0.49896833  0.5178681523605186  1.0000
  Pd  Pd5       1.0  0.512748695  0.83862186  0.4815822034765561  1.0000
  Pd  Pd6       1.0  0.17941536500000002  0.17195519000000004  0.445879316657915  1.0000
  Zn  Zn1       1.0  0.512748695  0.83862186  0.45480503916589027  1.0000
  Zn  Zn2       1.0  0.15391796500000005  0.16137814000000006  0.5261208126081511  1.0000
  Zn  Zn3       1.0  0.8460820350000001  0.50528852  0.49050792598453136  1.0000
