data_image0
_chemical_formula_structural       COSi8Mo4Si8Mo4
_chemical_formula_sum              "C1 O1 Si16 Mo8"
_cell_length_a       8.524264759878022
_cell_length_b       4.56463298
_cell_length_c       101.95243084
_cell_angle_alpha    90.0
_cell_angle_beta     74.46996397369003
_cell_angle_gamma    74.46996397369003

_space_group_name_H-M_alt    "P 1"
_space_group_IT_number       1

loop_
  _space_group_symop_operation_xyz
  'x, y, z'

loop_
  _atom_site_type_symbol
  _atom_site_label
  _atom_site_symmetry_multiplicity
  _atom_site_fract_x
  _atom_site_fract_y
  _atom_site_fract_z
  _atom_site_occupancy
  C   C1        1.0  0.5404341349999999  0.2296341549999998  0.5455193082473002  1.0000
  O   O1        1.0  0.5122113650000001  0.24351468499999987  0.5574420790199489  1.0000
  Si  Si1       1.0  0.407143465  0.2964768549999999  0.5070109217122544  1.0000
  Si  Si2       1.0  0.425265225  0.7865567149999999  0.5261232849842064  1.0000
  Si  Si3       1.0  0.592102635  0.20379622499999983  0.526525208460369  1.0000
  Si  Si4       1.0  0.587049905  0.7065478649999999  0.5018303981345125  1.0000
  Si  Si5       1.0  0.9148500749999999  0.0425185149999999  0.5169225237479192  1.0000
  Si  Si6       1.0  0.914134055  0.5429894250000001  0.49484081775527106  1.0000
  Si  Si7       1.0  0.08514992499999999  0.957481485  0.4910124405452751  1.0000
  Si  Si8       1.0  0.08581356500000001  0.45702574499999987  0.5132354390434272  1.0000
  Mo  Mo1       1.0  0.24964199499999998  0.3752354549999999  0.4873301070649327  1.0000
  Mo  Mo2       1.0  0.25276233499999995  0.8737124250000001  0.5092408818140925  1.0000
  Mo  Mo3       1.0  0.749911435  0.12517159499999986  0.4983296422752551  1.0000
  Mo  Mo4       1.0  0.750933875  0.624515635  0.5196590470831183  1.0000
  Si  Si9       1.0  0.41413405499999995  0.2929894249999998  0.4612616789751231  1.0000
  Si  Si10      1.0  0.41413405499999995  0.7929894249999999  0.4836477704505375  1.0000
  Si  Si11      1.0  0.585149925  0.2074814849999998  0.4798193963745943  1.0000
  Si  Si12      1.0  0.585149925  0.7074814850000001  0.4574333017651271  1.0000
  Si  Si13      1.0  0.914134055  0.0429894249999998  0.47245472627985674  1.0000
  Si  Si14      1.0  0.914134055  0.5429894250000001  0.4500686348044423  1.0000
  Si  Si15      1.0  0.08514992499999999  0.957481485  0.44624025759444635  1.0000
  Si  Si16      1.0  0.08514992499999999  0.4574814849999998  0.46862634906986067  1.0000
  Mo  Mo5       1.0  0.24964199499999998  0.3752354549999999  0.44255792098005103  1.0000
  Mo  Mo6       1.0  0.24964199499999998  0.875235455  0.4649440155895183  1.0000
  Mo  Mo7       1.0  0.749641995  0.12523545499999988  0.45375096828478473  1.0000
  Mo  Mo8       1.0  0.749641995  0.625235455  0.47613705976019904  1.0000
