data_image0
_chemical_formula_structural       CONi2Pt2Ni2Pt2Ni2Pt2Ni2Pt2
_chemical_formula_sum              "C1 O1 Ni8 Pt8"
_cell_length_a       5.46107738
_cell_length_b       4.55308188111696
_cell_length_c       101.8715732
_cell_angle_alpha    73.69857453368449
_cell_angle_beta     90.0
_cell_angle_gamma    90.0

_space_group_name_H-M_alt    "P 1"
_space_group_IT_number       1

loop_
  _space_group_symop_operation_xyz
  'x, y, z'

loop_
  _atom_site_type_symbol
  _atom_site_label
  _atom_site_symmetry_multiplicity
  _atom_site_fract_x
  _atom_site_fract_y
  _atom_site_fract_z
  _atom_site_occupancy
  C   C1        1.0  0.6248772699999999  0.781122155  0.5344270168737258  1.0000
  O   O1        1.0  0.62502854  0.689110655  0.546646690303877  1.0000
  Ni  Ni1       1.0  0.37499999999999994  0.21887784499999996  0.453353309696123  1.0000
  Ni  Ni2       1.0  0.37499999999999994  0.718877845  0.47570047511053054  1.0000
  Pt  Pt1       1.0  0.12499999999999999  0.21887784499999996  0.4757004751105305  1.0000
  Pt  Pt2       1.0  0.12499999999999999  0.718877845  0.453353309696123  1.0000
  Ni  Ni3       1.0  0.37600198999999995  0.22881888499999997  0.49785714300343964  1.0000
  Ni  Ni4       1.0  0.38201157  0.727370745  0.520838554505741  1.0000
  Pt  Pt3       1.0  0.12500632  0.23435858499999998  0.5199702669967246  1.0000
  Pt  Pt4       1.0  0.12502327  0.732975135  0.4981143110595688  1.0000
  Ni  Ni5       1.0  0.875  0.21887784499999996  0.453353309696123  1.0000
  Ni  Ni6       1.0  0.875  0.718877845  0.47570047511053054  1.0000
  Pt  Pt5       1.0  0.625  0.21887784499999996  0.4757004751105305  1.0000
  Pt  Pt6       1.0  0.625  0.718877845  0.453353309696123  1.0000
  Ni  Ni7       1.0  0.87399865  0.22879039499999998  0.4978555912162422  1.0000
  Ni  Ni8       1.0  0.8680069  0.727424615  0.5208379757141453  1.0000
  Pt  Pt7       1.0  0.62503091  0.22198777499999997  0.5208103470191042  1.0000
  Pt  Pt8       1.0  0.6249825  0.7250175249999999  0.49783625957694216  1.0000
