data_image0
_chemical_formula_structural       COGa60Pd12
_chemical_formula_sum              "C1 O1 Ga60 Pd12"
_cell_length_a       10.1942096
_cell_length_b       14.696920993182282
_cell_length_c       107.18059594
_cell_angle_alpha    71.56505118940609
_cell_angle_beta     90.0
_cell_angle_gamma    90.0

_space_group_name_H-M_alt    "P 1"
_space_group_IT_number       1

loop_
  _space_group_symop_operation_xyz
  'x, y, z'

loop_
  _atom_site_type_symbol
  _atom_site_label
  _atom_site_symmetry_multiplicity
  _atom_site_fract_x
  _atom_site_fract_y
  _atom_site_fract_z
  _atom_site_occupancy
  C   C1        1.0  0.8124485749999999  0.7579592549999999  0.5394873217008294  1.0000
  O   O1        1.0  0.7825107849999998  0.719002795  0.5504098814420926  1.0000
  Ga  Ga1       1.0  0.06444452499999993  0.667512455  0.49716781038949787  1.0000
  Ga  Ga2       1.0  0.06444452499999993  0.33417911499999997  0.4682597525093274  1.0000
  Ga  Ga3       1.0  0.06573658499999993  0.991587535  0.5312145567497387  1.0000
  Ga  Ga4       1.0  0.5644445249999999  0.667512455  0.49716781038949787  1.0000
  Ga  Ga5       1.0  0.5644445249999999  0.33417911499999997  0.4682597525093274  1.0000
  Ga  Ga6       1.0  0.5644975449999998  0.999154215  0.528295146899834  1.0000
  Ga  Ga7       1.0  0.925003195  0.500845785  0.4700669733533422  1.0000
  Ga  Ga8       1.0  0.921005085  0.16839258499999998  0.5243958648555389  1.0000
  Ga  Ga9       1.0  0.925003195  0.8341791150000001  0.4989750312335126  1.0000
  Ga  Ga10      1.0  0.925003195  0.7369604949999999  0.4724753557861787  1.0000
  Ga  Ga11      1.0  0.9252359549999999  0.44176198499999997  0.5265975072570477  1.0000
  Ga  Ga12      1.0  0.925003195  0.07029382499999999  0.5013834136663491  1.0000
  Ga  Ga13      1.0  0.9253774349999999  0.633964575  0.5224347987902989  1.0000
  Ga  Ga14      1.0  0.925003195  0.264731075  0.49295220711264653  1.0000
  Ga  Ga15      1.0  0.925003195  0.9313977449999999  0.4640441492324761  1.0000
  Ga  Ga16      1.0  0.7038858549999999  0.598064415  0.47849817990704485  1.0000
  Ga  Ga17      1.0  0.7038858549999999  0.264731075  0.4495901185579073  1.0000
  Ga  Ga18      1.0  0.7005873549999999  0.9297918850000001  0.5080357547129846  1.0000
  Ga  Ga19      1.0  0.6988323349999999  0.731926855  0.5166562593315147  1.0000
  Ga  Ga20      1.0  0.7038858549999999  0.403627155  0.4869293864607474  1.0000
  Ga  Ga21      1.0  0.7038858549999999  0.07029382499999999  0.4580213251116099  1.0000
  Ga  Ga22      1.0  0.7038858549999999  0.8341791150000001  0.4556129426787734  1.0000
  Ga  Ga23      1.0  0.7014200349999998  0.5023019049999999  0.5132982298144941  1.0000
  Ga  Ga24      1.0  0.7038858549999999  0.16751245499999998  0.484521004027911  1.0000
  Ga  Ga25      1.0  0.7038858549999999  0.500845785  0.4519985009907438  1.0000
  Ga  Ga26      1.0  0.6972646149999998  0.168735005  0.5098905108129567  1.0000
  Ga  Ga27      1.0  0.7038858549999999  0.8341791150000001  0.4809065623398813  1.0000
  Ga  Ga28      1.0  0.935555475  0.848080995  0.5236636803799402  1.0000
  Ga  Ga29      1.0  0.925003195  0.500845785  0.49536058954548295  1.0000
  Ga  Ga30      1.0  0.925003195  0.16751245499999998  0.46645253166531253  1.0000
  Ga  Ga31      1.0  0.5644445249999999  0.667512455  0.4538057218347587  1.0000
  Ga  Ga32      1.0  0.564803155  0.329622865  0.5129036417465801  1.0000
  Ga  Ga33      1.0  0.5644445249999999  0.0008457849999999824  0.48271378318389613  1.0000
  Ga  Ga34      1.0  0.06444452499999993  0.667512455  0.4538057218347587  1.0000
  Ga  Ga35      1.0  0.06621097499999994  0.33368018499999996  0.5146030228108428  1.0000
  Ga  Ga36      1.0  0.06444452499999993  0.0008457849999999824  0.48271378318389613  1.0000
  Ga  Ga37      1.0  0.42500319499999994  0.8341791150000001  0.4556129426787734  1.0000
  Ga  Ga38      1.0  0.42729198499999993  0.501890435  0.5133090252400606  1.0000
  Ga  Ga39      1.0  0.42500319499999994  0.16751245499999998  0.484521004027911  1.0000
  Ga  Ga40      1.0  0.4309530849999999  0.735218185  0.5162607832080272  1.0000
  Ga  Ga41      1.0  0.42500319499999994  0.403627155  0.4869293864607474  1.0000
  Ga  Ga42      1.0  0.42500319499999994  0.07029382499999999  0.4580213251116099  1.0000
  Ga  Ga43      1.0  0.42500319499999994  0.598064415  0.47849817990704485  1.0000
  Ga  Ga44      1.0  0.42500319499999994  0.264731075  0.4495901185579073  1.0000
  Ga  Ga45      1.0  0.42875623499999993  0.930700105  0.507826177066582  1.0000
  Ga  Ga46      1.0  0.20075813499999995  0.645044575  0.5228492501637381  1.0000
  Ga  Ga47      1.0  0.20388585499999992  0.264731075  0.49295220711264653  1.0000
  Ga  Ga48      1.0  0.20388585499999992  0.9313977449999999  0.4640441492324761  1.0000
  Ga  Ga49      1.0  0.20388585499999992  0.7369604949999999  0.4724753557861787  1.0000
  Ga  Ga50      1.0  0.20105379499999995  0.450870885  0.5265233650235531  1.0000
  Ga  Ga51      1.0  0.20388585499999992  0.07029382499999999  0.5013834136663491  1.0000
  Ga  Ga52      1.0  0.20388585499999992  0.500845785  0.4700669733533422  1.0000
  Ga  Ga53      1.0  0.2093018249999999  0.16696981500000002  0.5244692057576368  1.0000
  Ga  Ga54      1.0  0.20388585499999992  0.8341791150000001  0.4989750312335126  1.0000
  Ga  Ga55      1.0  0.21527871499999993  0.837058795  0.5252777734194664  1.0000
  Ga  Ga56      1.0  0.20388585499999992  0.500845785  0.49536058954548295  1.0000
  Ga  Ga57      1.0  0.20388585499999992  0.16751245499999998  0.46645253166531253  1.0000
  Ga  Ga58      1.0  0.42500319499999994  0.500845785  0.4519985009907438  1.0000
  Ga  Ga59      1.0  0.43089746499999987  0.16738758499999998  0.5099977678062387  1.0000
  Ga  Ga60      1.0  0.42500319499999994  0.8341791150000001  0.4809065623398813  1.0000
  Pd  Pd1       1.0  0.8144445249999999  0.667512455  0.49716781038949787  1.0000
  Pd  Pd2       1.0  0.8144445249999999  0.33417911499999997  0.4682597525093274  1.0000
  Pd  Pd3       1.0  0.816477115  0.009063984999999983  0.5241453950251455  1.0000
  Pd  Pd4       1.0  0.8144445249999999  0.667512455  0.4538057218347587  1.0000
  Pd  Pd5       1.0  0.815532615  0.33761663500000005  0.5107133012398323  1.0000
  Pd  Pd6       1.0  0.8144445249999999  0.0008457849999999824  0.48271378318389613  1.0000
  Pd  Pd7       1.0  0.3144445249999999  0.667512455  0.4538057218347587  1.0000
  Pd  Pd8       1.0  0.31446632499999994  0.33732551499999996  0.510617536934501  1.0000
  Pd  Pd9       1.0  0.3144445249999999  0.0008457849999999824  0.48271378318389613  1.0000
  Pd  Pd10      1.0  0.3144445249999999  0.667512455  0.49716781038949787  1.0000
  Pd  Pd11      1.0  0.3144445249999999  0.33417911499999997  0.4682597525093274  1.0000
  Pd  Pd12      1.0  0.3123107949999999  0.004624534999999982  0.5243779198888113  1.0000
