data_image0
_chemical_formula_structural       COAl20Pt20
_chemical_formula_sum              "C1 O1 Al20 Pt20"
_cell_length_a       6.98825339
_cell_length_b       11.049398788137779
_cell_length_c       35.76469001
_cell_angle_alpha    104.96321743614754
_cell_angle_beta     90.0
_cell_angle_gamma    71.56505120223194

_space_group_name_H-M_alt    "P 1"
_space_group_IT_number       1

loop_
  _space_group_symop_operation_xyz
  'x, y, z'

loop_
  _atom_site_type_symbol
  _atom_site_label
  _atom_site_symmetry_multiplicity
  _atom_site_fract_x
  _atom_site_fract_y
  _atom_site_fract_z
  _atom_site_occupancy
  C   C1        1.0  0.8409064949999999  0.9332276650000001  0.6205815448956037  1.0000
  O   O1        1.0  0.829978755  0.9407616649999999  0.6543367140127082  1.0000
  Al  Al1       1.0  0.8035859050000002  0.410681835  0.42005265029922273  1.0000
  Al  Al2       1.0  0.6035859049999999  0.8106818350000001  0.37219076476291907  1.0000
  Al  Al3       1.0  0.0035859050000000177  0.010681834999999957  0.46791453583552634  1.0000
  Al  Al4       1.0  0.40621652500000005  0.21244863499999994  0.5613875730236575  1.0000
  Al  Al5       1.0  0.20316467500000002  0.606985235  0.5136412739409241  1.0000
  Al  Al6       1.0  0.5707011150000001  0.38267529499999997  0.5306058044007416  1.0000
  Al  Al7       1.0  0.365979185  0.785895275  0.4799821636280909  1.0000
  Al  Al8       1.0  0.7520416649999998  0.9893181650000001  0.5715584438647954  1.0000
  Al  Al9       1.0  0.165979185  0.18589527499999997  0.43212027809178727  1.0000
  Al  Al10      1.0  0.9659791849999999  0.5858952749999999  0.3842583925554838  1.0000
  Al  Al11      1.0  0.030492795000000024  0.27244321499999996  0.5224281322103859  1.0000
  Al  Al12      1.0  0.8283724649999998  0.673075115  0.47098252098791177  1.0000
  Al  Al13      1.0  0.247102115  0.860541565  0.5637178725066491  1.0000
  Al  Al14      1.0  0.6283724650000001  0.07307511499999997  0.4231206354516082  1.0000
  Al  Al15      1.0  0.42837246500000004  0.473075115  0.3752587499153046  1.0000
  Al  Al16      1.0  0.8097536550000002  0.578672145  0.5475866461911498  1.0000
  Al  Al17      1.0  0.6164060649999998  0.973075115  0.4949134637560636  1.0000
  Al  Al18      1.0  0.016406065000000025  0.17307511499999995  0.3513278071471529  1.0000
  Al  Al19      1.0  0.41640606500000005  0.37307511499999996  0.44705157821976005  1.0000
  Al  Al20      1.0  0.21640606500000012  0.7730751149999999  0.3991896926834564  1.0000
  Pt  Pt1       1.0  0.8035859050000002  0.410681835  0.3456632859872916  1.0000
  Pt  Pt2       1.0  0.609717445  0.809874915  0.5375358033865597  1.0000
  Pt  Pt3       1.0  0.0035859050000000177  0.010681834999999957  0.393525161951218  1.0000
  Pt  Pt4       1.0  0.40358590500000013  0.21068183499999996  0.4892489330238252  1.0000
  Pt  Pt5       1.0  0.2035859050000001  0.610681835  0.44138705705989867  1.0000
  Pt  Pt6       1.0  0.04163912499999998  0.43457538500000004  0.47675389859342143  1.0000
  Pt  Pt7       1.0  0.8416391249999999  0.834575385  0.4288920130571178  1.0000
  Pt  Pt8       1.0  0.247268405  0.03600664499999996  0.5294872338462498  1.0000
  Pt  Pt9       1.0  0.6416391250000001  0.23457538499999997  0.38103012752081433  1.0000
  Pt  Pt10      1.0  0.4320448450000001  0.624414485  0.5670408945023032  1.0000
  Pt  Pt11      1.0  0.579692355  0.548735055  0.4858603976792489  1.0000
  Pt  Pt12      1.0  0.3796923550000001  0.9487350549999999  0.4379985121429452  1.0000
  Pt  Pt13      1.0  0.7835102950000002  0.14821287499999997  0.5342218368596491  1.0000
  Pt  Pt14      1.0  0.17969235500000003  0.34873505499999996  0.3901366266066418  1.0000
  Pt  Pt15      1.0  0.996414095  0.748012445  0.5790456317772731  1.0000
  Pt  Pt16      1.0  0.7894262350000001  0.24873505499999998  0.46192945491109705  1.0000
  Pt  Pt17      1.0  0.5894262350000001  0.648735055  0.4140675693747935  1.0000
  Pt  Pt18      1.0  0.9918735049999999  0.8498524249999999  0.5082446166096553  1.0000
  Pt  Pt19      1.0  0.38942623500000006  0.04873505499999996  0.3662056838384899  1.0000
  Pt  Pt20      1.0  0.18534510500000004  0.447586735  0.5555129956205545  1.0000
