data_image0
_chemical_formula_structural       V6Au2V6Au2CO
_chemical_formula_sum              "V12 Au4 C1 O1"
_cell_length_a       4.88416795
_cell_length_b       4.88416795
_cell_length_c       104.18917565000001
_cell_angle_alpha    90.0
_cell_angle_beta     90.0
_cell_angle_gamma    90.0

_space_group_name_H-M_alt    "P 1"
_space_group_IT_number       1

loop_
  _space_group_symop_operation_xyz
  'x, y, z'

loop_
  _atom_site_type_symbol
  _atom_site_label
  _atom_site_symmetry_multiplicity
  _atom_site_fract_x
  _atom_site_fract_y
  _atom_site_fract_z
  _atom_site_occupancy
  V   V1        1.0  0.40865309499999997  0.133917625  0.4574481939931836  1.0000
  V   V2        1.0  0.908653095  0.133917625  0.4574481939931836  1.0000
  V   V3        1.0  0.158653095  0.633917625  0.4457287252046494  1.0000
  V   V4        1.0  0.158653095  0.633917625  0.4691676660631696  1.0000
  V   V5        1.0  0.658653095  0.38391762500000004  0.48088713813315553  1.0000
  V   V6        1.0  0.658653095  0.883917625  0.48088713813315553  1.0000
  Au  Au1       1.0  0.658653095  0.633917625  0.4574481939931836  1.0000
  Au  Au2       1.0  0.158653095  0.133917625  0.48088713813315553  1.0000
  V   V7        1.0  0.403953955  0.14366827499999998  0.5049263910628258  1.0000
  V   V8        1.0  0.8879638449999999  0.142671815  0.5042712393694311  1.0000
  V   V9        1.0  0.158653095  0.633917625  0.49260660692168984  1.0000
  V   V10       1.0  0.16982545500000001  0.617509675  0.5166140100803268  1.0000
  V   V11       1.0  0.597201965  0.369912635  0.5264345322534719  1.0000
  V   V12       1.0  0.592826805  0.858140165  0.5266989713270842  1.0000
  Au  Au3       1.0  0.660377165  0.640990425  0.5037798091499863  1.0000
  Au  Au4       1.0  0.09134690499999999  0.11608237500000002  0.5281536782811604  1.0000
  C   C1        1.0  0.485683145  0.713063055  0.5437768966536315  1.0000
  O   O1        1.0  0.429764565  0.641785885  0.5542712747953505  1.0000
