data_image0
_chemical_formula_structural       CORh8Sn4V4
_chemical_formula_sum              "C1 O1 Rh8 Sn4 V4"
_cell_length_a       4.69884213
_cell_length_b       4.698842136484118
_cell_length_c       104.8130878
_cell_angle_alpha    90.0
_cell_angle_beta     90.0
_cell_angle_gamma    103.74617633015572

_space_group_name_H-M_alt    "P 1"
_space_group_IT_number       1

loop_
  _space_group_symop_operation_xyz
  'x, y, z'

loop_
  _atom_site_type_symbol
  _atom_site_label
  _atom_site_symmetry_multiplicity
  _atom_site_fract_x
  _atom_site_fract_y
  _atom_site_fract_z
  _atom_site_occupancy
  C   C1        1.0  0.7663936450000002  0.69391038  0.5517145606248113  1.0000
  O   O1        1.0  0.7935149750000001  0.66677667  0.5627404584400906  1.0000
  Rh  Rh1       1.0  0.710116395  0.25021293999999994  0.4372595415599095  1.0000
  Rh  Rh2       1.0  0.21011639500000007  0.7502129399999999  0.46493824652748106  1.0000
  Rh  Rh3       1.0  0.21011639500000007  0.7502129399999999  0.4372595415599095  1.0000
  Rh  Rh4       1.0  0.710116395  0.25021293999999994  0.46493824652748106  1.0000
  Rh  Rh5       1.0  0.710116395  0.25021293999999994  0.4926169514950526  1.0000
  Rh  Rh6       1.0  0.21278931500000006  0.75289031  0.5202840579776307  1.0000
  Rh  Rh7       1.0  0.21011639500000007  0.7502129399999999  0.4926169514950526  1.0000
  Rh  Rh8       1.0  0.707015205  0.24710968999999994  0.5202781159130104  1.0000
  Sn  Sn1       1.0  0.21011639500000007  0.25021293999999994  0.47877760067198916  1.0000
  Sn  Sn2       1.0  0.7101163950000001  0.7502129399999999  0.4510988923829729  1.0000
  Sn  Sn3       1.0  0.20648502500000004  0.25383693999999996  0.5355587213186459  1.0000
  Sn  Sn4       1.0  0.710118175  0.75021395  0.5057933884504405  1.0000
  V   V1        1.0  0.21011639500000007  0.25021293999999994  0.4510988923829729  1.0000
  V   V2        1.0  0.7101163950000001  0.7502129399999999  0.47877760067198916  1.0000
  V   V3        1.0  0.21011643500000007  0.25021332999999996  0.5071818021688195  1.0000
  V   V4        1.0  0.7221145250000002  0.73836035  0.5330705938577299  1.0000
