data_image0
_chemical_formula_structural       CORh8Sn4V4
_chemical_formula_sum              "C1 O1 Rh8 Sn4 V4"
_cell_length_a       4.69884213
_cell_length_b       4.698842136484118
_cell_length_c       104.8130878
_cell_angle_alpha    90.0
_cell_angle_beta     90.0
_cell_angle_gamma    103.74617633015572

_space_group_name_H-M_alt    "P 1"
_space_group_IT_number       1

loop_
  _space_group_symop_operation_xyz
  'x, y, z'

loop_
  _atom_site_type_symbol
  _atom_site_label
  _atom_site_symmetry_multiplicity
  _atom_site_fract_x
  _atom_site_fract_y
  _atom_site_fract_z
  _atom_site_occupancy
  C   C1        1.0  0.500000595  0.7499942399999999  0.5517870494952984  1.0000
  O   O1        1.0  0.5000058050000001  0.7499995299999999  0.5629688824977134  1.0000
  Rh  Rh1       1.0  0.5000051150000001  0.25000088  0.4370311175022866  1.0000
  Rh  Rh2       1.0  5.115000000058401e-06  0.75000088  0.46470982246985815  1.0000
  Rh  Rh3       1.0  5.115000000058401e-06  0.75000088  0.4370311175022866  1.0000
  Rh  Rh4       1.0  0.5000051150000001  0.25000088  0.46470982246985815  1.0000
  Rh  Rh5       1.0  0.5000051150000001  0.25000088  0.49238852743742967  1.0000
  Rh  Rh6       1.0  1.1850000000518468e-06  0.75000391  0.5200559295285886  1.0000
  Rh  Rh7       1.0  5.115000000058401e-06  0.75000088  0.49238852743742967  1.0000
  Rh  Rh8       1.0  0.5000035050000001  0.24999608999999998  0.5200559826717042  1.0000
  Sn  Sn1       1.0  5.115000000070215e-06  0.25000088  0.47854917661436625  1.0000
  Sn  Sn2       1.0  0.5000051150000001  0.75000088  0.45087046832535005  1.0000
  Sn  Sn3       1.0  0.999998815  0.25000093  0.5353034865591708  1.0000
  Sn  Sn4       1.0  0.500006895  0.7500018899999998  0.5055649643928176  1.0000
  V   V1        1.0  5.115000000070215e-06  0.25000088  0.45087046832535005  1.0000
  V   V2        1.0  0.5000051150000001  0.75000088  0.47854917661436625  1.0000
  V   V3        1.0  5.15500000006409e-06  0.25000127  0.5069533781111966  1.0000
  V   V4        1.0  0.5000061250000001  0.7500015599999998  0.5328977608205357  1.0000
