data_image0
_chemical_formula_structural       COTi2Ga6Ti2Ga6Ti2Ga6Ti2Ga6
_chemical_formula_sum              "C1 O1 Ti8 Ga24"
_cell_length_a       7.6717086
_cell_length_b       7.6717086
_cell_length_c       105.54729807
_cell_angle_alpha    90.0
_cell_angle_beta     90.0
_cell_angle_gamma    90.0

_space_group_name_H-M_alt    "P 1"
_space_group_IT_number       1

loop_
  _space_group_symop_operation_xyz
  'x, y, z'

loop_
  _atom_site_type_symbol
  _atom_site_label
  _atom_site_symmetry_multiplicity
  _atom_site_fract_x
  _atom_site_fract_y
  _atom_site_fract_z
  _atom_site_occupancy
  C   C1        1.0  0.37199577500000003  0.24548250500000002  0.5341239676665814  1.0000
  O   O1        1.0  0.372446795  0.24592679500000003  0.5453742328931062  1.0000
  Ti  Ti1       1.0  0.25239509499999996  0.125882595  0.45462576710689384  1.0000
  Ti  Ti2       1.0  0.008440084999999979  0.378386375  0.4970307075210499  1.0000
  Ga  Ga1       1.0  0.9991611850000001  0.12151422500000002  0.519702468859354  1.0000
  Ga  Ga2       1.0  0.244579675  0.3939300250000001  0.5189107794496947  1.0000
  Ga  Ga3       1.0  0.002395094999999979  0.37588259500000004  0.45462576710689384  1.0000
  Ga  Ga4       1.0  0.25239509499999996  0.37588259500000004  0.475675156053843  1.0000
  Ga  Ga5       1.0  0.002395094999999979  0.125882595  0.475675156053843  1.0000
  Ga  Ga6       1.0  0.249553905  0.12303907500000001  0.4993543310434413  1.0000
  Ti  Ti3       1.0  0.25239509499999996  0.625882595  0.45462576710689384  1.0000
  Ti  Ti4       1.0  0.0008388149999999789  0.8743062950000001  0.4959986105143008  1.0000
  Ga  Ga7       1.0  0.998116425  0.632836785  0.5171437388179851  1.0000
  Ga  Ga8       1.0  0.248023315  0.8726567250000001  0.5197027382915325  1.0000
  Ga  Ga9       1.0  0.002395094999999979  0.8758825950000001  0.45462576710689384  1.0000
  Ga  Ga10      1.0  0.25239509499999996  0.8758825950000001  0.475675156053843  1.0000
  Ga  Ga11      1.0  0.002395094999999979  0.625882595  0.475675156053843  1.0000
  Ga  Ga12      1.0  0.254254975  0.6319896550000002  0.4967907343833479  1.0000
  Ti  Ti5       1.0  0.752395095  0.125882595  0.45462576710689384  1.0000
  Ti  Ti6       1.0  0.497408055  0.37088456500000005  0.4974316293384935  1.0000
  Ga  Ga13      1.0  0.520428705  0.11807238500000002  0.5189115506993056  1.0000
  Ga  Ga14      1.0  0.7564959749999999  0.378928715  0.5171027312404142  1.0000
  Ga  Ga15      1.0  0.502395095  0.37588259500000004  0.45462576710689384  1.0000
  Ga  Ga16      1.0  0.752395095  0.37588259500000004  0.475675156053843  1.0000
  Ga  Ga17      1.0  0.502395095  0.125882595  0.475675156053843  1.0000
  Ga  Ga18      1.0  0.7585178949999999  0.12771483500000003  0.4967910913809845  1.0000
  Ti  Ti7       1.0  0.752395095  0.625882595  0.45462576710689384  1.0000
  Ti  Ti8       1.0  0.504895055  0.881927615  0.4970302831653687  1.0000
  Ga  Ga19      1.0  0.505435215  0.6299997549999999  0.5171038359123462  1.0000
  Ga  Ga20      1.0  0.759348835  0.871602805  0.5171426543534666  1.0000
  Ga  Ga21      1.0  0.502395095  0.8758825950000001  0.45462576710689384  1.0000
  Ga  Ga22      1.0  0.752395095  0.8758825950000001  0.475675156053843  1.0000
  Ga  Ga23      1.0  0.502395095  0.625882595  0.475675156053843  1.0000
  Ga  Ga24      1.0  0.750781615  0.624282215  0.49660697490179223  1.0000
