data_image0
_chemical_formula_structural       COGe8Rh16Ge8Rh16
_chemical_formula_sum              "C1 O1 Ge16 Rh32"
_cell_length_a       11.829562676029239
_cell_length_b       7.70026108
_cell_length_c       102.61875216
_cell_angle_alpha    90.0
_cell_angle_beta     69.83809632522035
_cell_angle_gamma    90.0

_space_group_name_H-M_alt    "P 1"
_space_group_IT_number       1

loop_
  _space_group_symop_operation_xyz
  'x, y, z'

loop_
  _atom_site_type_symbol
  _atom_site_label
  _atom_site_symmetry_multiplicity
  _atom_site_fract_x
  _atom_site_fract_y
  _atom_site_fract_z
  _atom_site_occupancy
  C   C1        1.0  0.7203417600000002  0.5871378800000001  0.5372605545678565  1.0000
  O   O1        1.0  0.6537328800000001  0.58923784  0.5490240584039312  1.0000
  Ge  Ge1       1.0  0.3538420200000001  0.09266247000000007  0.5022025347553767  1.0000
  Ge  Ge2       1.0  0.85947164  0.10663658000000004  0.5213953850772328  1.0000
  Ge  Ge3       1.0  0.14344129000000008  0.89301182  0.49070887475084657  1.0000
  Ge  Ge4       1.0  0.6338339400000002  0.8992640100000001  0.5114356801191532  1.0000
  Ge  Ge5       1.0  0.09821421000000007  0.40083365000000004  0.5134097393836686  1.0000
  Ge  Ge6       1.0  0.6065587100000001  0.3930118200000001  0.4921743270419037  1.0000
  Ge  Ge7       1.0  0.41468005000000013  0.58490887  0.5208976458556509  1.0000
  Ge  Ge8       1.0  0.88628333  0.60690058  0.5008296220549544  1.0000
  Rh  Rh1       1.0  0.019958170000000063  0.7047602300000001  0.514422395168494  1.0000
  Rh  Rh2       1.0  0.5146588600000002  0.7020488600000001  0.49582577724155846  1.0000
  Rh  Rh3       1.0  0.4850673100000001  0.28079547000000005  0.5158832352606705  1.0000
  Rh  Rh4       1.0  0.98534114  0.29224852000000007  0.4969906578398862  1.0000
  Rh  Rh5       1.0  0.26486858000000013  0.78629324  0.5049341071584399  1.0000
  Rh  Rh6       1.0  0.76965496  0.79683287  0.5238267481519172  1.0000
  Rh  Rh7       1.0  0.2364669600000001  0.22303169000000006  0.5241827234466374  1.0000
  Rh  Rh8       1.0  0.7314448400000001  0.19878064000000004  0.5074023074301107  1.0000
  Rh  Rh9       1.0  0.08107393000000007  0.07294481000000003  0.5129732874168195  1.0000
  Rh  Rh10      1.0  0.5813991400000001  0.06671679000000005  0.4931739917469046  1.0000
  Rh  Rh11      1.0  0.41258440000000013  0.91686745  0.5191988245656852  1.0000
  Rh  Rh12      1.0  0.9228189900000001  0.93328321  0.4990165987791979  1.0000
  Rh  Rh13      1.0  0.3355991500000001  0.43083076000000003  0.5026933095884352  1.0000
  Rh  Rh14      1.0  0.8263120400000001  0.43887985000000007  0.5224732950528368  1.0000
  Rh  Rh15      1.0  0.1951887300000001  0.5825732499999999  0.5266952307067279  1.0000
  Rh  Rh16      1.0  0.6531490500000001  0.56383008  0.5107727186469752  1.0000
  Ge  Ge9       1.0  0.3565587100000001  0.10128556000000004  0.4623746271758203  1.0000
  Ge  Ge10      1.0  0.85655871  0.10128556000000004  0.4822410937532092  1.0000
  Ge  Ge11      1.0  0.14344129000000008  0.89301182  0.4509759415960687  1.0000
  Ge  Ge12      1.0  0.6434412900000002  0.89301182  0.4708424081734576  1.0000
  Ge  Ge13      1.0  0.10655871000000007  0.3930118200000001  0.4723078604645148  1.0000
  Ge  Ge14      1.0  0.6065587100000001  0.3930118200000001  0.45244139388712584  1.0000
  Ge  Ge15      1.0  0.3934412900000001  0.6012855600000001  0.48077564146215207  1.0000
  Ge  Ge16      1.0  0.8934412900000002  0.6012855600000001  0.46090917488476313  1.0000
  Rh  Rh17      1.0  0.014658860000000063  0.7020488600000001  0.4759593106641695  1.0000
  Rh  Rh18      1.0  0.5146588600000002  0.7020488600000001  0.4560928440867806  1.0000
  Rh  Rh19      1.0  0.48534114000000017  0.29224852000000007  0.47712419126249733  1.0000
  Rh  Rh20      1.0  0.98534114  0.29224852000000007  0.45725772468510834  1.0000
  Rh  Rh21      1.0  0.2646588600000001  0.79224852  0.466026077375475  1.0000
  Rh  Rh22      1.0  0.7646588600000002  0.79224852  0.48589254395286396  1.0000
  Rh  Rh23      1.0  0.2353411400000001  0.20204886000000005  0.48705742455119183  1.0000
  Rh  Rh24      1.0  0.7353411400000001  0.20204886000000005  0.4671909579738028  1.0000
  Rh  Rh25      1.0  0.08139914000000005  0.06671679000000005  0.4733075251695157  1.0000
  Rh  Rh26      1.0  0.5813991400000001  0.06671679000000005  0.45344105859212674  1.0000
  Rh  Rh27      1.0  0.41860086000000013  0.9275805899999999  0.47977597675715117  1.0000
  Rh  Rh28      1.0  0.9186008600000001  0.9275805899999999  0.4599095101797622  1.0000
  Rh  Rh29      1.0  0.3313991400000001  0.4275805900000001  0.4633742918808212  1.0000
  Rh  Rh30      1.0  0.8313991400000001  0.4275805900000001  0.4832407584582101  1.0000
  Rh  Rh31      1.0  0.16860086000000007  0.5667167900000001  0.4897092100458456  1.0000
  Rh  Rh32      1.0  0.6686008600000001  0.5667167900000001  0.46984274346845667  1.0000
