data_image0
_chemical_formula_structural       COAl4Au4Al4Au4Al4Au4
_chemical_formula_sum              "C1 O1 Al12 Au12"
_cell_length_a       6.44547443
_cell_length_b       7.34026614686103
_cell_length_c       104.29175839999999
_cell_angle_alpha    117.85096063163137
_cell_angle_beta     90.0
_cell_angle_gamma    92.20341910601525

_space_group_name_H-M_alt    "P 1"
_space_group_IT_number       1

loop_
  _space_group_symop_operation_xyz
  'x, y, z'

loop_
  _atom_site_type_symbol
  _atom_site_label
  _atom_site_symmetry_multiplicity
  _atom_site_fract_x
  _atom_site_fract_y
  _atom_site_fract_z
  _atom_site_occupancy
  C   C1        1.0  0.6404303950000001  0.5846412400000001  0.547376047183236  1.0000
  O   O1        1.0  0.6216798250000002  0.6200826000000002  0.5593818664784199  1.0000
  Al  Al1       1.0  0.5617528650000002  0.8245430000000001  0.45187794784566865  1.0000
  Al  Al2       1.0  0.4626328650000001  0.18396974000000005  0.4472558163504585  1.0000
  Al  Al3       1.0  0.9338008050000001  0.32359474  0.46828707165106914  1.0000
  Al  Al4       1.0  0.09058492500000005  0.6849180000000001  0.46372729493022213  1.0000
  Au  Au1       1.0  0.31984056500000013  0.48209748  0.4406181335215799  1.0000
  Au  Au2       1.0  0.704545165  0.52641526  0.4585156306745472  1.0000
  Au  Au3       1.0  0.20077403500000005  0.007438970000000019  0.4578916784995056  1.0000
  Au  Au4       1.0  0.8236116950000002  0.001073770000000085  0.44124208569662154  1.0000
  Al  Al5       1.0  0.5617528650000002  0.8245430000000001  0.48475855023083275  1.0000
  Al  Al6       1.0  0.4626328650000001  0.18396974000000005  0.4801364187356226  1.0000
  Al  Al7       1.0  0.9338008050000001  0.32359474  0.5011676740362333  1.0000
  Al  Al8       1.0  0.09058492500000005  0.6849180000000001  0.4966078973153863  1.0000
  Au  Au5       1.0  0.31984056500000013  0.48209748  0.473498735906744  1.0000
  Au  Au6       1.0  0.704545165  0.52641526  0.4913962330597113  1.0000
  Au  Au7       1.0  0.20077403500000005  0.007438970000000019  0.49077228088466973  1.0000
  Au  Au8       1.0  0.8236116950000002  0.001073770000000085  0.4741226880817857  1.0000
  Al  Al9       1.0  0.5938352950000001  0.8153147500000001  0.519998095808735  1.0000
  Al  Al10      1.0  0.49153309500000003  0.19443808  0.5127371578735854  1.0000
  Al  Al11      1.0  0.09924989500000003  0.33454603  0.5256712491830664  1.0000
  Al  Al12      1.0  0.06619919500000003  0.77776453  0.5253925104524667  1.0000
  Au  Au9       1.0  0.32731000500000007  0.48779564000000003  0.5076647133764696  1.0000
  Au  Au10      1.0  0.7688066550000001  0.5592024  0.5282659199904243  1.0000
  Au  Au11      1.0  0.30920806500000003  0.08704397000000003  0.5307925805598087  1.0000
  Au  Au12      1.0  0.8364002750000001  0.99892623  0.5083318081899006  1.0000
