data_image0
_chemical_formula_structural       COCu16Se32Sn8Zn4
_chemical_formula_sum              "C1 O1 Cu16 Se32 Sn8 Zn4"
_cell_length_a       7.055660174136671
_cell_length_b       20.81792498972413
_cell_length_c       101.64665121
_cell_angle_alpha    92.84397375445413
_cell_angle_beta     90.18807954409887
_cell_angle_gamma    96.3886284885226

_space_group_name_H-M_alt    "P 1"
_space_group_IT_number       1

loop_
  _space_group_symop_operation_xyz
  'x, y, z'

loop_
  _atom_site_type_symbol
  _atom_site_label
  _atom_site_symmetry_multiplicity
  _atom_site_fract_x
  _atom_site_fract_y
  _atom_site_fract_z
  _atom_site_occupancy
  C   C1        1.0  0.71577362  0.22673885000000002  0.5578693835325466  1.0000
  O   O1        1.0  0.64014781  0.24929692  0.5666561283255239  1.0000
  Cu  Cu1       1.0  0.7376227399999999  0.18454539999999997  0.5055062270451339  1.0000
  Cu  Cu2       1.0  0.62531797  0.70631953  0.5229014216500668  1.0000
  Cu  Cu3       1.0  0.16553924  0.44014309  0.5169743799058499  1.0000
  Cu  Cu4       1.0  0.32730897  0.94044805  0.490718487957881  1.0000
  Cu  Cu5       1.0  0.40392178  0.09442421999999999  0.5190891432543617  1.0000
  Cu  Cu6       1.0  0.53825869  0.5595519500000001  0.49728619235274785  1.0000
  Cu  Cu7       1.0  0.11229316999999998  0.3147964200000001  0.48523384454653135  1.0000
  Cu  Cu8       1.0  0.94419108  0.81521142  0.5127722947015311  1.0000
  Cu  Cu9       1.0  0.07365674999999997  0.18520357999999998  0.4528969564213116  1.0000
  Cu  Cu10      1.0  0.9069900900000001  0.68520358  0.4788419413006401  1.0000
  Cu  Cu11      1.0  0.49397563999999994  0.44044805  0.4647735030785525  1.0000
  Cu  Cu12      1.0  0.6606423000000001  0.94044805  0.4388285150858256  1.0000
  Cu  Cu13      1.0  0.7049253499999999  0.05955194999999998  0.4713412074734194  1.0000
  Cu  Cu14      1.0  0.87159202  0.5595519500000001  0.44539621948069247  1.0000
  Cu  Cu15      1.0  0.4456265000000001  0.3147964200000001  0.4333438716744761  1.0000
  Cu  Cu16      1.0  0.27895984  0.81479642  0.4592888596672029  1.0000
  Se  Se1       1.0  0.20502506999999998  0.15080655999999998  0.5321151939284547  1.0000
  Se  Se2       1.0  0.40010276000000006  0.65333857  0.5082920865127767  1.0000
  Se  Se3       1.0  0.0026641799999999843  0.40850774000000006  0.495690591285836  1.0000
  Se  Se4       1.0  0.82772586  0.91338582  0.5213568336144653  1.0000
  Se  Se5       1.0  0.07263064999999996  0.22269404  0.4996134015483446  1.0000
  Se  Se6       1.0  0.94643319  0.72600564  0.527866317460934  1.0000
  Se  Se7       1.0  0.50405637  0.47583199000000004  0.5134229669277479  1.0000
  Se  Se8       1.0  0.6640024899999999  0.97458173  0.487222203923655  1.0000
  Se  Se9       1.0  0.7286557199999999  0.09866852999999999  0.5191631331652002  1.0000
  Se  Se10      1.0  0.86812181  0.59149226  0.491501750477928  1.0000
  Se  Se11      1.0  0.1232265  0.34648376000000003  0.5286880740376866  1.0000
  Se  Se12      1.0  0.28569121  0.84521887  0.5052841888178558  1.0000
  Se  Se13      1.0  0.19787874999999996  0.026959199999999982  0.5036988495117739  1.0000
  Se  Se14      1.0  0.030785529999999988  0.52717141  0.5293562186552195  1.0000
  Se  Se15      1.0  0.6258034500000001  0.28062297  0.516431851569933  1.0000
  Se  Se16      1.0  0.77947828  0.77730596  0.4904863996808579  1.0000
  Se  Se17      1.0  0.58223945  0.15539651  0.4832289748181696  1.0000
  Se  Se18      1.0  0.74890612  0.65539651  0.45728398993884106  1.0000
  Se  Se19      1.0  0.33599751  0.40850774000000006  0.4438006184137806  1.0000
  Se  Se20      1.0  0.16933083999999995  0.90850774  0.4697456064065074  1.0000
  Se  Se21      1.0  0.40596398  0.22269404  0.4477234286762893  1.0000
  Se  Se22      1.0  0.23929731  0.72269404  0.4736684135556178  1.0000
  Se  Se23      1.0  0.83066915  0.47458173  0.4612772190443265  1.0000
  Se  Se24      1.0  0.9973358200000001  0.97458173  0.4353322310515997  1.0000
  Se  Se25      1.0  0.034788479999999976  0.09149225999999999  0.4655567655985996  1.0000
  Se  Se26      1.0  0.20145513999999998  0.59149226  0.43961178071927104  1.0000
  Se  Se27      1.0  0.44849085  0.34460349  0.4790648481660469  1.0000
  Se  Se28      1.0  0.61515752  0.84460349  0.4531198632867183  1.0000
  Se  Se29      1.0  0.51789567  0.025418269999999982  0.4515393341810255  1.0000
  Se  Se30      1.0  0.351229  0.52541827  0.477484319060354  1.0000
  Se  Se31      1.0  0.94614495  0.27730596  0.4645414148015294  1.0000
  Se  Se32      1.0  0.11281161  0.77730596  0.43859642680880256  1.0000
  Sn  Sn1       1.0  0.21366986999999996  0.12098594999999998  0.487887017204996  1.0000
  Sn  Sn2       1.0  0.031112019999999966  0.62095005  0.514658596882051  1.0000
  Sn  Sn3       1.0  0.6443329999999999  0.37901405  0.5012952748824281  1.0000
  Sn  Sn4       1.0  0.5399469100000001  0.8324212300000001  0.5254008671535741  1.0000
  Sn  Sn5       1.0  0.5470032  0.12098594999999998  0.43599704433294073  1.0000
  Sn  Sn6       1.0  0.38033654  0.62098595  0.4619420292122693  1.0000
  Sn  Sn7       1.0  0.97766634  0.37901405  0.4494053020103727  1.0000
  Sn  Sn8       1.0  0.8109996700000001  0.8790140500000001  0.4753502900030995  1.0000
  Zn  Zn1       1.0  0.27434053999999997  0.25207742  0.521300820465469  1.0000
  Zn  Zn2       1.0  0.42971877999999997  0.75  0.4944794762298261  1.0000
  Zn  Zn3       1.0  0.59638544  0.25  0.46853449135049763  1.0000
  Zn  Zn4       1.0  0.7630521100000001  0.75  0.44258950647116907  1.0000
