data_image0
_chemical_formula_structural       COZn6Cu12Sn6Se24
_chemical_formula_sum              "C1 O1 Zn6 Cu12 Sn6 Se24"
_cell_length_a       13.052408243557666
_cell_length_b       13.057187108420289
_cell_length_c       103.02027121
_cell_angle_alpha    108.42795897590635
_cell_angle_beta     71.56505117707799
_cell_angle_gamma    78.46732141121393

_space_group_name_H-M_alt    "P 1"
_space_group_IT_number       1

loop_
  _space_group_symop_operation_xyz
  'x, y, z'

loop_
  _atom_site_type_symbol
  _atom_site_label
  _atom_site_symmetry_multiplicity
  _atom_site_fract_x
  _atom_site_fract_y
  _atom_site_fract_z
  _atom_site_occupancy
  C   C1        1.0  0.3403995050000001  0.9521426450000001  0.5391979203657769  1.0000
  O   O1        1.0  0.3222716650000001  0.991145285  0.5517124195629788  1.0000
  Zn  Zn1       1.0  0.02023074499999996  0.9686877850000001  0.5090222701482324  1.0000
  Zn  Zn2       1.0  0.351544935  0.008854715000000044  0.4624294407295079  1.0000
  Zn  Zn3       1.0  0.6811292950000002  0.010007905000000044  0.4905072996006559  1.0000
  Zn  Zn4       1.0  0.855150315  0.4732881850000001  0.49706104013271374  1.0000
  Zn  Zn5       1.0  0.184878275  0.508854715  0.44907435315637384  1.0000
  Zn  Zn6       1.0  0.5182116050000001  0.508854715  0.475784528302642  1.0000
  Cu  Cu1       1.0  0.7682116050000002  0.25885471500000007  0.475784528302642  1.0000
  Cu  Cu2       1.0  0.126021725  0.22517610500000007  0.4962179741211333  1.0000
  Cu  Cu3       1.0  0.43487827500000004  0.25885471500000007  0.44907435315637384  1.0000
  Cu  Cu4       1.0  0.10154493499999999  0.25885471500000007  0.46242944072950787  1.0000
  Cu  Cu5       1.0  0.433299245  0.2619442250000001  0.4901048713132124  1.0000
  Cu  Cu6       1.0  0.7800476450000003  0.20585675500000003  0.5091246545150054  1.0000
  Cu  Cu7       1.0  0.933387845  0.7673368050000001  0.49010673354647466  1.0000
  Cu  Cu8       1.0  0.266131895  0.717157365  0.5095904468116758  1.0000
  Cu  Cu9       1.0  0.6015449350000001  0.7588547150000001  0.4624294407295079  1.0000
  Cu  Cu10      1.0  0.6063214050000001  0.7277176850000001  0.4965436501922306  1.0000
  Cu  Cu11      1.0  0.9348782750000001  0.7588547150000001  0.44907435315637384  1.0000
  Cu  Cu12      1.0  0.268211605  0.7588547150000001  0.475784528302642  1.0000
  Sn  Sn1       1.0  0.8515449350000001  0.508854715  0.46242944072950787  1.0000
  Sn  Sn2       1.0  0.18281358500000003  0.514031185  0.4903901231400704  1.0000
  Sn  Sn3       1.0  0.4996059450000001  0.4939619050000001  0.5167852988055964  1.0000
  Sn  Sn4       1.0  0.018211605000000002  0.008854715000000044  0.475784528302642  1.0000
  Sn  Sn5       1.0  0.34064094500000003  0.029043965000000043  0.5081279911193306  1.0000
  Sn  Sn6       1.0  0.6848782750000001  0.008854715000000044  0.44907435315637384  1.0000
  Se  Se1       1.0  0.7277123550000001  0.36492114500000006  0.5030717649843032  1.0000
  Se  Se2       1.0  0.06931560500000002  0.373654715  0.4482875804370212  1.0000
  Se  Se3       1.0  0.40264893500000004  0.373654715  0.47499775237806846  1.0000
  Se  Se4       1.0  0.9731449350000002  0.14405471500000006  0.4622486662785799  1.0000
  Se  Se5       1.0  0.3197675750000001  0.13401341500000005  0.4894589616358701  1.0000
  Se  Se6       1.0  0.6938885850000002  0.07949929500000004  0.5159843878574665  1.0000
  Se  Se7       1.0  0.981788395  0.14297085500000004  0.5038151710667577  1.0000
  Se  Se8       1.0  0.306478275  0.14405471500000006  0.45034490266608757  1.0000
  Se  Se9       1.0  0.6398116050000002  0.14405471500000006  0.47705507781235573  1.0000
  Se  Se10      1.0  0.059194694999999985  0.37449074500000007  0.48924051622533654  1.0000
  Se  Se11      1.0  0.386242625  0.359226125  0.5162354431840238  1.0000
  Se  Se12      1.0  0.7239076050000002  0.373654715  0.4621264415952955  1.0000
  Se  Se13      1.0  0.8453178650000002  0.921055285  0.515399386990248  1.0000
  Se  Se14      1.0  0.23598227500000002  0.873654715  0.4616426648049345  1.0000
  Se  Se15      1.0  0.559176505  0.8804809250000001  0.48910332316109767  1.0000
  Se  Se16      1.0  0.806478275  0.6440547150000001  0.44889357870544583  1.0000
  Se  Se17      1.0  0.1398116049999999  0.6440547150000001  0.47560375385171394  1.0000
  Se  Se18      1.0  0.46627447500000013  0.639298715  0.5033268652994611  1.0000
  Se  Se19      1.0  0.806886815  0.6393034250000001  0.49094193394630725  1.0000
  Se  Se20      1.0  0.11622932500000001  0.647342685  0.5173365006198888  1.0000
  Se  Se21      1.0  0.4731449350000001  0.6440547150000001  0.46369999023922165  1.0000
  Se  Se22      1.0  0.557240935  0.873654715  0.4487713540221615  1.0000
  Se  Se23      1.0  0.8905742750000002  0.873654715  0.47548152596320886  1.0000
  Se  Se24      1.0  0.22112078500000004  0.875596945  0.5026154601410857  1.0000
