data_image0
_chemical_formula_structural       COZn4Se4Zn4Se4
_chemical_formula_sum              "C1 O1 Zn8 Se8"
_cell_length_a       7.895686073219421
_cell_length_b       7.10827708
_cell_length_c       102.8317255
_cell_angle_alpha    90.0
_cell_angle_beta     74.93666776551241
_cell_angle_gamma    63.24754138889019

_space_group_name_H-M_alt    "P 1"
_space_group_IT_number       1

loop_
  _space_group_symop_operation_xyz
  'x, y, z'

loop_
  _atom_site_type_symbol
  _atom_site_label
  _atom_site_symmetry_multiplicity
  _atom_site_fract_x
  _atom_site_fract_y
  _atom_site_fract_z
  _atom_site_occupancy
  C   C1        1.0  0.03063221000000002  0.7715422450000001  0.5337486643196189  1.0000
  O   O1        1.0  0.9932368500000001  0.815983115  0.5452101700850668  1.0000
  Zn  Zn1       1.0  0.13752169000000003  0.598869385  0.5123715819021707  1.0000
  Zn  Zn2       1.0  0.12319291000000003  0.12995745500000008  0.49469935849227864  1.0000
  Zn  Zn3       1.0  0.62102334  0.043817065000000106  0.507080775698672  1.0000
  Zn  Zn4       1.0  0.6630122599999999  0.5971063150000002  0.5193997935589441  1.0000
  Se  Se1       1.0  0.5059206500000001  0.43982534500000003  0.50731405168235  1.0000
  Se  Se2       1.0  0.4921586300000001  0.9561829350000001  0.5286477668096649  1.0000
  Se  Se3       1.0  0.99702557  0.859707795  0.49721699522924045  1.0000
  Se  Se4       1.0  0.006763150000000051  0.3434800350000001  0.517198866069723  1.0000
  Zn  Zn5       1.0  0.12319291000000003  0.629957455  0.47474459420360593  1.0000
  Zn  Zn6       1.0  0.12319291000000003  0.12995745500000008  0.45478982991493316  1.0000
  Zn  Zn7       1.0  0.6231929100000001  0.04662412500000012  0.46476721205926946  1.0000
  Zn  Zn8       1.0  0.6231929100000001  0.546624125  0.4847219763479423  1.0000
  Se  Se5       1.0  0.4970255700000001  0.443041125  0.4672848487962314  1.0000
  Se  Se6       1.0  0.4970255700000001  0.943041125  0.4872396130849041  1.0000
  Se  Se7       1.0  0.99702557  0.859707795  0.457307466651895  1.0000
  Se  Se8       1.0  0.99702557  0.35970779500000005  0.47726223094056774  1.0000
