data_image0
_chemical_formula_structural       COAl4Se8Zn2
_chemical_formula_sum              "C1 O1 Al4 Se8 Zn2"
_cell_length_a       6.852608306449701
_cell_length_b       6.8526083
_cell_length_c       102.16411645
_cell_angle_alpha    90.0
_cell_angle_beta     90.0
_cell_angle_gamma    108.15180025542722

_space_group_name_H-M_alt    "P 1"
_space_group_IT_number       1

loop_
  _space_group_symop_operation_xyz
  'x, y, z'

loop_
  _atom_site_type_symbol
  _atom_site_label
  _atom_site_symmetry_multiplicity
  _atom_site_fract_x
  _atom_site_fract_y
  _atom_site_fract_z
  _atom_site_occupancy
  C   C1        1.0  0.38233642999999995  0.7975244949999999  0.5427278993010071  1.0000
  O   O1        1.0  0.5517907299999999  0.853941035  0.5458432002927953  1.0000
  Al  Al1       1.0  0.02632261999999996  0.14605896499999996  0.5088069600752555  1.0000
  Al  Al2       1.0  0.47367738  0.676759535  0.47439028021094415  1.0000
  Al  Al3       1.0  0.47367738  0.176759535  0.45471353510730655  1.0000
  Al  Al4       1.0  0.9716482099999999  0.676269285  0.4947756494454877  1.0000
  Se  Se1       1.0  0.8500252399999999  0.289007745  0.4552702705074084  1.0000
  Se  Se2       1.0  0.34658801999999994  0.786510905  0.49414934651953696  1.0000
  Se  Se3       1.0  0.8487010699999998  0.815882895  0.4748390642649887  1.0000
  Se  Se4       1.0  0.35513584  0.31739880499999995  0.5153153473272281  1.0000
  Se  Se5       1.0  0.8455801699999999  0.803095145  0.5133699846716723  1.0000
  Se  Se6       1.0  0.33455402  0.301735845  0.47394149615689957  1.0000
  Se  Se7       1.0  0.36142916999999997  0.8004116750000001  0.45415679970720463  1.0000
  Se  Se8       1.0  0.8525296499999999  0.30319429499999995  0.4936229888655958  1.0000
  Zn  Zn1       1.0  0.47255541999999995  0.17080606499999998  0.4967374114874826  1.0000
  Zn  Zn2       1.0  0.9736773799999999  0.6767595349999999  0.45471353510730655  1.0000
