data_image0
_chemical_formula_structural       COAg32
_chemical_formula_sum              "C1 O1 Ag32"
_cell_length_a       5.95441928
_cell_length_b       7.292644476210931
_cell_length_c       104.46369321
_cell_angle_alpha    94.04469122805283
_cell_angle_beta     90.0
_cell_angle_gamma    90.0

_space_group_name_H-M_alt    "P 1"
_space_group_IT_number       1

loop_
  _space_group_symop_operation_xyz
  'x, y, z'

loop_
  _atom_site_type_symbol
  _atom_site_label
  _atom_site_symmetry_multiplicity
  _atom_site_fract_x
  _atom_site_fract_y
  _atom_site_fract_z
  _atom_site_occupancy
  C   C1        1.0  0.25380682000000004  0.39016718  0.5643288609188911  1.0000
  O   O1        1.0  0.25380684000000003  0.41425272  0.5755118284136961  1.0000
  Ag  Ag1       1.0  0.0038068600000000386  0.9875  0.48222254920998026  1.0000
  Ag  Ag2       1.0  0.0038068600000000386  0.9375  0.43273593981825775  1.0000
  Ag  Ag3       1.0  0.0038068600000000386  0.28750000000000003  0.44923147628216525  1.0000
  Ag  Ag4       1.0  0.0038068600000000386  0.6375000000000001  0.4657270127460727  1.0000
  Ag  Ag5       1.0  0.25380686  0.6125  0.4409837080502115  1.0000
  Ag  Ag6       1.0  0.25380686  0.9624999999999999  0.457479244514119  1.0000
  Ag  Ag7       1.0  0.25380686  0.3125  0.4739747809780264  1.0000
  Ag  Ag8       1.0  0.25380686  0.2625  0.42448817158630403  1.0000
  Ag  Ag9       1.0  0.99881912  0.39152447  0.5477177798202686  1.0000
  Ag  Ag10      1.0  0.0038068600000000386  0.3375  0.4987180856738877  1.0000
  Ag  Ag11      1.0  0.0038068600000000386  0.6875  0.5152136221377952  1.0000
  Ag  Ag12      1.0  0.0011808800000000384  0.03615325  0.532080007953377  1.0000
  Ag  Ag13      1.0  0.25380686  0.012499999999999995  0.5069658539058414  1.0000
  Ag  Ag14      1.0  0.25380670000000005  0.35847605  0.5231963334916324  1.0000
  Ag  Ag15      1.0  0.25380678000000007  0.71851276  0.5392314531399739  1.0000
  Ag  Ag16      1.0  0.25380686  0.6625  0.490470317441934  1.0000
  Ag  Ag17      1.0  0.5038068600000001  0.9875  0.48222254920998026  1.0000
  Ag  Ag18      1.0  0.5038068600000001  0.9375  0.43273593981825775  1.0000
  Ag  Ag19      1.0  0.5038068600000001  0.28750000000000003  0.44923147628216525  1.0000
  Ag  Ag20      1.0  0.5038068600000001  0.6375000000000001  0.4657270127460727  1.0000
  Ag  Ag21      1.0  0.7538068600000001  0.6125  0.4409837080502115  1.0000
  Ag  Ag22      1.0  0.7538068600000001  0.9624999999999999  0.457479244514119  1.0000
  Ag  Ag23      1.0  0.7538068600000001  0.3125  0.4739747809780264  1.0000
  Ag  Ag24      1.0  0.7538068600000001  0.2625  0.42448817158630403  1.0000
  Ag  Ag25      1.0  0.5087938200000001  0.39152449999999994  0.5477176973425862  1.0000
  Ag  Ag26      1.0  0.5038068600000001  0.3375  0.4987180856738877  1.0000
  Ag  Ag27      1.0  0.5038068600000001  0.6875  0.5152136221377952  1.0000
  Ag  Ag28      1.0  0.50643321  0.03615313  0.5320799617658748  1.0000
  Ag  Ag29      1.0  0.7538068600000001  0.012499999999999995  0.5069658539058414  1.0000
  Ag  Ag30      1.0  0.7538069100000001  0.35785296  0.5237355659804228  1.0000
  Ag  Ag31      1.0  0.7538068299999999  0.71148619  0.5398056462687459  1.0000
  Ag  Ag32      1.0  0.7538068600000001  0.6625  0.490470317441934  1.0000
