data_image0
_chemical_formula_structural       COAl12Ru6
_chemical_formula_sum              "C1 O1 Al12 Ru6"
_cell_length_a       4.6972310745509045
_cell_length_b       5.039606007459303
_cell_length_c       103.55667378999999
_cell_angle_alpha    91.08619385462077
_cell_angle_beta     91.15815232917849
_cell_angle_gamma    103.86162667394123

_space_group_name_H-M_alt    "P 1"
_space_group_IT_number       1

loop_
  _space_group_symop_operation_xyz
  'x, y, z'

loop_
  _atom_site_type_symbol
  _atom_site_label
  _atom_site_symmetry_multiplicity
  _atom_site_fract_x
  _atom_site_fract_y
  _atom_site_fract_z
  _atom_site_occupancy
  C   C1        1.0  0.14867223  0.6284948350000001  0.5512258106362389  1.0000
  O   O1        1.0  0.22931762  0.6495543550000001  0.562083463946555  1.0000
  Al  Al1       1.0  0.6641973299999999  0.37499999500000003  0.450224975605991  1.0000
  Al  Al2       1.0  0.10864177999999994  0.041666665000000006  0.4862296012496823  1.0000
  Al  Al3       1.0  0.5310507299999999  0.7002534750000001  0.5247822829167684  1.0000
  Al  Al4       1.0  0.19597513999999996  0.48895238500000004  0.43791653605344494  1.0000
  Al  Al5       1.0  0.64041958  0.155619055  0.4739211616971362  1.0000
  Al  Al6       1.0  0.07811989999999995  0.817369115  0.5100315480493433  1.0000
  Al  Al7       1.0  0.02930846999999997  0.7389523850000002  0.46492000447610926  1.0000
  Al  Al8       1.0  0.4737529199999999  0.405619055  0.5009246301198005  1.0000
  Al  Al9       1.0  0.94215788  0.08503038500000001  0.5365531665621996  1.0000
  Al  Al10      1.0  0.49753067  0.6249999950000001  0.47722844402865533  1.0000
  Al  Al11      1.0  0.9425361399999999  0.28417533500000003  0.51276305700343  1.0000
  Al  Al12      1.0  0.053086219999999934  0.9583333350000001  0.4412238183849641  1.0000
  Ru  Ru1       1.0  0.014358209999999968  0.5937108050000001  0.5336279908851166  1.0000
  Ru  Ru2       1.0  0.15230845999999998  0.265309525  0.46207306865156367  1.0000
  Ru  Ru3       1.0  0.5967528999999999  0.9319761950000001  0.4980776942952549  1.0000
  Ru  Ru4       1.0  0.9856417900000001  0.515309525  0.489076537074228  1.0000
  Ru  Ru5       1.0  0.4310125299999999  0.181189415  0.5241399578685377  1.0000
  Ru  Ru6       1.0  0.54119735  0.8486428550000001  0.45307191143053666  1.0000
