data_image0
_chemical_formula_structural       COGa4Se8Zn2
_chemical_formula_sum              "C1 O1 Ga4 Se8 Zn2"
_cell_length_a       5.7160141
_cell_length_b       6.895950438950462
_cell_length_c       100.6869895
_cell_angle_alpha    95.21829584203395
_cell_angle_beta     90.0
_cell_angle_gamma    114.48450611408589

_space_group_name_H-M_alt    "P 1"
_space_group_IT_number       1

loop_
  _space_group_symop_operation_xyz
  'x, y, z'

loop_
  _atom_site_type_symbol
  _atom_site_label
  _atom_site_symmetry_multiplicity
  _atom_site_fract_x
  _atom_site_fract_y
  _atom_site_fract_z
  _atom_site_occupancy
  C   C1        1.0  0.08111980000000003  0.21018650000000003  0.549908056510287  1.0000
  O   O1        1.0  0.15822784000000004  0.22613181000000004  0.5607253532527592  1.0000
  Ga  Ga1       1.0  0.17505614  0.31032737000000005  0.4392746467472407  1.0000
  Ga  Ga2       1.0  0.8833894800000002  0.7269940400000001  0.45197364951085073  1.0000
  Ga  Ga3       1.0  0.008389480000000171  0.9769940400000001  0.490070663897203  1.0000
  Ga  Ga4       1.0  0.71672281  0.39366070000000003  0.5027696697085742  1.0000
  Se  Se1       1.0  0.28977231  0.02661197000000001  0.4467318447282987  1.0000
  Se  Se2       1.0  0.41317339000000003  0.2581685  0.4830006748270844  1.0000
  Se  Se3       1.0  0.6980234700000001  0.8694097600000001  0.4706875856759248  1.0000
  Se  Se4       1.0  0.9659220700000001  0.42045259  0.45827051605757957  1.0000
  Se  Se5       1.0  0.12310564000000002  0.6932786300000001  0.49752786492602213  1.0000
  Se  Se6       1.0  0.90337114  0.6885872400000002  0.5373580008818829  1.0000
  Se  Se7       1.0  0.52514919  0.48026764000000005  0.5232795326571934  1.0000
  Se  Se8       1.0  0.7844043500000001  0.06993151  0.5088134014051531  1.0000
  Zn  Zn1       1.0  0.30005614  0.56032737  0.47737166113359303  1.0000
  Zn  Zn2       1.0  0.99161052  0.023005960000000013  0.5283893785251945  1.0000
