data_image0
_chemical_formula_structural       COCu4Sn2Se8Cu4Sn2Se8
_chemical_formula_sum              "C1 O1 Cu8 Sn4 Se16"
_cell_length_a       5.70665712
_cell_length_b       10.8480938
_cell_length_c       104.23994271000001
_cell_angle_alpha    90.0
_cell_angle_beta     90.0
_cell_angle_gamma    90.0

_space_group_name_H-M_alt    "P 1"
_space_group_IT_number       1

loop_
  _space_group_symop_operation_xyz
  'x, y, z'

loop_
  _atom_site_type_symbol
  _atom_site_label
  _atom_site_symmetry_multiplicity
  _atom_site_fract_x
  _atom_site_fract_y
  _atom_site_fract_z
  _atom_site_occupancy
  C   C1        1.0  0.6078748099999999  0.397664315  0.5508130160610569  1.0000
  O   O1        1.0  0.5978158899999999  0.4335736250000001  0.5612560992159892  1.0000
  Cu  Cu1       1.0  0.5041280899999999  0.8070618350000001  0.48139264371601737  1.0000
  Cu  Cu2       1.0  0.00412808999999997  0.8070618350000001  0.45401994268364015  1.0000
  Cu  Cu3       1.0  0.00412808999999997  0.307061835  0.45401994268364015  1.0000
  Cu  Cu4       1.0  0.5041280899999999  0.307061835  0.48139264371601737  1.0000
  Sn  Sn1       1.0  0.00412808999999997  0.5570618350000001  0.48139264371601737  1.0000
  Sn  Sn2       1.0  0.5041280899999999  0.05706183500000001  0.45401994268364015  1.0000
  Se  Se1       1.0  0.7831660599999999  0.9288504750000002  0.43874390078401077  1.0000
  Se  Se2       1.0  0.72509012  0.6852731950000001  0.46611659853166404  1.0000
  Se  Se3       1.0  0.28316606  0.6852731950000001  0.44192329012034015  1.0000
  Se  Se4       1.0  0.22509011999999998  0.9288504750000002  0.4692959878679934  1.0000
  Se  Se5       1.0  0.28316606  0.428850475  0.46611659853166404  1.0000
  Se  Se6       1.0  0.22509011999999998  0.18527319500000006  0.43874390078401077  1.0000
  Se  Se7       1.0  0.7831660599999999  0.18527319500000006  0.4692959878679934  1.0000
  Se  Se8       1.0  0.72509012  0.428850475  0.44192329012034015  1.0000
  Cu  Cu5       1.0  0.44312857999999994  0.7678894350000001  0.52249225503482  1.0000
  Cu  Cu6       1.0  0.012445719999999967  0.811636015  0.5091913537248369  1.0000
  Cu  Cu7       1.0  0.99587191  0.302552035  0.5091743651330273  1.0000
  Cu  Cu8       1.0  0.5646021899999999  0.33863722500000004  0.534416078567444  1.0000
  Sn  Sn3       1.0  0.11582687999999998  0.619431515  0.535638232343894  1.0000
  Sn  Sn4       1.0  0.5042610599999999  0.057142155000000014  0.5086556546797767  1.0000
  Se  Se9       1.0  0.7831660599999999  0.9288504750000002  0.49348929627931737  1.0000
  Se  Se10      1.0  0.76656182  0.645792095  0.5191602705667989  1.0000
  Se  Se11      1.0  0.28316606  0.6852731950000001  0.4966686889003706  1.0000
  Se  Se12      1.0  0.21935468999999996  0.942938165  0.5247202897992568  1.0000
  Se  Se13      1.0  0.25242351999999996  0.42435249500000005  0.5226439107354873  1.0000
  Se  Se14      1.0  0.22509011999999998  0.18527319500000006  0.49348929627931737  1.0000
  Se  Se15      1.0  0.7771627499999999  0.17656034500000004  0.524447634725718  1.0000
  Se  Se16      1.0  0.72509012  0.428850475  0.4966686889003706  1.0000
