data_image0
_chemical_formula_structural       COCu4Ge2Se8Zn2
_chemical_formula_sum              "C1 O1 Cu4 Ge2 Se8 Zn2"
_cell_length_a       5.73449487
_cell_length_b       7.017163580012642
_cell_length_c       100.87562568999999
_cell_angle_alpha    94.39799716297657
_cell_angle_beta     90.0
_cell_angle_gamma    114.11722703824336

_space_group_name_H-M_alt    "P 1"
_space_group_IT_number       1

loop_
  _space_group_symop_operation_xyz
  'x, y, z'

loop_
  _atom_site_type_symbol
  _atom_site_label
  _atom_site_symmetry_multiplicity
  _atom_site_fract_x
  _atom_site_fract_y
  _atom_site_fract_z
  _atom_site_occupancy
  C   C1        1.0  0.16319501500000008  0.04973273499999999  0.5478850773978398  1.0000
  O   O1        1.0  0.21154535500000002  0.978408705  0.5569006123558969  1.0000
  Cu  Cu1       1.0  0.24353565500000002  0.5702227249999999  0.48725161051081767  1.0000
  Cu  Cu2       1.0  0.8268689850000002  0.736889395  0.46174526359121376  1.0000
  Cu  Cu3       1.0  0.14037196500000004  0.21484597499999997  0.5349355943311187  1.0000
  Cu  Cu4       1.0  0.6359332350000001  0.417022405  0.51442696632812  1.0000
  Ge  Ge1       1.0  0.11853565500000002  0.32022272499999993  0.4489920886010309  1.0000
  Ge  Ge2       1.0  0.9518689850000001  0.9868893949999998  0.5000047855010005  1.0000
  Se  Se1       1.0  0.9404143650000002  0.45513566499999997  0.4681545537952528  1.0000
  Se  Se2       1.0  0.638834765  0.8519764649999999  0.48084232336754035  1.0000
  Se  Se3       1.0  0.214797685  0.0215912949999999  0.4548847926187205  1.0000
  Se  Se4       1.0  0.5134291150000001  0.6188541649999999  0.44309938764410306  1.0000
  Se  Se5       1.0  0.7792826450000001  0.12738979499999997  0.5190320996992664  1.0000
  Se  Se6       1.0  0.49537278500000004  0.5406514749999999  0.5346907548162283  1.0000
  Se  Se7       1.0  0.04813101499999994  0.6882579649999998  0.5058974895186901  1.0000
  Se  Se8       1.0  0.346762455  0.285520825  0.49411208148331087  1.0000
  Zn  Zn1       1.0  0.535202315  0.153556065  0.4744984385813966  1.0000
  Zn  Zn2       1.0  0.4236979249999999  0.7720625449999998  0.5210712863056317  1.0000
