data_image0
_chemical_formula_structural       COCu4Ge2Se6
_chemical_formula_sum              "C1 O1 Cu4 Ge2 Se6"
_cell_length_a       5.66283182
_cell_length_b       6.959047278035177
_cell_length_c       101.14305776
_cell_angle_alpha    93.56313063171207
_cell_angle_beta     90.0
_cell_angle_gamma    114.00825910061339

_space_group_name_H-M_alt    "P 1"
_space_group_IT_number       1

loop_
  _space_group_symop_operation_xyz
  'x, y, z'

loop_
  _atom_site_type_symbol
  _atom_site_label
  _atom_site_symmetry_multiplicity
  _atom_site_fract_x
  _atom_site_fract_y
  _atom_site_fract_z
  _atom_site_occupancy
  C   C1        1.0  0.6006085099999999  0.33861065999999995  0.5421205343397901  1.0000
  O   O1        1.0  0.6491361  0.32269457  0.5528886061324312  1.0000
  Cu  Cu1       1.0  0.3834685499999999  0.23022156000000002  0.45991781477603677  1.0000
  Cu  Cu2       1.0  0.09074699999999991  0.64477845  0.47279384204002894  1.0000
  Cu  Cu3       1.0  0.4908226199999999  0.46773098  0.4999254855434981  1.0000
  Cu  Cu4       1.0  0.29422006999999983  0.8410353099999999  0.5057125923046273  1.0000
  Ge  Ge1       1.0  0.70393043  0.8125  0.44711139386756865  1.0000
  Ge  Ge2       1.0  0.8289304299999999  0.06250000000000003  0.48560026602760686  1.0000
  Se  Se1       1.0  0.79077066  0.51363138  0.4536846035119141  1.0000
  Se  Se2       1.0  0.21463927999999996  0.36136863  0.4790270563832615  1.0000
  Se  Se3       1.0  0.4907617899999999  0.9374999999999999  0.46635582994758773  1.0000
  Se  Se4       1.0  0.909253  0.75928114  0.4921706859984981  1.0000
  Se  Se5       1.0  0.25203686999999986  0.5475966499999999  0.5163126524725153  1.0000
  Se  Se6       1.0  0.6337024299999999  0.18354151  0.5043515118579867  1.0000
