data_image0
_chemical_formula_structural       COCu6Ga14Se24
_chemical_formula_sum              "C1 O1 Cu6 Ga14 Se24"
_cell_length_a       13.48875831216526
_cell_length_b       10.787196249653448
_cell_length_c       101.71618605
_cell_angle_alpha    81.11809527058512
_cell_angle_beta     84.21469679172397
_cell_angle_gamma    98.0656427365842

_space_group_name_H-M_alt    "P 1"
_space_group_IT_number       1

loop_
  _space_group_symop_operation_xyz
  'x, y, z'

loop_
  _atom_site_type_symbol
  _atom_site_label
  _atom_site_symmetry_multiplicity
  _atom_site_fract_x
  _atom_site_fract_y
  _atom_site_fract_z
  _atom_site_occupancy
  C   C1        1.0  0.7133178800000001  0.58501412  0.5398598806285652  1.0000
  O   O1        1.0  0.71678982  0.5591706099999999  0.5511623386230445  1.0000
  Cu  Cu1       1.0  0.51776066  0.48489049999999995  0.4782217703325554  1.0000
  Cu  Cu2       1.0  0.26145314000000003  0.9836781100000002  0.45234346655663016  1.0000
  Cu  Cu3       1.0  0.26330465  0.23075518000000003  0.4782284368434037  1.0000
  Cu  Cu4       1.0  0.56033672  0.3365981899999999  0.5119351856439603  1.0000
  Cu  Cu5       1.0  0.25552609000000004  0.8617676900000002  0.4929708861520411  1.0000
  Cu  Cu6       1.0  0.29062158  0.09873143999999998  0.5121911135566853  1.0000
  Ga  Ga1       1.0  0.022179769999999998  0.35592429999999997  0.4650553521631669  1.0000
  Ga  Ga2       1.0  0.52082308  0.85485686  0.46506136698983963  1.0000
  Ga  Ga3       1.0  0.77118774  0.47353308000000005  0.4519302239547948  1.0000
  Ga  Ga4       1.0  0.78070825  0.74147261  0.4780894503819671  1.0000
  Ga  Ga5       1.0  0.025316099999999998  0.98169927  0.4779983767389095  1.0000
  Ga  Ga6       1.0  0.26499295  0.61466173  0.4653863765432774  1.0000
  Ga  Ga7       1.0  0.52834212  0.24717778  0.452273012949232  1.0000
  Ga  Ga8       1.0  0.09354782  0.22055297999999995  0.4932186789259432  1.0000
  Ga  Ga9       1.0  0.5357553  0.7259572099999999  0.4987236017076693  1.0000
  Ga  Ga10      1.0  0.78651512  0.34193925999999997  0.49068546092950294  1.0000
  Ga  Ga11      1.0  0.79741109  0.6078515200000001  0.512750292878461  1.0000
  Ga  Ga12      1.0  0.051551429999999995  0.8557838999999998  0.5124482045229866  1.0000
  Ga  Ga13      1.0  0.28479813  0.48049722999999994  0.5000508952868667  1.0000
  Ga  Ga14      1.0  0.5380800600000001  0.12661190999999997  0.4922240779136214  1.0000
  Se  Se1       1.0  0.96086423  0.5281338  0.4491223507003747  1.0000
  Se  Se2       1.0  0.95931508  0.7664168499999999  0.4748952063641077  1.0000
  Se  Se3       1.0  0.70940831  0.9013604900000002  0.46210786258987724  1.0000
  Se  Se4       1.0  0.94794398  0.14000917000000002  0.46211021364187904  1.0000
  Se  Se5       1.0  0.45135763  0.018326839999999973  0.4491161082519565  1.0000
  Se  Se6       1.0  0.70929917  0.26287330999999997  0.4488376613769554  1.0000
  Se  Se7       1.0  0.44957945000000005  0.2687389599999999  0.47514585532320014  1.0000
  Se  Se8       1.0  0.7049874500000001  0.51829277  0.47502416187821084  1.0000
  Se  Se9       1.0  0.20900879  0.39052514000000005  0.461890929712077  1.0000
  Se  Se10      1.0  0.4571647  0.63728937  0.4618619999236529  1.0000
  Se  Se11      1.0  0.20119052  0.76784075  0.4491094760402753  1.0000
  Se  Se12      1.0  0.20896554  0.016321889999999974  0.4749005009082706  1.0000
  Se  Se13      1.0  0.9778202300000001  0.38987154000000007  0.48873154339352104  1.0000
  Se  Se14      1.0  0.95500255  0.6484208100000001  0.521249168132518  1.0000
  Se  Se15      1.0  0.7140146  0.7802752999999999  0.5020760989645761  1.0000
  Se  Se16      1.0  0.9673622900000001  0.02112098  0.5018155126013332  1.0000
  Se  Se17      1.0  0.4516896  0.8948481600000001  0.4887545051268639  1.0000
  Se  Se18      1.0  0.71625773  0.13919959999999992  0.486118286731522  1.0000
  Se  Se19      1.0  0.46725519000000004  0.13074414999999998  0.5147763384448181  1.0000
  Se  Se20      1.0  0.7345703800000001  0.3843778  0.5139649479927924  1.0000
  Se  Se21      1.0  0.19780263999999997  0.27328151  0.5111958140885964  1.0000
  Se  Se22      1.0  0.46390479  0.50382678  0.5040492240341524  1.0000
  Se  Se23      1.0  0.20340611  0.63938632  0.4890492596967838  1.0000
  Se  Se24      1.0  0.22093608999999997  0.8786451400000002  0.5167140387109579  1.0000
