data_image0
_chemical_formula_structural       COPb12
_chemical_formula_sum              "C1 O1 Pb12"
_cell_length_a       7.20987856
_cell_length_b       7.209878550334492
_cell_length_c       105.32104715
_cell_angle_alpha    90.0
_cell_angle_beta     90.0
_cell_angle_gamma    120.00000004434644

_space_group_name_H-M_alt    "P 1"
_space_group_IT_number       1

loop_
  _space_group_symop_operation_xyz
  'x, y, z'

loop_
  _atom_site_type_symbol
  _atom_site_label
  _atom_site_symmetry_multiplicity
  _atom_site_fract_x
  _atom_site_fract_y
  _atom_site_fract_z
  _atom_site_occupancy
  C   C1        1.0  0.23497352500000004  0.39169869999999996  0.5370984367038804  1.0000
  O   O1        1.0  0.261925195  0.44575624999999997  0.5475208289030451  1.0000
  Pb  Pb1       1.0  0.251612275  0.42503706999999996  0.4524791710969549  1.0000
  Pb  Pb2       1.0  0.07656865500000004  0.07496293  0.5047425965736827  1.0000
  Pb  Pb3       1.0  0.41651638500000004  0.26175729999999997  0.47869750036353925  1.0000
  Pb  Pb4       1.0  0.25161227500000005  0.92503707  0.4524791710969549  1.0000
  Pb  Pb5       1.0  0.08338278500000003  0.6007302899999999  0.504511593453739  1.0000
  Pb  Pb6       1.0  0.41764617500000006  0.7571173600000001  0.4784311128281757  1.0000
  Pb  Pb7       1.0  0.751612275  0.42503706999999996  0.4524791710969549  1.0000
  Pb  Pb8       1.0  0.5827983250000002  0.08737305999999999  0.5044406904766938  1.0000
  Pb  Pb9       1.0  0.923431345  0.26181213  0.4787016119447452  1.0000
  Pb  Pb10      1.0  0.751612275  0.92503707  0.4524791710969549  1.0000
  Pb  Pb11      1.0  0.595573275  0.6007569300000001  0.5045133172324828  1.0000
  Pb  Pb12      1.0  0.918478315  0.7586608  0.47792047858870657  1.0000
