data_image0
_chemical_formula_structural       COTi24
_chemical_formula_sum              "C1 O1 Ti24"
_cell_length_a       5.6780943
_cell_length_b       7.95638974
_cell_length_c       102.15536632
_cell_angle_alpha    90.0
_cell_angle_beta     90.0
_cell_angle_gamma    90.0

_space_group_name_H-M_alt    "P 1"
_space_group_IT_number       1

loop_
  _space_group_symop_operation_xyz
  'x, y, z'

loop_
  _atom_site_type_symbol
  _atom_site_label
  _atom_site_symmetry_multiplicity
  _atom_site_fract_x
  _atom_site_fract_y
  _atom_site_fract_z
  _atom_site_occupancy
  C   C1        1.0  0.37485996999999993  0.08275115499999995  0.5359976941275673  1.0000
  O   O1        1.0  0.37505364999999996  0.08274890499999994  0.5476552765515944  1.0000
  Ti  Ti1       1.0  0.12499643999999997  0.5827486749999998  0.4523447234484056  1.0000
  Ti  Ti2       1.0  0.12499643999999997  0.08274867499999995  0.47482823965321314  1.0000
  Ti  Ti3       1.0  0.37499644  0.4160820049999999  0.47482823965321314  1.0000
  Ti  Ti4       1.0  0.37499644  0.9160820049999998  0.4523447234484056  1.0000
  Ti  Ti5       1.0  0.37499644  0.749415345  0.47482823965321314  1.0000
  Ti  Ti6       1.0  0.37499644  0.2494153449999999  0.4523447234484056  1.0000
  Ti  Ti7       1.0  0.12704425999999996  0.5827473749999998  0.49853382851962075  1.0000
  Ti  Ti8       1.0  0.13581171999999997  0.08274879499999994  0.5183168639285094  1.0000
  Ti  Ti9       1.0  0.3749903500000001  0.41165185499999996  0.5196369997970091  1.0000
  Ti  Ti10      1.0  0.37499860999999995  0.9147622949999998  0.4976155931557155  1.0000
  Ti  Ti11      1.0  0.37499091  0.7538480049999999  0.5196362569416189  1.0000
  Ti  Ti12      1.0  0.37499906000000005  0.25073356499999994  0.4976155176110995  1.0000
  Ti  Ti13      1.0  0.62499644  0.5827486749999998  0.4523447234484056  1.0000
  Ti  Ti14      1.0  0.62499644  0.08274867499999995  0.47482823965321314  1.0000
  Ti  Ti15      1.0  0.8749964400000002  0.4160820049999999  0.47482823965321314  1.0000
  Ti  Ti16      1.0  0.8749964400000002  0.9160820049999998  0.4523447234484056  1.0000
  Ti  Ti17      1.0  0.8749964400000002  0.749415345  0.47482823965321314  1.0000
  Ti  Ti18      1.0  0.8749964400000002  0.2494153449999999  0.4523447234484056  1.0000
  Ti  Ti19      1.0  0.62295077  0.582746535  0.49853405515346855  1.0000
  Ti  Ti20      1.0  0.6142405400000001  0.08274769499999994  0.518316442137737  1.0000
  Ti  Ti21      1.0  0.87500356  0.42440856499999996  0.5192808447050702  1.0000
  Ti  Ti22      1.0  0.8750012199999999  0.917252305  0.49801617792491526  1.0000
  Ti  Ti23      1.0  0.8750031300000001  0.741086725  0.5192804858681445  1.0000
  Ti  Ti24      1.0  0.8749987600000001  0.24824351499999994  0.4980159764726061  1.0000
