data_image0
_chemical_formula_structural       COTi24
_chemical_formula_sum              "C1 O1 Ti24"
_cell_length_a       5.40014518237397
_cell_length_b       7.303569956647982
_cell_length_c       102.00716339
_cell_angle_alpha    93.52043359230747
_cell_angle_beta     92.86821053823044
_cell_angle_gamma    98.1183359692188

_space_group_name_H-M_alt    "P 1"
_space_group_IT_number       1

loop_
  _space_group_symop_operation_xyz
  'x, y, z'

loop_
  _atom_site_type_symbol
  _atom_site_label
  _atom_site_symmetry_multiplicity
  _atom_site_fract_x
  _atom_site_fract_y
  _atom_site_fract_z
  _atom_site_occupancy
  C   C1        1.0  0.90528103  0.770282105  0.5488301822900791  1.0000
  O   O1        1.0  0.028826820000000024  0.9084381650000001  0.5559965818169736  1.0000
  Ti  Ti1       1.0  0.4642287400000001  0.47033336500000006  0.4854041142636282  1.0000
  Ti  Ti2       1.0  0.08922874000000001  0.5953333650000001  0.44618240383870894  1.0000
  Ti  Ti3       1.0  0.8808953999999999  0.8870000250000001  0.4592563052218575  1.0000
  Ti  Ti4       1.0  0.6725620700000001  0.17866669500000004  0.47233020974274287  1.0000
  Ti  Ti5       1.0  0.5822842900000001  0.505055585  0.45707732270391166  1.0000
  Ti  Ti6       1.0  0.37395095999999994  0.796722255  0.47015122722479696  1.0000
  Ti  Ti7       1.0  0.16561763000000002  0.08838891500000001  0.48322512860794553  1.0000
  Ti  Ti8       1.0  0.7906176299999997  0.213388915  0.4440034181830263  1.0000
  Ti  Ti9       1.0  0.17950650999999998  0.268944475  0.4614352908775401  1.0000
  Ti  Ti10      1.0  0.97117318  0.5606111350000003  0.47450919226068866  1.0000
  Ti  Ti11      1.0  0.7628398499999999  0.852277805  0.48758309678157397  1.0000
  Ti  Ti12      1.0  0.38783985  0.977277805  0.44836138635665485  1.0000
  Ti  Ti13      1.0  0.6361887  0.6430240150000001  0.5362365868350574  1.0000
  Ti  Ti14      1.0  0.25589540000000005  0.7620000250000002  0.4984780156467767  1.0000
  Ti  Ti15      1.0  0.04536689  0.05297057500000002  0.5123500003936515  1.0000
  Ti  Ti16      1.0  0.8406383499999999  0.341681665  0.5240373703849633  1.0000
  Ti  Ti17      1.0  0.74895096  0.671722255  0.5093729376497163  1.0000
  Ti  Ti18      1.0  0.5193554300000001  0.9630528950000001  0.521275048074473  1.0000
  Ti  Ti19      1.0  0.33866303  0.24750027500000002  0.5345634482853302  1.0000
  Ti  Ti20      1.0  0.9572842899999999  0.38005558500000003  0.49629903312883095  1.0000
  Ti  Ti21      1.0  0.34750265  0.43397547500000005  0.5140125584947745  1.0000
  Ti  Ti22      1.0  0.12099993000000003  0.7224870950000001  0.5282867132471358  1.0000
  Ti  Ti23      1.0  0.8859445599999999  0.022722195000000018  0.5398133683578106  1.0000
  Ti  Ti24      1.0  0.5545065100000002  0.14394447500000004  0.5006570013024593  1.0000
