data_image0
_chemical_formula_structural       COFe6Rh12Zn6
_chemical_formula_sum              "C1 O1 Fe6 Rh12 Zn6"
_cell_length_a       5.99113404
_cell_length_b       7.3376106894927355
_cell_length_c       102.26324421000001
_cell_angle_alpha    94.34775314487628
_cell_angle_beta     90.0
_cell_angle_gamma    114.09484255147109

_space_group_name_H-M_alt    "P 1"
_space_group_IT_number       1

loop_
  _space_group_symop_operation_xyz
  'x, y, z'

loop_
  _atom_site_type_symbol
  _atom_site_label
  _atom_site_symmetry_multiplicity
  _atom_site_fract_x
  _atom_site_fract_y
  _atom_site_fract_z
  _atom_site_occupancy
  C   C1        1.0  0.6829422800000001  0.32525642999999993  0.5381478738281164  1.0000
  O   O1        1.0  0.7099791200000001  0.3768151699999999  0.5494558200381074  1.0000
  Fe  Fe1       1.0  0.06420828000000012  0.12164186999999999  0.4571169306964305  1.0000
  Fe  Fe2       1.0  0.8689398500000002  0.7516894900000001  0.509767543481699  1.0000
  Fe  Fe3       1.0  0.48087494000000014  0.9549752100000001  0.48340793678950345  1.0000
  Fe  Fe4       1.0  0.7725416100000001  0.53830854  0.4702624353204274  1.0000
  Fe  Fe5       1.0  0.6437262700000002  0.24523668999999995  0.5213716515773337  1.0000
  Fe  Fe6       1.0  0.18441324000000014  0.35350136  0.4965670927560502  1.0000
  Rh  Rh1       1.0  0.6683749400000001  0.82997521  0.4636896814309685  1.0000
  Rh  Rh2       1.0  0.47096842000000017  0.47684768  0.5150809381477607  1.0000
  Rh  Rh3       1.0  0.08504161000000017  0.6633085400000001  0.4899806906789623  1.0000
  Rh  Rh4       1.0  0.8767082800000001  0.24664186999999999  0.4768351860549654  1.0000
  Rh  Rh5       1.0  0.4600416100000001  0.41330854000000006  0.45054417996189244  1.0000
  Rh  Rh6       1.0  0.2753036100000001  0.04502478999999998  0.5039285926344548  1.0000
  Rh  Rh7       1.0  0.3767082800000002  0.24664186999999999  0.4768351860549654  1.0000
  Rh  Rh8       1.0  0.9600416100000003  0.41330854000000006  0.45054417996189244  1.0000
  Rh  Rh9       1.0  0.7717390100000002  0.05012462999999998  0.5028136404485409  1.0000
  Rh  Rh10      1.0  0.16837494000000008  0.82997521  0.4636896814309685  1.0000
  Rh  Rh11      1.0  0.01912506000000008  0.4979292999999999  0.5143857828860487  1.0000
  Rh  Rh12      1.0  0.5850416100000002  0.6633085400000001  0.4899806906789623  1.0000
  Zn  Zn1       1.0  0.5642082800000001  0.12164186999999999  0.4571169306964305  1.0000
  Zn  Zn2       1.0  0.42622000000000015  0.81956662  0.5165920253514462  1.0000
  Zn  Zn3       1.0  0.9808749400000002  0.9549752100000001  0.48340793678950345  1.0000
  Zn  Zn4       1.0  0.2725416100000001  0.53830854  0.4702624353204274  1.0000
  Zn  Zn5       1.0  0.0751925300000001  0.17795556999999998  0.5229814089308333  1.0000
  Zn  Zn6       1.0  0.6776667  0.35655240999999993  0.49644819009877783  1.0000
