data_image0
_chemical_formula_structural       COGe12Mo6
_chemical_formula_sum              "C1 O1 Ge12 Mo6"
_cell_length_a       4.788013985021728
_cell_length_b       6.7442187087939915
_cell_length_c       101.15156844
_cell_angle_alpha    91.63802670542917
_cell_angle_beta     94.19624594293101
_cell_angle_gamma    100.71821026256433

_space_group_name_H-M_alt    "P 1"
_space_group_IT_number       1

loop_
  _space_group_symop_operation_xyz
  'x, y, z'

loop_
  _atom_site_type_symbol
  _atom_site_label
  _atom_site_symmetry_multiplicity
  _atom_site_fract_x
  _atom_site_fract_y
  _atom_site_fract_z
  _atom_site_occupancy
  C   C1        1.0  0.30633771  0.0019710050000000252  0.5427272260269543  1.0000
  O   O1        1.0  0.31721683999999994  0.05905551500000003  0.5538461186023448  1.0000
  Ge  Ge1       1.0  0.3581898799999999  0.283597645  0.5152492554876906  1.0000
  Ge  Ge2       1.0  0.96514703  0.862722405  0.500272848399691  1.0000
  Ge  Ge3       1.0  0.7536828600000001  0.7254380150000002  0.5282063885495593  1.0000
  Ge  Ge4       1.0  0.034852969999999976  0.24220109500000003  0.49014948476793885  1.0000
  Ge  Ge5       1.0  0.8085513400000001  0.11396139500000005  0.5201901379214988  1.0000
  Ge  Ge6       1.0  0.41297168999999995  0.6629132150000001  0.5050636882352675  1.0000
  Ge  Ge7       1.0  0.20826887999999996  0.9980289950000001  0.4707518409301923  1.0000
  Ge  Ge8       1.0  0.8273165  0.569457565  0.45608663980676434  1.0000
  Ge  Ge9       1.0  0.5892212599999999  0.42660042500000006  0.485417038973928  1.0000
  Ge  Ge10      1.0  0.8919958199999999  0.9564868050000002  0.44615388139765516  1.0000
  Ge  Ge11      1.0  0.65390058  0.813629665  0.47548428364451095  1.0000
  Ge  Ge12      1.0  0.2729482  0.385058235  0.460819082521083  1.0000
  Mo  Mo1       1.0  0.5025132999999999  0.04868647500000003  0.4951158608928014  1.0000
  Mo  Mo2       1.0  0.28869911  0.9051581950000002  0.5234506695224853  1.0000
  Mo  Mo3       1.0  0.87700116  0.4740496250000001  0.5089246889593133  1.0000
  Mo  Mo4       1.0  0.35965616  0.7629721850000001  0.45112026060220967  1.0000
  Mo  Mo5       1.0  0.12156091999999998  0.6201150450000001  0.4804506628490655  1.0000
  Mo  Mo6       1.0  0.74060854  0.19154361500000003  0.4657854617256376  1.0000
