data_image0
_chemical_formula_structural       COMn4Sb4Rh8Mn4Sb4Rh8
_chemical_formula_sum              "C1 O1 Mn8 Sb8 Rh16"
_cell_length_a       8.970332156611333
_cell_length_b       5.80601991
_cell_length_c       111.02745062
_cell_angle_alpha    90.0
_cell_angle_beta     70.31399965599844
_cell_angle_gamma    49.66564797189784

_space_group_name_H-M_alt    "P 1"
_space_group_IT_number       1

loop_
  _space_group_symop_operation_xyz
  'x, y, z'

loop_
  _atom_site_type_symbol
  _atom_site_label
  _atom_site_symmetry_multiplicity
  _atom_site_fract_x
  _atom_site_fract_y
  _atom_site_fract_z
  _atom_site_occupancy
  C   C1        1.0  0.14368917499999997  0.15209693499999993  0.5554315054531112  1.0000
  O   O1        1.0  0.011552064999999993  0.3033436449999999  0.56684749035386  1.0000
  Mn  Mn1       1.0  0.829483965  0.7231113949999998  0.5390700305995308  1.0000
  Mn  Mn2       1.0  0.583298165  0.4393910949999999  0.5258426512153128  1.0000
  Mn  Mn3       1.0  0.11344793499999999  0.9212885549999996  0.49474005880844674  1.0000
  Mn  Mn4       1.0  0.363447935  0.17128855499999993  0.5101369470228367  1.0000
  Sb  Sb1       1.0  0.5781679649999999  0.9537114449999997  0.5249390214675623  1.0000
  Sb  Sb2       1.0  0.363447935  0.6712885549999998  0.5101369470228367  1.0000
  Sb  Sb3       1.0  0.8306203549999999  0.200614375  0.5420582153138379  1.0000
  Sb  Sb4       1.0  0.11344793499999999  0.42128855499999995  0.49474005880844674  1.0000
  Rh  Rh1       1.0  0.9884479349999999  0.7962885549999997  0.5178353892824051  1.0000
  Rh  Rh2       1.0  0.7384479349999999  0.5462885549999998  0.5024385010680154  1.0000
  Rh  Rh3       1.0  0.17027670499999997  0.1229730649999999  0.536647884720744  1.0000
  Rh  Rh4       1.0  0.47562805499999994  0.3156602249999999  0.5466249233706318  1.0000
  Rh  Rh5       1.0  0.9884479349999999  0.2962885549999999  0.5178353892824051  1.0000
  Rh  Rh6       1.0  0.7384479349999999  0.046288554999999926  0.5024385010680154  1.0000
  Rh  Rh7       1.0  0.200619265  0.5763038949999998  0.5337084256108577  1.0000
  Rh  Rh8       1.0  0.47651626499999994  0.8045567449999999  0.5464574360340348  1.0000
  Mn  Mn5       1.0  0.8634479349999999  0.6712885549999998  0.4793431705940569  1.0000
  Mn  Mn6       1.0  0.6134479349999999  0.4212885549999999  0.46394628607491983  1.0000
  Mn  Mn7       1.0  0.11344793499999999  0.9212885549999996  0.43315250964614  1.0000
  Mn  Mn8       1.0  0.363447935  0.17128855499999993  0.44854939786052994  1.0000
  Sb  Sb5       1.0  0.6134479349999999  0.9212885549999997  0.46394628607491983  1.0000
  Sb  Sb6       1.0  0.363447935  0.6712885549999998  0.44854939786052994  1.0000
  Sb  Sb7       1.0  0.8634479349999999  0.17128855499999998  0.4793431705940569  1.0000
  Sb  Sb8       1.0  0.11344793499999999  0.42128855499999995  0.43315250964614  1.0000
  Rh  Rh9       1.0  0.9884479349999999  0.7962885549999997  0.45624784012009845  1.0000
  Rh  Rh10      1.0  0.7384479349999999  0.5462885549999998  0.4408509556009614  1.0000
  Rh  Rh11      1.0  0.23844793499999994  0.04628855499999996  0.47164472833448834  1.0000
  Rh  Rh12      1.0  0.488447935  0.29628855499999984  0.4870416165488783  1.0000
  Rh  Rh13      1.0  0.9884479349999999  0.2962885549999999  0.45624784012009845  1.0000
  Rh  Rh14      1.0  0.7384479349999999  0.046288554999999926  0.4408509556009614  1.0000
  Rh  Rh15      1.0  0.23844793499999994  0.5462885549999998  0.47164472833448834  1.0000
  Rh  Rh16      1.0  0.488447935  0.7962885549999997  0.4870416165488783  1.0000
