data_image0
_chemical_formula_structural       CONb24
_chemical_formula_sum              "C1 O1 Nb24"
_cell_length_a       6.6762165
_cell_length_b       6.6762165
_cell_length_c       100.04297429
_cell_angle_alpha    90.0
_cell_angle_beta     90.0
_cell_angle_gamma    90.0

_space_group_name_H-M_alt    "P 1"
_space_group_IT_number       1

loop_
  _space_group_symop_operation_xyz
  'x, y, z'

loop_
  _atom_site_type_symbol
  _atom_site_label
  _atom_site_symmetry_multiplicity
  _atom_site_fract_x
  _atom_site_fract_y
  _atom_site_fract_z
  _atom_site_occupancy
  C   C1        1.0  0.50000644  0.624997245  0.5462984085546355  1.0000
  O   O1        1.0  0.49999964999999996  0.6250009350000001  0.5580594538786874  1.0000
  Nb  Nb1       1.0  2.6799999999465215e-06  0.12500082499999998  0.4586239191676635  1.0000
  Nb  Nb2       1.0  0.25000268  0.375000825  0.4419405461213126  1.0000
  Nb  Nb3       1.0  2.6799999999465215e-06  0.12500082499999998  0.4919906622573581  1.0000
  Nb  Nb4       1.0  0.25000268  0.375000825  0.4753072892110073  1.0000
  Nb  Nb5       1.0  3.869999999946521e-06  0.124999175  0.5225736960214213  1.0000
  Nb  Nb6       1.0  0.25113877999999995  0.376138545  0.5087404618165161  1.0000
  Nb  Nb7       1.0  2.6799999999465215e-06  0.6250008250000001  0.4586239191676635  1.0000
  Nb  Nb8       1.0  0.25000268  0.875000825  0.4419405461213126  1.0000
  Nb  Nb9       1.0  2.6799999999465215e-06  0.6250008250000001  0.4919906622573581  1.0000
  Nb  Nb10      1.0  0.25000268  0.875000825  0.4753072892110073  1.0000
  Nb  Nb11      1.0  0.9999973200000001  0.6250037850000001  0.5237629047750714  1.0000
  Nb  Nb12      1.0  0.25113984  0.8738626349999999  0.5087405849397995  1.0000
  Nb  Nb13      1.0  0.5000026799999999  0.12500082499999998  0.4586239191676635  1.0000
  Nb  Nb14      1.0  0.7500026799999999  0.375000825  0.4419405461213126  1.0000
  Nb  Nb15      1.0  0.5000026799999999  0.12500082499999998  0.4919906622573581  1.0000
  Nb  Nb16      1.0  0.7500026799999999  0.375000825  0.4753072892110073  1.0000
  Nb  Nb17      1.0  0.49999624  0.125003185  0.5237629257961198  1.0000
  Nb  Nb18      1.0  0.74888391  0.376119185  0.5087400984526803  1.0000
  Nb  Nb19      1.0  0.5000026799999999  0.6250008250000001  0.4586239191676635  1.0000
  Nb  Nb20      1.0  0.7500026799999999  0.875000825  0.4419405461213126  1.0000
  Nb  Nb21      1.0  0.5000026799999999  0.6250008250000001  0.4919906622573581  1.0000
  Nb  Nb22      1.0  0.7500026799999999  0.875000825  0.4753072892110073  1.0000
  Nb  Nb23      1.0  0.5000089699999999  0.6249963550000001  0.5247315847134181  1.0000
  Nb  Nb24      1.0  0.7488835900000002  0.873882835  0.5087401795338667  1.0000
