data_image0
_chemical_formula_structural       CONa16
_chemical_formula_sum              "C1 O1 Na16"
_cell_length_a       7.4151433
_cell_length_b       7.415143313661646
_cell_length_c       106.32663495
_cell_angle_alpha    90.0
_cell_angle_beta     90.0
_cell_angle_gamma    109.47122065180618

_space_group_name_H-M_alt    "P 1"
_space_group_IT_number       1

loop_
  _space_group_symop_operation_xyz
  'x, y, z'

loop_
  _atom_site_type_symbol
  _atom_site_label
  _atom_site_symmetry_multiplicity
  _atom_site_fract_x
  _atom_site_fract_y
  _atom_site_fract_z
  _atom_site_occupancy
  C   C1        1.0  0.5134674149999999  0.23454308000000001  0.5474953224585166  1.0000
  O   O1        1.0  0.5572287349999999  0.19077168  0.5572653099538759  1.0000
  Na  Na1       1.0  0.37817353499999995  0.36979733000000004  0.527884236162507  1.0000
  Na  Na2       1.0  0.12751874499999993  0.12672626  0.4998753365588974  1.0000
  Na  Na3       1.0  0.372973625  0.37500000000000006  0.4712056320589268  1.0000
  Na  Na4       1.0  0.12297362499999995  0.12500000000000003  0.4427346900461241  1.0000
  Na  Na5       1.0  0.37067334499999993  0.87065279  0.527643867377855  1.0000
  Na  Na6       1.0  0.12268720499999992  0.62528507  0.4996885933650903  1.0000
  Na  Na7       1.0  0.3729736249999999  0.875  0.4712056320589268  1.0000
  Na  Na8       1.0  0.12297362499999993  0.625  0.4427346900461241  1.0000
  Na  Na9       1.0  0.8773127949999999  0.37729398  0.5276436794696302  1.0000
  Na  Na10      1.0  0.6222748749999999  0.12569655000000002  0.4994435678729764  1.0000
  Na  Na11      1.0  0.8729736249999999  0.37500000000000006  0.4712056320589268  1.0000
  Na  Na12      1.0  0.6229736249999999  0.12500000000000003  0.4427346900461241  1.0000
  Na  Na13      1.0  0.8731498249999998  0.87482157  0.52783461814162  1.0000
  Na  Na14      1.0  0.621249945  0.62045708  0.49987523064698886  1.0000
  Na  Na15      1.0  0.8729736249999999  0.875  0.4712056320589268  1.0000
  Na  Na16      1.0  0.6229736249999999  0.625  0.4427346900461241  1.0000
