data_image0
_chemical_formula_structural       COPt12Si4
_chemical_formula_sum              "C1 O1 Pt12 Si4"
_cell_length_a       5.561720115525657
_cell_length_b       5.561720111009525
_cell_length_c       101.87316156
_cell_angle_alpha    91.53430778197428
_cell_angle_beta     91.53430778072813
_cell_angle_gamma    91.05126369470739

_space_group_name_H-M_alt    "P 1"
_space_group_IT_number       1

loop_
  _space_group_symop_operation_xyz
  'x, y, z'

loop_
  _atom_site_type_symbol
  _atom_site_label
  _atom_site_symmetry_multiplicity
  _atom_site_fract_x
  _atom_site_fract_y
  _atom_site_fract_z
  _atom_site_occupancy
  C   C1        1.0  0.5632234799999999  0.8659909299999999  0.5354244819795784  1.0000
  O   O1        1.0  0.5234525099999999  0.87796217  0.5470036700578202  1.0000
  Pt  Pt1       1.0  0.25285687  0.70344096  0.5229954047627353  1.0000
  Pt  Pt2       1.0  0.72706083  0.14158982  0.5249573971261875  1.0000
  Pt  Pt3       1.0  0.020941190000000005  0.37051670000000003  0.5059503065039921  1.0000
  Pt  Pt4       1.0  0.3983671399999999  0.04379487000000001  0.5053640143416179  1.0000
  Pt  Pt5       1.0  0.7438551800000001  0.6353692599999999  0.5223485094807601  1.0000
  Pt  Pt6       1.0  0.7464147999999999  0.7427579099999999  0.4921052093957096  1.0000
  Pt  Pt7       1.0  0.6871544699999999  0.23173046000000003  0.486746476317173  1.0000
  Pt  Pt8       1.0  0.23538734999999997  0.6834975799999999  0.486746476317173  1.0000
  Pt  Pt9       1.0  0.5268005099999999  0.8920844200000001  0.46719203659040814  1.0000
  Pt  Pt10      1.0  0.8957413099999999  0.5231436199999999  0.46719203659040814  1.0000
  Pt  Pt11      1.0  0.17612702  0.17247013  0.4813877432386364  1.0000
  Pt  Pt12      1.0  0.24641480000000002  0.24275791  0.45299632994217975  1.0000
  Si  Si1       1.0  0.4619317399999999  0.47973558999999993  0.504982105183268  1.0000
  Si  Si2       1.0  0.97905881  0.94254333  0.5095573904163294  1.0000
  Si  Si3       1.0  0.9598620199999999  0.95620513  0.46431402040884356  1.0000
  Si  Si4       1.0  0.4626798  0.45902290999999995  0.4700700527719726  1.0000
