data_image0
_chemical_formula_structural       COCa12
_chemical_formula_sum              "C1 O1 Ca12"
_cell_length_a       7.660372062674917
_cell_length_b       9.489601807117706
_cell_length_c       100.61169845
_cell_angle_alpha    93.84253086431966
_cell_angle_beta     90.99233828443298
_cell_angle_gamma    105.53325369870515

_space_group_name_H-M_alt    "P 1"
_space_group_IT_number       1

loop_
  _space_group_symop_operation_xyz
  'x, y, z'

loop_
  _atom_site_type_symbol
  _atom_site_label
  _atom_site_symmetry_multiplicity
  _atom_site_fract_x
  _atom_site_fract_y
  _atom_site_fract_z
  _atom_site_occupancy
  C   C1        1.0  0.9212806750000002  0.39327195  0.5309387009455458  1.0000
  O   O1        1.0  0.889590175  0.31225912999999994  0.5405096804548242  1.0000
  Ca  Ca1       1.0  0.6647048050000001  0.8100472399999998  0.46160320912537456  1.0000
  Ca  Ca2       1.0  0.28970480500000007  0.4767139  0.4742805344363328  1.0000
  Ca  Ca3       1.0  0.9147048050000002  0.14338056999999998  0.48695786278984954  1.0000
  Ca  Ca4       1.0  0.18553813500000005  0.86560279  0.47216764789869264  1.0000
  Ca  Ca5       1.0  0.810538135  0.53226946  0.48484497320965075  1.0000
  Ca  Ca6       1.0  0.5605381349999999  0.19893612  0.4594903195451759  1.0000
  Ca  Ca7       1.0  0.5447575649999998  0.80240381  0.4984158736296352  1.0000
  Ca  Ca8       1.0  0.140560885  0.47177623  0.5132193662463542  1.0000
  Ca  Ca9       1.0  0.7597120250000001  0.12179589000000002  0.5248565320619131  1.0000
  Ca  Ca10      1.0  0.07871932499999999  0.8782041100000001  0.5096135601163455  1.0000
  Ca  Ca11      1.0  0.722721135  0.54355833  0.5223401261950621  1.0000
  Ca  Ca12      1.0  0.444924005  0.2076682  0.49693184439338334  1.0000
