data_image0
_chemical_formula_structural       COCa12
_chemical_formula_sum              "C1 O1 Ca12"
_cell_length_a       7.921015372534211
_cell_length_b       6.55710905
_cell_length_c       105.64456915
_cell_angle_alpha    90.0
_cell_angle_beta     119.99999994765466
_cell_angle_gamma    90.0

_space_group_name_H-M_alt    "P 1"
_space_group_IT_number       1

loop_
  _space_group_symop_operation_xyz
  'x, y, z'

loop_
  _atom_site_type_symbol
  _atom_site_label
  _atom_site_symmetry_multiplicity
  _atom_site_fract_x
  _atom_site_fract_y
  _atom_site_fract_z
  _atom_site_occupancy
  C   C1        1.0  0.29772915  0.74951945  0.551133413381988  1.0000
  O   O1        1.0  0.36079878  0.74892593  0.5637058300321469  1.0000
  Ca  Ca1       1.0  0.33243964  0.24993933000000004  0.43629416996785303  1.0000
  Ca  Ca2       1.0  0.16577298000000001  0.74993933  0.4487904993486551  1.0000
  Ca  Ca3       1.0  0.33243964  0.24993933000000004  0.47378315473625043  1.0000
  Ca  Ca4       1.0  0.16577298000000001  0.74993933  0.4862794841170525  1.0000
  Ca  Ca5       1.0  0.33517639  0.25005477000000004  0.510986856950174  1.0000
  Ca  Ca6       1.0  0.16434801000000002  0.75006067  0.5231181624557633  1.0000
  Ca  Ca7       1.0  0.8324396399999999  0.24993933000000004  0.43629416996785303  1.0000
  Ca  Ca8       1.0  0.66577298  0.74993933  0.448790499348655  1.0000
  Ca  Ca9       1.0  0.8324396399999999  0.24993933000000004  0.47378315473625043  1.0000
  Ca  Ca10      1.0  0.66577298  0.74993933  0.4862794841170525  1.0000
  Ca  Ca11      1.0  0.8356519899999999  0.2500614400000001  0.5111041374912964  1.0000
  Ca  Ca12      1.0  0.67077525  0.75003242  0.5236382895092094  1.0000
