data_image0
_chemical_formula_structural       CONb16
_chemical_formula_sum              "C1 O1 Nb16"
_cell_length_a       5.7817731
_cell_length_b       5.78177310466129
_cell_length_c       103.04558577
_cell_angle_alpha    90.0
_cell_angle_beta     90.0
_cell_angle_gamma    109.47122061815932

_space_group_name_H-M_alt    "P 1"
_space_group_IT_number       1

loop_
  _space_group_symop_operation_xyz
  'x, y, z'

loop_
  _atom_site_type_symbol
  _atom_site_label
  _atom_site_symmetry_multiplicity
  _atom_site_fract_x
  _atom_site_fract_y
  _atom_site_fract_z
  _atom_site_occupancy
  C   C1        1.0  0.12355619499999995  0.12355945000000002  0.5351739583244702  1.0000
  O   O1        1.0  0.12356886499999997  0.12357244000000003  0.5469799282088144  1.0000
  Nb  Nb1       1.0  0.37737013500000005  0.37736703000000005  0.5209395421318621  1.0000
  Nb  Nb2       1.0  0.12356747499999997  0.12356319000000003  0.4988044040663852  1.0000
  Nb  Nb3       1.0  0.373565595  0.37356256000000004  0.4759264284169989  1.0000
  Nb  Nb4       1.0  0.12356559499999996  0.12356256000000003  0.45302007179118564  1.0000
  Nb  Nb5       1.0  0.370686025  0.87644055  0.5207602705675431  1.0000
  Nb  Nb6       1.0  0.12356675499999999  0.6235646400000001  0.498945619467172  1.0000
  Nb  Nb7       1.0  0.373565595  0.87356256  0.4759264284169989  1.0000
  Nb  Nb8       1.0  0.12356559499999992  0.62356256  0.45302007179118564  1.0000
  Nb  Nb9       1.0  0.876443805  0.37068214000000005  0.520760366774243  1.0000
  Nb  Nb10      1.0  0.623565635  0.12356279000000003  0.49894562908784196  1.0000
  Nb  Nb11      1.0  0.873565595  0.37356256000000004  0.4759264284169989  1.0000
  Nb  Nb12      1.0  0.6235655950000001  0.12356256000000003  0.45302007179118564  1.0000
  Nb  Nb13      1.0  0.8697598950000001  0.8697570500000001  0.5209397024763617  1.0000
  Nb  Nb14      1.0  0.623565685  0.6235614700000001  0.4987572788179564  1.0000
  Nb  Nb15      1.0  0.8735655950000002  0.87356256  0.4759264284169989  1.0000
  Nb  Nb16      1.0  0.623565595  0.62356256  0.45302007179118564  1.0000
