data_image0
_chemical_formula_structural       CONb12
_chemical_formula_sum              "C1 O1 Nb12"
_cell_length_a       4.72079797
_cell_length_b       4.720797969098676
_cell_length_c       104.69063858999999
_cell_angle_alpha    90.0
_cell_angle_beta     90.0
_cell_angle_gamma    60.00000006375655

_space_group_name_H-M_alt    "P 1"
_space_group_IT_number       1

loop_
  _space_group_symop_operation_xyz
  'x, y, z'

loop_
  _atom_site_type_symbol
  _atom_site_label
  _atom_site_symmetry_multiplicity
  _atom_site_fract_x
  _atom_site_fract_y
  _atom_site_fract_z
  _atom_site_occupancy
  C   C1        1.0  0.8340207500000002  0.8340339949999999  0.5502568456733232  1.0000
  O   O1        1.0  0.8332503900000001  0.8332823250000001  0.5616807886549344  1.0000
  Nb  Nb1       1.0  0.83264592  0.832632675  0.44752374901711467  1.0000
  Nb  Nb2       1.0  0.16597925000000002  0.16596600500000003  0.4843418963916776  1.0000
  Nb  Nb3       1.0  0.49931258  0.499299335  0.4659328243612128  1.0000
  Nb  Nb4       1.0  0.83264592  0.832632675  0.47513735871962853  1.0000
  Nb  Nb5       1.0  0.16597925000000002  0.16596600500000003  0.4567282866891637  1.0000
  Nb  Nb6       1.0  0.49931258  0.499299335  0.4383192113450655  1.0000
  Nb  Nb7       1.0  0.83264592  0.832632675  0.5027509717357758  1.0000
  Nb  Nb8       1.0  0.16711850000000003  0.16709850500000004  0.5384079656713576  1.0000
  Nb  Nb9       1.0  0.50252102  0.5025061150000001  0.5221002441369881  1.0000
  Nb  Nb10      1.0  0.8329163199999999  0.8329010450000002  0.5303080508542455  1.0000
  Nb  Nb11      1.0  0.16791314000000004  0.16789515500000005  0.5126207113512671  1.0000
  Nb  Nb12      1.0  0.49931258  0.499299335  0.49354643406372667  1.0000
