data_image0
_chemical_formula_structural       CONa6
_chemical_formula_sum              "C1 O1 Na6"
_cell_length_a       6.05443916
_cell_length_b       6.054439161535188
_cell_length_c       99.66057323
_cell_angle_alpha    90.0
_cell_angle_beta     90.0
_cell_angle_gamma    60.00000000838783

_space_group_name_H-M_alt    "P 1"
_space_group_IT_number       1

loop_
  _space_group_symop_operation_xyz
  'x, y, z'

loop_
  _atom_site_type_symbol
  _atom_site_label
  _atom_site_symmetry_multiplicity
  _atom_site_fract_x
  _atom_site_fract_y
  _atom_site_fract_z
  _atom_site_occupancy
  C   C1        1.0  0.16662070999999995  0.9999950999999999  0.5368745768243481  1.0000
  O   O1        1.0  0.16845407999999995  0.0018282600000000433  0.5484735234002475  1.0000
  Na  Na1       1.0  0.8333792899999999  0.6667542900000001  0.4639271409420406  1.0000
  Na  Na2       1.0  0.16663077999999992  4.900000000043465e-06  0.5109654264469278  1.0000
  Na  Na3       1.0  0.49899589000000005  0.3323689800000001  0.48919830099936495  1.0000
  Na  Na4       1.0  0.8333037099999999  0.6666815600000001  0.49908329534660334  1.0000
  Na  Na5       1.0  0.16671261999999995  8.762000000004345e-05  0.47632780528432855  1.0000
  Na  Na6       1.0  0.5000459499999999  0.33342095000000005  0.4515264765997525  1.0000
