data_image0
_chemical_formula_structural       CONa6
_chemical_formula_sum              "C1 O1 Na6"
_cell_length_a       6.05443916
_cell_length_b       6.054439161535188
_cell_length_c       99.66057323
_cell_angle_alpha    90.0
_cell_angle_beta     90.0
_cell_angle_gamma    60.00000000838783

_space_group_name_H-M_alt    "P 1"
_space_group_IT_number       1

loop_
  _space_group_symop_operation_xyz
  'x, y, z'

loop_
  _atom_site_type_symbol
  _atom_site_label
  _atom_site_symmetry_multiplicity
  _atom_site_fract_x
  _atom_site_fract_y
  _atom_site_fract_z
  _atom_site_occupancy
  C   C1        1.0  0.5024484150000001  0.502448625  0.5276855751639336  1.0000
  O   O1        1.0  0.502341975  0.502342465  0.5394910195700472  1.0000
  Na  Na1       1.0  0.8333771250000002  0.833377155  0.472909644772241  1.0000
  Na  Na2       1.0  0.16662287499999998  0.16662284499999996  0.5203282596141331  1.0000
  Na  Na3       1.0  0.5003990449999999  0.5003988650000001  0.5006852963706445  1.0000
  Na  Na4       1.0  0.8332811450000001  0.833281435  0.5084641551101076  1.0000
  Na  Na5       1.0  0.166710455  0.16671048499999996  0.485310309114529  1.0000
  Na  Na6       1.0  0.5000437849999999  0.500043815  0.4605089804299529  1.0000
