data_image0
_chemical_formula_structural       CONb16
_chemical_formula_sum              "C1 O1 Nb16"
_cell_length_a       5.7817731
_cell_length_b       4.72079797
_cell_length_c       102.70664772
_cell_angle_alpha    90.0
_cell_angle_beta     90.0
_cell_angle_gamma    90.0

_space_group_name_H-M_alt    "P 1"
_space_group_IT_number       1

loop_
  _space_group_symop_operation_xyz
  'x, y, z'

loop_
  _atom_site_type_symbol
  _atom_site_label
  _atom_site_symmetry_multiplicity
  _atom_site_fract_x
  _atom_site_fract_y
  _atom_site_fract_z
  _atom_site_occupancy
  C   C1        1.0  0.41494637999999995  1.9225000000057703e-05  0.5432327035781308  1.0000
  O   O1        1.0  0.49185114  0.999980775  0.5546050911431587  1.0000
  Nb  Nb1       1.0  0.40843686999999995  2.0485000000057705e-05  0.4984694454744699  1.0000
  Nb  Nb2       1.0  0.44902409000000004  0.5000229650000001  0.5385127423882973  1.0000
  Nb  Nb3       1.0  0.24299946  2.4055000000057703e-05  0.525531795055916  1.0000
  Nb  Nb4       1.0  0.07723464999999999  0.500018445  0.5119294934835905  1.0000
  Nb  Nb5       1.0  0.24177021000000004  2.0485000000057705e-05  0.4453949088568414  1.0000
  Nb  Nb6       1.0  0.24177021000000004  0.5000204850000001  0.485200812912299  1.0000
  Nb  Nb7       1.0  0.07510354  2.0485000000057705e-05  0.47193217716565566  1.0000
  Nb  Nb8       1.0  0.40843686999999995  0.5000204850000001  0.4586635414190124  1.0000
  Nb  Nb9       1.0  0.90843687  2.0485000000057705e-05  0.4984694454744699  1.0000
  Nb  Nb10      1.0  0.92489646  0.500018815  0.5363926289867464  1.0000
  Nb  Nb11      1.0  0.7386767500000001  2.1905000000057704e-05  0.5248308162699716  1.0000
  Nb  Nb12      1.0  0.57960032  0.500023995  0.5122259965172464  1.0000
  Nb  Nb13      1.0  0.7417702100000001  2.0485000000057705e-05  0.4453949088568414  1.0000
  Nb  Nb14      1.0  0.7417702100000001  0.5000204850000001  0.485200812912299  1.0000
  Nb  Nb15      1.0  0.57510354  2.0485000000057705e-05  0.47193217716565566  1.0000
  Nb  Nb16      1.0  0.90843687  0.5000204850000001  0.4586635414190124  1.0000
