data_image0
_chemical_formula_structural       COIr6Nb6
_chemical_formula_sum              "C1 O1 Ir6 Nb6"
_cell_length_a       4.867716245549872
_cell_length_b       5.66385653653878
_cell_length_c       99.57274641000001
_cell_angle_alpha    86.13062817196261
_cell_angle_beta     88.8383628631581
_cell_angle_gamma    75.45179574260918

_space_group_name_H-M_alt    "P 1"
_space_group_IT_number       1

loop_
  _space_group_symop_operation_xyz
  'x, y, z'

loop_
  _atom_site_type_symbol
  _atom_site_label
  _atom_site_symmetry_multiplicity
  _atom_site_fract_x
  _atom_site_fract_y
  _atom_site_fract_z
  _atom_site_occupancy
  C   C1        1.0  0.6226098600000001  0.7409932199999999  0.5337377639912095  1.0000
  O   O1        1.0  0.61548039  0.78295881  0.5452163389301476  1.0000
  Ir  Ir1       1.0  0.7306877099999999  0.44036785  0.49163720381304804  1.0000
  Ir  Ir2       1.0  0.6402599900000001  0.6724044399999999  0.5155148940074519  1.0000
  Ir  Ir3       1.0  0.21510162  0.08268431  0.5037544813725073  1.0000
  Ir  Ir4       1.0  0.3659738700000001  0.56474171  0.4547836610698522  1.0000
  Ir  Ir5       1.0  0.28264054  0.81474171  0.479533362370356  1.0000
  Ir  Ir6       1.0  0.8243072  0.18974170999999998  0.4671585117201041  1.0000
  Nb  Nb1       1.0  0.1756928  0.56349931  0.5055689273691419  1.0000
  Nb  Nb2       1.0  0.7483257100000001  0.9352582899999999  0.49102689404758737  1.0000
  Nb  Nb3       1.0  0.71781424  0.16584869000000002  0.5146715668128763  1.0000
  Nb  Nb4       1.0  0.8243072  0.68974171  0.46715851172010403  1.0000
  Nb  Nb5       1.0  0.36597387000000003  0.06474171  0.4547836610698522  1.0000
  Nb  Nb6       1.0  0.28264054000000005  0.31474171  0.479533362370356  1.0000
