data_image0
_chemical_formula_structural       CONi9Pt9
_chemical_formula_sum              "C1 O1 Ni9 Pt9"
_cell_length_a       4.5528446851943185
_cell_length_b       5.30880960419122
_cell_length_c       101.37271864
_cell_angle_alpha    91.68947962645385
_cell_angle_beta     94.01449918321488
_cell_angle_gamma    103.92908378630878

_space_group_name_H-M_alt    "P 1"
_space_group_IT_number       1

loop_
  _space_group_symop_operation_xyz
  'x, y, z'

loop_
  _atom_site_type_symbol
  _atom_site_label
  _atom_site_symmetry_multiplicity
  _atom_site_fract_x
  _atom_site_fract_y
  _atom_site_fract_z
  _atom_site_occupancy
  C   C1        1.0  0.7537159600000001  0.977785595  0.5468440990653299  1.0000
  O   O1        1.0  0.8453018600000001  0.02221440500000003  0.5581277373231017  1.0000
  Ni  Ni1       1.0  0.27432391  0.5766066649999999  0.4533344455084037  1.0000
  Ni  Ni2       1.0  0.75580539  0.946977035  0.464796628339909  1.0000
  Ni  Ni3       1.0  0.7928424300000001  0.20623629500000004  0.44187226267689833  1.0000
  Ni  Ni4       1.0  0.7187683600000001  0.687717775  0.4877209909081304  1.0000
  Ni  Ni5       1.0  0.20024984000000007  0.058088145000000035  0.4991831737396358  1.0000
  Ni  Ni6       1.0  0.2372868800000001  0.3173474050000001  0.4762588080766251  1.0000
  Ni  Ni7       1.0  0.15469814000000007  0.803832615  0.5220369255993655  1.0000
  Ni  Ni8       1.0  0.6454934800000001  0.17575778500000003  0.5326672136422962  1.0000
  Ni  Ni9       1.0  0.6827617500000001  0.429654865  0.5108243313205618  1.0000
  Pt  Pt1       1.0  0.7558053900000001  0.446977035  0.464796628339909  1.0000
  Pt  Pt2       1.0  0.7928424300000001  0.706236295  0.44187226267689844  1.0000
  Pt  Pt3       1.0  0.27432391000000006  0.07660666500000003  0.4533344455084036  1.0000
  Pt  Pt4       1.0  0.20024984000000004  0.5580881449999999  0.4991831737396357  1.0000
  Pt  Pt5       1.0  0.2372868800000001  0.817347405  0.4762588080766252  1.0000
  Pt  Pt6       1.0  0.7187683600000001  0.187717775  0.4877209909081304  1.0000
  Pt  Pt7       1.0  0.6412253200000001  0.6767001749999999  0.5335913919475483  1.0000
  Pt  Pt8       1.0  0.68393338  0.930757535  0.5102912662743283  1.0000
  Pt  Pt9       1.0  0.16403796000000007  0.301155225  0.5226500342713193  1.0000
