data_image0
_chemical_formula_structural       CONb4Ni12
_chemical_formula_sum              "C1 O1 Nb4 Ni12"
_cell_length_a       4.58804151406554
_cell_length_b       5.20071825
_cell_length_c       104.28399644999999
_cell_angle_alpha    90.0
_cell_angle_beta     91.07069707422261
_cell_angle_gamma    90.0

_space_group_name_H-M_alt    "P 1"
_space_group_IT_number       1

loop_
  _space_group_symop_operation_xyz
  'x, y, z'

loop_
  _atom_site_type_symbol
  _atom_site_label
  _atom_site_symmetry_multiplicity
  _atom_site_fract_x
  _atom_site_fract_y
  _atom_site_fract_z
  _atom_site_occupancy
  C   C1        1.0  0.7796557399999999  0.41810031  0.5330381189715631  1.0000
  O   O1        1.0  0.7910819800000001  0.43958409000000004  0.5443837571116769  1.0000
  Nb  Nb1       1.0  0.7231144  0.63407869  0.45561624288832314  1.0000
  Nb  Nb2       1.0  0.4106144  0.13407869000000003  0.47616349703150673  1.0000
  Nb  Nb3       1.0  0.7870560099999999  0.11592131000000001  0.5171463071567909  1.0000
  Nb  Nb4       1.0  0.08938559999999997  0.62977554  0.49698557809586685  1.0000
  Ni  Ni1       1.0  0.9106143999999999  0.8840786900000001  0.47616349703150673  1.0000
  Ni  Ni2       1.0  0.59615734  0.37496277  0.4969044180857816  1.0000
  Ni  Ni3       1.0  0.22311439999999996  0.38407869000000006  0.45561624288832325  1.0000
  Ni  Ni4       1.0  0.27521807  0.8675989000000001  0.5165245209459328  1.0000
  Ni  Ni5       1.0  0.4106144  0.63407869  0.47616349703150673  1.0000
  Ni  Ni6       1.0  0.09778965999999997  0.12822671000000002  0.497001746319207  1.0000
  Ni  Ni7       1.0  0.7231144  0.13407869000000003  0.45561624288832314  1.0000
  Ni  Ni8       1.0  0.7638180699999999  0.6277957300000001  0.5181704118913331  1.0000
  Ni  Ni9       1.0  0.9106143999999999  0.38407869000000006  0.47616349703150673  1.0000
  Ni  Ni10      1.0  0.5952166000000001  0.8794310700000001  0.49659147847383994  1.0000
  Ni  Ni11      1.0  0.22311439999999996  0.8840786900000001  0.45561624288832325  1.0000
  Ni  Ni12      1.0  0.2761767  0.38076901  0.516754975660842  1.0000
