data_image0
_chemical_formula_structural       CONb2Co6Nb2Co6
_chemical_formula_sum              "C1 O1 Nb4 Co12"
_cell_length_a       5.21856891
_cell_length_b       5.2185689146999925
_cell_length_c       99.22122497000001
_cell_angle_alpha    90.0
_cell_angle_beta     90.0
_cell_angle_gamma    120.00000003359597

_space_group_name_H-M_alt    "P 1"
_space_group_IT_number       1

loop_
  _space_group_symop_operation_xyz
  'x, y, z'

loop_
  _atom_site_type_symbol
  _atom_site_label
  _atom_site_symmetry_multiplicity
  _atom_site_fract_x
  _atom_site_fract_y
  _atom_site_fract_z
  _atom_site_occupancy
  C   C1        1.0  0.34491991  0.19719240999999996  0.5347881324022361  1.0000
  O   O1        1.0  0.36473676  0.22366392999999996  0.5465835927858089  1.0000
  Nb  Nb1       1.0  0.66666667  0.33338629  0.45341640721419113  1.0000
  Nb  Nb2       1.0  0.3333333299999999  0.66671963  0.4744525344529596  1.0000
  Co  Co1       1.0  0.31490949999999995  0.15750770999999997  0.4744525344529596  1.0000
  Co  Co2       1.0  0.84254525  0.68514346  0.4744525344529596  1.0000
  Co  Co3       1.0  0.15745475000000006  0.84259821  0.45341640721419113  1.0000
  Co  Co4       1.0  0.6850905000000002  0.84259821  0.45341640721419113  1.0000
  Co  Co5       1.0  0.15745475  0.31496246  0.45341640721419113  1.0000
  Co  Co6       1.0  0.84254525  0.15750770999999997  0.4744525344529596  1.0000
  Nb  Nb3       1.0  0.66447675  0.33236935  0.4953077026107629  1.0000
  Nb  Nb4       1.0  0.32993894999999995  0.66652513  0.5155423853606188  1.0000
  Co  Co7       1.0  0.31183032999999993  0.15740178999999996  0.5173989115575826  1.0000
  Co  Co8       1.0  0.82724792  0.66072686  0.5159533534614129  1.0000
  Co  Co9       1.0  0.15824266999999995  0.84160295  0.4957845369308716  1.0000
  Co  Co10      1.0  0.68398453  0.84217511  0.49570682863385235  1.0000
  Co  Co11      1.0  0.15830047999999997  0.31809252  0.49574193666874833  1.0000
  Co  Co12      1.0  0.8263016200000001  0.16662619999999997  0.5159578888505363  1.0000
