data_image0
_chemical_formula_structural       CONb6Rh6
_chemical_formula_sum              "C1 O1 Nb6 Rh6"
_cell_length_a       4.846496937427071
_cell_length_b       5.642653967684546
_cell_length_c       99.50590065
_cell_angle_alpha    86.04617475477724
_cell_angle_beta     88.74620554157408
_cell_angle_gamma    75.63122931053269

_space_group_name_H-M_alt    "P 1"
_space_group_IT_number       1

loop_
  _space_group_symop_operation_xyz
  'x, y, z'

loop_
  _atom_site_type_symbol
  _atom_site_label
  _atom_site_symmetry_multiplicity
  _atom_site_fract_x
  _atom_site_fract_y
  _atom_site_fract_z
  _atom_site_occupancy
  C   C1        1.0  0.643800825  0.16154896999999993  0.5340138263395992  1.0000
  O   O1        1.0  0.645951025  0.15237315999999998  0.5458571602268277  1.0000
  Nb  Nb1       1.0  0.7445991149999999  0.43098205  0.4902623017534824  1.0000
  Nb  Nb2       1.0  0.7105998849999999  0.6566944699999999  0.5135671828492125  1.0000
  Nb  Nb3       1.0  0.17871378499999993  0.06305910999999996  0.5044571431597845  1.0000
  Nb  Nb4       1.0  0.36295288499999995  0.562622  0.4541428397731724  1.0000
  Nb  Nb5       1.0  0.2796195549999999  0.8126220000000001  0.47885318594170045  1.0000
  Nb  Nb6       1.0  0.821286215  0.18762199999999996  0.4664980128574364  1.0000
  Rh  Rh1       1.0  0.21003727499999994  0.5760257999999999  0.5031953203061867  1.0000
  Rh  Rh2       1.0  0.728522915  0.937378  0.4909326064109916  1.0000
  Rh  Rh3       1.0  0.6466170549999999  0.16240766999999998  0.5151863261755464  1.0000
  Rh  Rh4       1.0  0.821286215  0.687622  0.46649801285743636  1.0000
  Rh  Rh5       1.0  0.36295288499999995  0.06262199999999997  0.4541428397731724  1.0000
  Rh  Rh6       1.0  0.2796195549999999  0.31262199999999996  0.47885318594170045  1.0000
