data_image0
_chemical_formula_structural       COAg2Ca4Pb2
_chemical_formula_sum              "C1 O1 Ag2 Ca4 Pb2"
_cell_length_a       5.4889012
_cell_length_b       5.4889012
_cell_length_c       101.04991408000001
_cell_angle_alpha    90.0
_cell_angle_beta     90.0
_cell_angle_gamma    90.0

_space_group_name_H-M_alt    "P 1"
_space_group_IT_number       1

loop_
  _space_group_symop_operation_xyz
  'x, y, z'

loop_
  _atom_site_type_symbol
  _atom_site_label
  _atom_site_symmetry_multiplicity
  _atom_site_fract_x
  _atom_site_fract_y
  _atom_site_fract_z
  _atom_site_occupancy
  C   C1        1.0  0.9697095600000001  0.441595925  0.5335214757976842  1.0000
  O   O1        1.0  0.89582416  0.368148305  0.5434683465080355  1.0000
  Ag  Ag1       1.0  0.11719798000000002  0.590938045  0.5150369100379536  1.0000
  Ag  Ag2       1.0  0.5417266100000001  0.01400523499999999  0.4757362183613977  1.0000
  Ca  Ca1       1.0  0.5417266100000001  0.5140052350000001  0.45653165349196456  1.0000
  Ca  Ca2       1.0  0.5477728900000001  0.502436875  0.49519726403557496  1.0000
  Ca  Ca3       1.0  0.03029044000000003  0.02024413499999999  0.4951836241854221  1.0000
  Ca  Ca4       1.0  0.04172661000000003  0.01400523499999999  0.45653165349196456  1.0000
  Pb  Pb1       1.0  0.5143065900000001  0.985994765  0.5137903985777907  1.0000
  Pb  Pb2       1.0  0.04172661000000003  0.5140052350000001  0.4757362183613977  1.0000
