data_image0
_chemical_formula_structural       COAu2Na6
_chemical_formula_sum              "C1 O1 Au2 Na6"
_cell_length_a       5.36950593
_cell_length_b       5.369505929713814
_cell_length_c       99.43970046999999
_cell_angle_alpha    90.0
_cell_angle_beta     90.0
_cell_angle_gamma    93.47455256084838

_space_group_name_H-M_alt    "P 1"
_space_group_IT_number       1

loop_
  _space_group_symop_operation_xyz
  'x, y, z'

loop_
  _atom_site_type_symbol
  _atom_site_label
  _atom_site_symmetry_multiplicity
  _atom_site_fract_x
  _atom_site_fract_y
  _atom_site_fract_z
  _atom_site_occupancy
  C   C1        1.0  0.25000268999999997  6.977500000000576e-05  0.5307574980044056  1.0000
  O   O1        1.0  0.24999945999999995  0.999984665  0.5425379225933381  1.0000
  Au  Au1       1.0  0.7500005399999999  0.500016985  0.4759655651553011  1.0000
  Au  Au2       1.0  0.25000149999999993  2.2450000000057633e-06  0.509210319746227  1.0000
  Na  Na1       1.0  0.7500005399999999  1.6985000000005764e-05  0.4574620774066619  1.0000
  Na  Na2       1.0  0.25000027999999996  0.5000190950000001  0.494362087941963  1.0000
  Na  Na3       1.0  0.25000053999999994  0.500016985  0.4574620774066619  1.0000
  Na  Na4       1.0  0.75000013  1.5335000000060717e-05  0.494362087941963  1.0000
  Na  Na5       1.0  0.74999999  0.500017975  0.5164315826523102  1.0000
  Na  Na6       1.0  0.25000053999999994  1.6985000000005764e-05  0.4759655651553011  1.0000
