data_image0
_chemical_formula_structural       COCa12Ga12Au12
_chemical_formula_sum              "C1 O1 Ca12 Ga12 Au12"
_cell_length_a       4.64744194
_cell_length_b       17.38183095253196
_cell_length_c       102.41980575
_cell_angle_alpha    68.59186201831865
_cell_angle_beta     90.0
_cell_angle_gamma    90.0

_space_group_name_H-M_alt    "P 1"
_space_group_IT_number       1

loop_
  _space_group_symop_operation_xyz
  'x, y, z'

loop_
  _atom_site_type_symbol
  _atom_site_label
  _atom_site_symmetry_multiplicity
  _atom_site_fract_x
  _atom_site_fract_y
  _atom_site_fract_z
  _atom_site_occupancy
  C   C1        1.0  0.5431793049999999  0.85205739  0.5529685980300235  1.0000
  O   O1        1.0  0.46877285499999993  0.8129516600000001  0.5643082901713196  1.0000
  Ca  Ca1       1.0  0.25056352499999995  0.7275706200000001  0.5071302294097096  1.0000
  Ca  Ca2       1.0  0.24963080499999996  0.39730745000000006  0.4720127012841237  1.0000
  Ca  Ca3       1.0  0.24963080499999996  0.06397411000000001  0.43684176362720584  1.0000
  Ca  Ca4       1.0  0.7496308049999999  0.73459033  0.4535937756588288  1.0000
  Ca  Ca5       1.0  0.7513148149999999  0.41054025000000005  0.5238461687204735  1.0000
  Ca  Ca6       1.0  0.7496308049999999  0.06792366999999999  0.48876471331574667  1.0000
  Ca  Ca7       1.0  0.24963080499999996  0.59697888  0.4403241866207984  1.0000
  Ca  Ca8       1.0  0.24937495499999998  0.26591654000000003  0.5097949196535766  1.0000
  Ca  Ca9       1.0  0.24963080499999996  0.93031221  0.4754951274431006  1.0000
  Ca  Ca10      1.0  0.7496308049999999  0.60092843  0.49224713947472365  1.0000
  Ca  Ca11      1.0  0.7496308049999999  0.26759510000000003  0.45707619865242144  1.0000
  Ca  Ca12      1.0  0.7453608649999999  0.93545627  0.5282184477478191  1.0000
  Ga  Ga1       1.0  0.7518665849999999  0.59453871  0.5244582622713034  1.0000
  Ga  Ga2       1.0  0.7496308049999999  0.25240267000000005  0.48982041650084185  1.0000
  Ga  Ga3       1.0  0.7496308049999999  0.91906934  0.4546494788439241  1.0000
  Ga  Ga4       1.0  0.24813341499999997  0.80118225  0.5313088157232077  1.0000
  Ga  Ga5       1.0  0.24963080499999996  0.46547075000000004  0.49761399811399937  1.0000
  Ga  Ga6       1.0  0.24963080499999996  0.13213741999999998  0.4624430604570815  1.0000
  Ga  Ga7       1.0  0.7496308049999999  0.53276513  0.4666458394794635  1.0000
  Ga  Ga8       1.0  0.7495120949999999  0.21121015  0.5326628943745741  1.0000
  Ga  Ga9       1.0  0.7496308049999999  0.86609846  0.5018167771363813  1.0000
  Ga  Ga10      1.0  0.24963080499999996  0.74583321  0.4744394210926209  1.0000
  Ga  Ga11      1.0  0.24963080499999996  0.41249987000000005  0.4392684834357031  1.0000
  Ga  Ga12      1.0  0.24909770499999995  0.07787044999999998  0.5103387643509101  1.0000
  Au  Au1       1.0  0.7496308049999999  0.46129371  0.4472115566589006  1.0000
  Au  Au2       1.0  0.7483220749999999  0.13044330999999998  0.5160275489165477  1.0000
  Au  Au3       1.0  0.7496308049999999  0.79462704  0.48238249431581837  1.0000
  Au  Au4       1.0  0.24963080499999996  0.87027551  0.4467064056207266  1.0000
  Au  Au5       1.0  0.25157069499999996  0.5402179  0.5164954750339334  1.0000
  Au  Au6       1.0  0.24963080499999996  0.20360884  0.4818773432776445  1.0000
  Au  Au7       1.0  0.749473485  0.73901916  0.5270109865374387  1.0000
  Au  Au8       1.0  0.7496308049999999  0.39901904000000005  0.4933971901078645  1.0000
  Au  Au9       1.0  0.7496308049999999  0.06568570999999998  0.4582262524509467  1.0000
  Au  Au10      1.0  0.24963080499999996  0.59921684  0.4708626474855983  1.0000
  Au  Au11      1.0  0.24963080499999996  0.26588351000000005  0.4356917098286805  1.0000
  Au  Au12      1.0  0.249664855  0.93602589  0.505874268179234  1.0000
