data_image0
_chemical_formula_structural       CONb4Ni12
_chemical_formula_sum              "C1 O1 Nb4 Ni12"
_cell_length_a       4.58804152
_cell_length_b       4.5880415222724045
_cell_length_c       101.20430953
_cell_angle_alpha    90.0
_cell_angle_beta     90.0
_cell_angle_gamma    110.94956904923764

_space_group_name_H-M_alt    "P 1"
_space_group_IT_number       1

loop_
  _space_group_symop_operation_xyz
  'x, y, z'

loop_
  _atom_site_type_symbol
  _atom_site_label
  _atom_site_symmetry_multiplicity
  _atom_site_fract_x
  _atom_site_fract_y
  _atom_site_fract_z
  _atom_site_occupancy
  C   C1        1.0  0.535178575  0.8126938  0.5417504438899591  1.0000
  O   O1        1.0  0.4419666350000001  0.90590583  0.5527088289886789  1.0000
  Nb  Nb1       1.0  0.746769625  0.60110809  0.4601382460198795  1.0000
  Nb  Nb2       1.0  0.24676962500000008  0.10110809  0.4858324022035933  1.0000
  Nb  Nb3       1.0  0.7528559150000002  0.59502261  0.5111364101288954  1.0000
  Nb  Nb4       1.0  0.24233355500000006  0.10553948  0.5378895282641466  1.0000
  Ni  Ni1       1.0  0.746769625  0.10110809  0.4472911710113211  1.0000
  Ni  Ni2       1.0  0.24676962500000008  0.60110809  0.4729853241117364  1.0000
  Ni  Ni3       1.0  0.746769625  0.60110809  0.4858324022035933  1.0000
  Ni  Ni4       1.0  0.24676962500000008  0.10110809  0.4601382460198795  1.0000
  Ni  Ni5       1.0  0.24676962500000008  0.60110809  0.4472911710113211  1.0000
  Ni  Ni6       1.0  0.746769625  0.10110809  0.4729853241117364  1.0000
  Ni  Ni7       1.0  0.746769625  0.10110809  0.49867947721215167  1.0000
  Ni  Ni8       1.0  0.25378127500000003  0.60772391  0.5248882019984612  1.0000
  Ni  Ni9       1.0  0.763133455  0.5847408199999999  0.5361605840493537  1.0000
  Ni  Ni10      1.0  0.23686654500000007  0.11100941  0.5121719205120768  1.0000
  Ni  Ni11      1.0  0.24676962500000008  0.60110809  0.49867947721215167  1.0000
  Ni  Ni12      1.0  0.7401515450000001  0.09409417  0.5248881896652672  1.0000
