data_image0
_chemical_formula_structural       COMn4Si4Mn4Si4
_chemical_formula_sum              "C1 O1 Mn8 Si8"
_cell_length_a       4.52211827
_cell_length_b       4.52211827
_cell_length_c       101.65482789
_cell_angle_alpha    90.0
_cell_angle_beta     90.0
_cell_angle_gamma    90.0

_space_group_name_H-M_alt    "P 1"
_space_group_IT_number       1

loop_
  _space_group_symop_operation_xyz
  'x, y, z'

loop_
  _atom_site_type_symbol
  _atom_site_label
  _atom_site_symmetry_multiplicity
  _atom_site_fract_x
  _atom_site_fract_y
  _atom_site_fract_z
  _atom_site_occupancy
  C   C1        1.0  0.31503009  0.13133064500000002  0.5426808460913568  1.0000
  O   O1        1.0  0.419959  0.12372322500000002  0.5532339959754123  1.0000
  Mn  Mn1       1.0  0.6366396599999999  0.37627677499999995  0.4698192712905296  1.0000
  Mn  Mn2       1.0  0.36336033999999995  0.8762767749999999  0.45973359414447773  1.0000
  Mn  Mn3       1.0  0.86336034  0.649556095  0.44757675574345207  1.0000
  Mn  Mn4       1.0  0.13663966  0.149556095  0.48197611280550756  1.0000
  Si  Si1       1.0  0.34513504  0.6677813950000001  0.482786864524372  1.0000
  Si  Si2       1.0  0.65486496  0.167781395  0.4467660040245876  1.0000
  Si  Si3       1.0  0.15486496  0.35805147499999995  0.4605443489772944  1.0000
  Si  Si4       1.0  0.8451350399999998  0.8580514749999999  0.4690085195716652  1.0000
  Mn  Mn5       1.0  0.6528948299999999  0.361140425  0.514575446661932  1.0000
  Mn  Mn6       1.0  0.36055596999999995  0.875957115  0.5042410394668483  1.0000
  Mn  Mn7       1.0  0.86336034  0.649556095  0.4920617868376072  1.0000
  Mn  Mn8       1.0  0.13961933  0.152164995  0.5263944523845627  1.0000
  Si  Si5       1.0  0.28136009  0.6511598249999999  0.5259404630597535  1.0000
  Si  Si6       1.0  0.65486496  0.167781395  0.4912510351187427  1.0000
  Si  Si7       1.0  0.1593446  0.356032875  0.5047582825034858  1.0000
  Si  Si8       1.0  0.82701928  0.852117625  0.5141278129136423  1.0000
