data_image0
_chemical_formula_structural       COAg8Na4
_chemical_formula_sum              "C1 O1 Ag8 Na4"
_cell_length_a       5.76953615
_cell_length_b       5.76953615
_cell_length_c       102.6374251
_cell_angle_alpha    90.0
_cell_angle_beta     90.0
_cell_angle_gamma    90.0

_space_group_name_H-M_alt    "P 1"
_space_group_IT_number       1

loop_
  _space_group_symop_operation_xyz
  'x, y, z'

loop_
  _atom_site_type_symbol
  _atom_site_label
  _atom_site_symmetry_multiplicity
  _atom_site_fract_x
  _atom_site_fract_y
  _atom_site_fract_z
  _atom_site_occupancy
  C   C1        1.0  0.375464735  0.384031805  0.5301575083997879  1.0000
  O   O1        1.0  0.37764523499999997  0.3890542149999999  0.5418014276773576  1.0000
  Ag  Ag1       1.0  0.12552016499999996  0.620863175  0.4780727952658092  1.0000
  Ag  Ag2       1.0  0.874300205  0.879136825  0.4978037997886342  1.0000
  Ag  Ag3       1.0  0.873485395  0.3774705649999999  0.497646958780918  1.0000
  Ag  Ag4       1.0  0.12447983499999997  0.13451830499999995  0.5173482791643551  1.0000
  Ag  Ag5       1.0  0.6191744849999999  0.13233696499999995  0.5173382530163647  1.0000
  Ag  Ag6       1.0  0.375520165  0.37086317499999993  0.4581985723226423  1.0000
  Ag  Ag7       1.0  0.375520165  0.870863175  0.4581985723226423  1.0000
  Ag  Ag8       1.0  0.625520165  0.620863175  0.4780727952658092  1.0000
  Na  Na1       1.0  0.375520165  0.12086317499999995  0.4880099067373927  1.0000
  Na  Na2       1.0  0.371277035  0.6344464849999999  0.5073238896452322  1.0000
  Na  Na3       1.0  0.868312545  0.6342798149999999  0.526964242272431  1.0000
  Na  Na4       1.0  0.8755201650000001  0.12086317499999995  0.4681356837942257  1.0000
