data_image0
_chemical_formula_structural       COMo4As8Mo4As8
_chemical_formula_sum              "C1 O1 Mo8 As16"
_cell_length_a       7.802467580236997
_cell_length_b       6.68026798
_cell_length_c       104.71664523
_cell_angle_alpha    90.0
_cell_angle_beta     112.53148103908572
_cell_angle_gamma    90.0

_space_group_name_H-M_alt    "P 1"
_space_group_IT_number       1

loop_
  _space_group_symop_operation_xyz
  'x, y, z'

loop_
  _atom_site_type_symbol
  _atom_site_label
  _atom_site_symmetry_multiplicity
  _atom_site_fract_x
  _atom_site_fract_y
  _atom_site_fract_z
  _atom_site_occupancy
  C   C1        1.0  0.12364165000000002  0.37538640500000003  0.5425104866367156  1.0000
  O   O1        1.0  0.16759747000000003  0.37538656500000006  0.5545836497752658  1.0000
  Mo  Mo1       1.0  0.5560992499999999  0.12538648500000005  0.4822311338081652  1.0000
  Mo  Mo2       1.0  0.46159816  0.12599855500000004  0.5070940475946725  1.0000
  Mo  Mo3       1.0  0.040142200000000024  0.37538638500000004  0.5216706753341338  1.0000
  Mo  Mo4       1.0  0.9598577999999999  0.37538648500000005  0.4662104303636362  1.0000
  As  As1       1.0  0.6218324799999999  0.37538648500000005  0.46562699500203797  1.0000
  As  As2       1.0  0.41065514999999997  0.37538650500000004  0.524893754307758  1.0000
  As  As3       1.0  0.30415218  0.37538648500000005  0.4868575236333984  1.0000
  As  As4       1.0  0.71032007  0.37538646500000006  0.503286730958333  1.0000
  As  As5       1.0  0.13342538  0.12461341500000003  0.5078987589305096  1.0000
  As  As6       1.0  0.89412456  0.12538648500000005  0.4828145691697633  1.0000
  As  As7       1.0  0.80415218  0.12538648500000005  0.44541635022473425  1.0000
  As  As8       1.0  0.21180486  0.12538648500000005  0.46158404053840296  1.0000
  Mo  Mo5       1.0  0.5560992499999999  0.625386485  0.4822311338081652  1.0000
  Mo  Mo6       1.0  0.46159815000000004  0.624774415  0.5070940475946725  1.0000
  Mo  Mo7       1.0  0.06295098000000002  0.875386585  0.5223674075485374  1.0000
  Mo  Mo8       1.0  0.9598577999999999  0.875386485  0.4662104303636362  1.0000
  As  As9       1.0  0.6218324799999999  0.875386485  0.46562699500203797  1.0000
  As  As10      1.0  0.40937858  0.875386475  0.5252568651844586  1.0000
  As  As11      1.0  0.30415218  0.875386485  0.4868575236333984  1.0000
  As  As12      1.0  0.72271704  0.875386505  0.5042529667269415  1.0000
  As  As13      1.0  0.13342531000000002  0.6261595550000001  0.5078987622458034  1.0000
  As  As14      1.0  0.89412456  0.625386485  0.4828145691697633  1.0000
  As  As15      1.0  0.80415218  0.625386485  0.44541635022473425  1.0000
  As  As16      1.0  0.21180486  0.625386485  0.46158404053840296  1.0000
