data_image0
_chemical_formula_structural       COAu2Ca2In4
_chemical_formula_sum              "C1 O1 Au2 Ca2 In4"
_cell_length_a       6.016965928171388
_cell_length_b       4.67123702
_cell_length_c       101.3267432
_cell_angle_alpha    90.0
_cell_angle_beta     90.0
_cell_angle_gamma    112.84081201343864

_space_group_name_H-M_alt    "P 1"
_space_group_IT_number       1

loop_
  _space_group_symop_operation_xyz
  'x, y, z'

loop_
  _atom_site_type_symbol
  _atom_site_label
  _atom_site_symmetry_multiplicity
  _atom_site_fract_x
  _atom_site_fract_y
  _atom_site_fract_z
  _atom_site_occupancy
  C   C1        1.0  0.6708855650000001  0.13472293000000005  0.534979362169401  1.0000
  O   O1        1.0  0.6307231850000001  0.9986829100000001  0.5450889412057179  1.0000
  Au  Au1       1.0  0.570495305  0.4131072700000001  0.47814237400939036  1.0000
  Au  Au2       1.0  0.44722006500000006  0.85947055  0.5158805058342635  1.0000
  Ca  Ca1       1.0  0.14346470500000003  0.6995919700000001  0.47814237400939036  1.0000
  Ca  Ca2       1.0  0.8565352949999999  0.5542337199999999  0.5173689897912932  1.0000
  In  In1       1.0  0.724216335  0.9899677900000001  0.46272798941876364  1.0000
  In  In2       1.0  0.7471675050000001  0.0013170900000001318  0.49307945019920035  1.0000
  In  In3       1.0  0.26395239499999995  0.25983581000000006  0.454911058794282  1.0000
  In  In4       1.0  0.28305128500000004  0.27825410000000006  0.5027813820273425  1.0000
