data_image0
_chemical_formula_structural       CONa6Au2Na6Au2
_chemical_formula_sum              "C1 O1 Na12 Au4"
_cell_length_a       5.20425296
_cell_length_b       7.82035026
_cell_length_c       101.22551776
_cell_angle_alpha    90.0
_cell_angle_beta     90.0
_cell_angle_gamma    90.0

_space_group_name_H-M_alt    "P 1"
_space_group_IT_number       1

loop_
  _space_group_symop_operation_xyz
  'x, y, z'

loop_
  _atom_site_type_symbol
  _atom_site_label
  _atom_site_symmetry_multiplicity
  _atom_site_fract_x
  _atom_site_fract_y
  _atom_site_fract_z
  _atom_site_occupancy
  C   C1        1.0  0.5000000050000001  4.019867122037995e-17  0.5440137053590368  1.0000
  O   O1        1.0  0.500000035  0.0  0.555495361283097  1.0000
  Na  Na1       1.0  1.5000000065834093e-08  0.25000001000000005  0.4445046387169031  1.0000
  Na  Na2       1.0  0.500000015  0.25000001000000005  0.4702108680699051  1.0000
  Na  Na3       1.0  0.500000015  1.0000000040198672e-08  0.4445046387169031  1.0000
  Na  Na4       1.0  0.500000015  0.7500000100000002  0.4702108680699051  1.0000
  Na  Na5       1.0  1.5000000065834093e-08  0.7500000100000002  0.4445046387169031  1.0000
  Na  Na6       1.0  1.5000000065834093e-08  0.50000001  0.4702108680699051  1.0000
  Au  Au1       1.0  1.5000000065834093e-08  1.0000000040198672e-08  0.4702108680699051  1.0000
  Au  Au2       1.0  0.500000015  0.50000001  0.4445046387169031  1.0000
  Na  Na7       1.0  5.000000065834091e-09  0.26065073000000005  0.49532265112783286  1.0000
  Na  Na8       1.0  0.49999999500000003  0.22525435000000008  0.5218101113306071  1.0000
  Na  Na9       1.0  0.5000000050000001  1.0000000040198672e-08  0.4945549468964874  1.0000
  Na  Na10      1.0  0.49999999500000003  0.77474567  0.5218101113306071  1.0000
  Na  Na11      1.0  4.999999969612645e-09  0.7393492800000001  0.4953226480430852  1.0000
  Na  Na12      1.0  0.999999995  0.50000001  0.5220520912749302  1.0000
  Au  Au3       1.0  0.9999999650000001  0.0  0.5168274480178279  1.0000
  Au  Au4       1.0  0.4999999850000001  0.5000000000000001  0.4955124649047188  1.0000
