data_image0
_chemical_formula_structural       CONa6Au2Na6Au2
_chemical_formula_sum              "C1 O1 Na12 Au4"
_cell_length_a       5.20425296
_cell_length_b       7.82035026
_cell_length_c       101.22551776
_cell_angle_alpha    90.0
_cell_angle_beta     90.0
_cell_angle_gamma    90.0

_space_group_name_H-M_alt    "P 1"
_space_group_IT_number       1

loop_
  _space_group_symop_operation_xyz
  'x, y, z'

loop_
  _atom_site_type_symbol
  _atom_site_label
  _atom_site_symmetry_multiplicity
  _atom_site_fract_x
  _atom_site_fract_y
  _atom_site_fract_z
  _atom_site_occupancy
  C   C1        1.0  0.49652043500000004  0.46712154  0.5437062716967922  1.0000
  O   O1        1.0  0.4887820950000001  0.4828608100000001  0.5551511851916439  1.0000
  Na  Na1       1.0  0.24819420500000003  0.36294734  0.4448488148083562  1.0000
  Na  Na2       1.0  0.7481942050000001  0.36294734  0.47055504416135824  1.0000
  Na  Na3       1.0  0.7481942050000001  0.11294734000000001  0.4448488148083562  1.0000
  Na  Na4       1.0  0.7481942050000001  0.8629473400000002  0.47055504416135824  1.0000
  Na  Na5       1.0  0.24819420500000003  0.8629473400000002  0.4448488148083562  1.0000
  Na  Na6       1.0  0.24819420500000003  0.6129473400000001  0.47055504416135824  1.0000
  Au  Au1       1.0  0.24819420500000003  0.11294734000000001  0.47055504416135824  1.0000
  Au  Au2       1.0  0.7481942050000001  0.6129473400000001  0.4448488148083562  1.0000
  Na  Na7       1.0  0.24481619500000001  0.36422913  0.4951289983825018  1.0000
  Na  Na8       1.0  0.7433904650000001  0.34434835  0.5221684957697165  1.0000
  Na  Na9       1.0  0.7463331950000001  0.10513775000000002  0.49582250517872406  1.0000
  Na  Na10      1.0  0.755884185  0.8948622500000001  0.5235438397618171  1.0000
  Na  Na11      1.0  0.24744252500000002  0.8573106800000001  0.4954658034694554  1.0000
  Na  Na12      1.0  0.25986285500000006  0.6127408200000001  0.5207396344907097  1.0000
  Au  Au3       1.0  0.24411581500000004  0.11756692  0.5180794560871824  1.0000
  Au  Au4       1.0  0.7464921250000001  0.62157938  0.4964722301516102  1.0000
