data_image0
_chemical_formula_structural       COFe2Pt2Fe2Pt2Fe2Pt2Fe2Pt2
_chemical_formula_sum              "C1 O1 Fe8 Pt8"
_cell_length_a       5.34834606
_cell_length_b       4.568642083354281
_cell_length_c       101.98049457
_cell_angle_alpha    71.65291473657932
_cell_angle_beta     90.0
_cell_angle_gamma    90.0

_space_group_name_H-M_alt    "P 1"
_space_group_IT_number       1

loop_
  _space_group_symop_operation_xyz
  'x, y, z'

loop_
  _atom_site_type_symbol
  _atom_site_label
  _atom_site_symmetry_multiplicity
  _atom_site_fract_x
  _atom_site_fract_y
  _atom_site_fract_z
  _atom_site_occupancy
  C   C1        1.0  0.37532582  0.805177855  0.5342797362326147  1.0000
  O   O1        1.0  0.37497150999999995  0.708306435  0.5466687403696029  1.0000
  Fe  Fe1       1.0  0.125  0.004597995000000028  0.4757308469697184  1.0000
  Fe  Fe2       1.0  0.125  0.504597995  0.4533312596303974  1.0000
  Pt  Pt1       1.0  0.37499999999999994  0.004597995000000028  0.4533312596303974  1.0000
  Pt  Pt2       1.0  0.37499999999999994  0.504597995  0.4757308469697184  1.0000
  Fe  Fe3       1.0  0.12706017  0.009176935000000028  0.5200679969988572  1.0000
  Fe  Fe4       1.0  0.12776566000000003  0.5001504850000001  0.4981287001329529  1.0000
  Pt  Pt3       1.0  0.37498941  0.0012770750000000285  0.4978226948842729  1.0000
  Pt  Pt4       1.0  0.37502109  0.49147600500000005  0.5208106320363742  1.0000
  Fe  Fe5       1.0  0.625  0.004597995000000028  0.4757308469697184  1.0000
  Fe  Fe6       1.0  0.625  0.504597995  0.4533312596303974  1.0000
  Pt  Pt5       1.0  0.8749999999999998  0.004597995000000028  0.4533312596303974  1.0000
  Pt  Pt6       1.0  0.8749999999999998  0.504597995  0.4757308469697184  1.0000
  Fe  Fe7       1.0  0.6228098799999999  0.008822505000000029  0.5200821056032209  1.0000
  Fe  Fe8       1.0  0.62219782  0.500136145  0.4981262572339088  1.0000
  Pt  Pt7       1.0  0.8749789299999998  0.9987229250000002  0.49787217064578565  1.0000
  Pt  Pt8       1.0  0.8749812099999998  0.480040415  0.5201331712874748  1.0000
