data_image0
_chemical_formula_structural       COCa36Au12
_chemical_formula_sum              "C1 O1 Ca36 Au12"
_cell_length_a       10.553514679511805
_cell_length_b       12.204888885426591
_cell_length_c       113.73582285
_cell_angle_alpha    72.54919620597373
_cell_angle_beta     84.1145632677033
_cell_angle_gamma    68.21612226345187

_space_group_name_H-M_alt    "P 1"
_space_group_IT_number       1

loop_
  _space_group_symop_operation_xyz
  'x, y, z'

loop_
  _atom_site_type_symbol
  _atom_site_label
  _atom_site_symmetry_multiplicity
  _atom_site_fract_x
  _atom_site_fract_y
  _atom_site_fract_z
  _atom_site_occupancy
  C   C1        1.0  0.53696509  0.8989758799999998  0.566914880699323  1.0000
  O   O1        1.0  0.5342625799999999  0.8687364  0.5775963768829001  1.0000
  Ca  Ca1       1.0  0.75028702  0.51693116  0.5173603811906391  1.0000
  Ca  Ca2       1.0  0.08362034999999998  0.85026449  0.4746338619475696  1.0000
  Ca  Ca3       1.0  0.41695369000000004  0.18359782999999996  0.43190734270450015  1.0000
  Ca  Ca4       1.0  0.9745644300000001  0.7185099499999998  0.5078566616032391  1.0000
  Ca  Ca5       1.0  0.30789776  0.05184327999999997  0.46513014236016953  1.0000
  Ca  Ca6       1.0  0.6412310899999999  0.3851766099999999  0.42240362311710006  1.0000
  Ca  Ca7       1.0  0.4829572500000001  0.3770363699999999  0.4875368149960458  1.0000
  Ca  Ca8       1.0  0.81629058  0.7103696999999999  0.4448102957529763  1.0000
  Ca  Ca9       1.0  0.15800782  0.02780417999999998  0.5308755621122063  1.0000
  Ca  Ca10      1.0  0.45885796999999995  0.07536850999999997  0.5098699061560719  1.0000
  Ca  Ca11      1.0  0.7921913099999999  0.4087018499999999  0.4671433869130024  1.0000
  Ca  Ca12      1.0  0.12552464000000008  0.74203518  0.42441686766993286  1.0000
  Ca  Ca13      1.0  0.89315547  0.6119536899999999  0.48130282777945743  1.0000
  Ca  Ca14      1.0  0.22648879999999996  0.94528702  0.43857630469100123  1.0000
  Ca  Ca15      1.0  0.56287415  0.28252089999999996  0.5246212866350177  1.0000
  Ca  Ca16      1.0  0.8536741200000001  0.64925035  0.5418980133591615  1.0000
  Ca  Ca17      1.0  0.17782665000000009  0.9696180899999999  0.49954733837363735  1.0000
  Ca  Ca18      1.0  0.5111599900000001  0.3029514299999999  0.4568208191305678  1.0000
  Ca  Ca19      1.0  0.48884000999999977  0.7076382299999999  0.46903802435629105  1.0000
  Ca  Ca20      1.0  0.82217335  0.04097156999999998  0.4263115051132216  1.0000
  Ca  Ca21      1.0  0.15550668000000006  0.37430489999999994  0.5117645435993605  1.0000
  Ca  Ca22      1.0  0.44348907000000004  0.7309134699999998  0.5293572149913282  1.0000
  Ca  Ca23      1.0  0.7735112  0.06530263999999997  0.4872825349504709  1.0000
  Ca  Ca24      1.0  0.10684453  0.39863596999999995  0.4445560157074015  1.0000
  Ca  Ca25      1.0  0.87447536  0.26855447999999993  0.5014419758169261  1.0000
  Ca  Ca26      1.0  0.20780869000000005  0.60188781  0.4587154565738566  1.0000
  Ca  Ca27      1.0  0.53310847  0.9506740499999999  0.5430500335547509  1.0000
  Ca  Ca28      1.0  0.8514312599999998  0.97219582  0.523798758404844  1.0000
  Ca  Ca29      1.0  0.18370942000000007  0.3002199599999999  0.48104854773388256  1.0000
  Ca  Ca30      1.0  0.5170427499999999  0.6335532899999998  0.43832202849081314  1.0000
  Ca  Ca31      1.0  0.35876891  0.62541305  0.5034552203697589  1.0000
  Ca  Ca32      1.0  0.69210224  0.95874638  0.4607287011266894  1.0000
  Ca  Ca33      1.0  0.01981377000000002  0.2891549399999999  0.5445782325565345  1.0000
  Ca  Ca34      1.0  0.5830463099999998  0.82699183  0.49395150078235883  1.0000
  Ca  Ca35      1.0  0.9163796499999999  0.16032516999999996  0.45122498153928936  1.0000
  Ca  Ca36      1.0  0.24013189000000001  0.4923688199999999  0.5362428952854316  1.0000
  Au  Au1       1.0  0.4813636900000001  0.11466272999999998  0.48095558166332314  1.0000
  Au  Au2       1.0  0.81469702  0.4479960599999999  0.43822906242025367  1.0000
  Au  Au3       1.0  0.15092559000000003  0.7756514999999999  0.5233590730361378  1.0000
  Au  Au4       1.0  0.6520359699999999  0.5293265899999999  0.4918939304562244  1.0000
  Au  Au5       1.0  0.9853693  0.86265992  0.44916741121315495  1.0000
  Au  Au6       1.0  0.31383859000000003  0.20250078999999993  0.533867626795106  1.0000
  Au  Au7       1.0  0.6781373599999999  0.82121413  0.5205624808989342  1.0000
  Au  Au8       1.0  0.0146307  0.14792973999999998  0.47669143227370403  1.0000
  Au  Au9       1.0  0.34796403000000004  0.4812630699999999  0.43396491303063456  1.0000
  Au  Au10      1.0  0.8677514599999999  0.21911730999999995  0.5284703149866193  1.0000
  Au  Au11      1.0  0.18530298  0.5625936  0.4876297810666053  1.0000
  Au  Au12      1.0  0.5186363099999998  0.8959269300000001  0.4449032618235359  1.0000
