data_image0
_chemical_formula_structural       COIn6Sb6
_chemical_formula_sum              "C1 O1 In6 Sb6"
_cell_length_a       6.72497102
_cell_length_b       8.236373769673708
_cell_length_c       106.21507728
_cell_angle_alpha    94.34775312274968
_cell_angle_beta     90.0
_cell_angle_gamma    114.09484254379919

_space_group_name_H-M_alt    "P 1"
_space_group_IT_number       1

loop_
  _space_group_symop_operation_xyz
  'x, y, z'

loop_
  _atom_site_type_symbol
  _atom_site_label
  _atom_site_symmetry_multiplicity
  _atom_site_fract_x
  _atom_site_fract_y
  _atom_site_fract_z
  _atom_site_occupancy
  C   C1        1.0  0.07380269499999997  0.7455841849999998  0.5414933617863746  1.0000
  O   O1        1.0  0.06089106499999992  0.6712198449999999  0.5503950120992056  1.0000
  In  In1       1.0  0.177083335  0.3497663249999999  0.4993282988581193  1.0000
  In  In2       1.0  0.760416665  0.516432995  0.470914978798162  1.0000
  In  In3       1.0  0.5598851549999999  0.19092074499999995  0.5286526977449064  1.0000
  In  In4       1.0  0.46874999500000003  0.9330996650000001  0.4851216371233414  1.0000
  In  In5       1.0  0.052083335000000036  0.09976632499999998  0.45670831706338405  1.0000
  In  In6       1.0  0.7911408849999999  0.725715355  0.5092856017952248  1.0000
  Sb  Sb1       1.0  0.36458333500000006  0.22476632499999993  0.4780183079607516  1.0000
  Sb  Sb2       1.0  0.9479166650000002  0.39143299499999995  0.4496049879007944  1.0000
  Sb  Sb3       1.0  0.7737897350000001  0.06690033499999996  0.5069305716235836  1.0000
  Sb  Sb4       1.0  0.656249995  0.8080996649999999  0.4638116462259737  1.0000
  Sb  Sb5       1.0  0.4386797650000001  0.49290729499999997  0.5226586644204773  1.0000
  Sb  Sb6       1.0  0.07291666500000002  0.6414329949999998  0.49222496969552954  1.0000
