data_image0
_chemical_formula_structural       COAu16Ca48
_chemical_formula_sum              "C1 O1 Au16 Ca48"
_cell_length_a       14.578607619790848
_cell_length_b       12.83493728346123
_cell_length_c       106.87465577
_cell_angle_alpha    85.44544787274921
_cell_angle_beta     82.05935522165228
_cell_angle_gamma    101.58682207706515

_space_group_name_H-M_alt    "P 1"
_space_group_IT_number       1

loop_
  _space_group_symop_operation_xyz
  'x, y, z'

loop_
  _atom_site_type_symbol
  _atom_site_label
  _atom_site_symmetry_multiplicity
  _atom_site_fract_x
  _atom_site_fract_y
  _atom_site_fract_z
  _atom_site_occupancy
  C   C1        1.0  0.7869867300000001  0.13467632499999999  0.5533938385663666  1.0000
  O   O1        1.0  0.8461624  0.129395135  0.5598539850908564  1.0000
  Au  Au1       1.0  0.11317757  0.431367565  0.529523260774176  1.0000
  Au  Au2       1.0  0.52585624  0.9315349350000001  0.5009569914001845  1.0000
  Au  Au3       1.0  0.9241930800000001  0.809539145  0.507972303828501  1.0000
  Au  Au4       1.0  0.50878052  0.301165975  0.5340841054026861  1.0000
  Au  Au5       1.0  0.39795259999999993  0.689273155  0.5468079952080784  1.0000
  Au  Au6       1.0  0.8342318500000001  0.183151235  0.5208272142363103  1.0000
  Au  Au7       1.0  0.2320507  0.057994074999999985  0.527166887637753  1.0000
  Au  Au8       1.0  0.64915992  0.559539145  0.49933518102392865  1.0000
  Au  Au9       1.0  0.94252291  0.43153493499999995  0.47220473170139454  1.0000
  Au  Au10      1.0  0.35918956999999996  0.9315349350000001  0.4434524720026047  1.0000
  Au  Au11      1.0  0.75752642  0.809539145  0.45046778098064993  1.0000
  Au  Au12      1.0  0.34085975  0.309539145  0.4792200406794398  1.0000
  Au  Au13      1.0  0.25082308000000003  0.6815349350000001  0.49231987204588346  1.0000
  Au  Au14      1.0  0.66748974  0.18153493499999998  0.46356761234709354  1.0000
  Au  Au15      1.0  0.06582659  0.059539145  0.4705829213251387  1.0000
  Au  Au16      1.0  0.48249325  0.559539145  0.4418306616263488  1.0000
  Ca  Ca1       1.0  0.28292792999999994  0.8738859149999998  0.5444541338691632  1.0000
  Ca  Ca2       1.0  0.69006082  0.36486238499999996  0.5163433451605448  1.0000
  Ca  Ca3       1.0  0.3057144  0.8762116950000002  0.5083626226700672  1.0000
  Ca  Ca4       1.0  0.89100865  0.369014745  0.5364672560946829  1.0000
  Ca  Ca5       1.0  0.71406634  0.8011448950000002  0.5026416381173899  1.0000
  Ca  Ca6       1.0  0.29487916  0.30324819499999994  0.5325662827531972  1.0000
  Ca  Ca7       1.0  0.22352409999999998  0.43992918499999994  0.5019890020492855  1.0000
  Ca  Ca8       1.0  0.8081897200000001  0.9488551050000001  0.5303304931485031  1.0000
  Ca  Ca9       1.0  0.06036107000000001  0.882813405  0.5265668613064594  1.0000
  Ca  Ca10      1.0  0.4746272  0.38878534499999995  0.4980313511011241  1.0000
  Ca  Ca11      1.0  0.53099812  0.854078285  0.5286751185330227  1.0000
  Ca  Ca12      1.0  0.9442133600000001  0.352288735  0.500130071777809  1.0000
  Ca  Ca13      1.0  0.81613968  0.641740895  0.528917869271008  1.0000
  Ca  Ca14      1.0  0.23080279999999997  0.13878534499999998  0.5001621040965755  1.0000
  Ca  Ca15      1.0  0.28806979  0.612157295  0.5274939492052707  1.0000
  Ca  Ca16      1.0  0.7003889600000001  0.10228873500000002  0.5022608247732604  1.0000
  Ca  Ca17      1.0  0.95149206  0.05114489499999999  0.4983031738250989  1.0000
  Ca  Ca18      1.0  0.53250769  0.548311055  0.5285873194792041  1.0000
  Ca  Ca19      1.0  0.46094982  0.689929185  0.4976505343067232  1.0000
  Ca  Ca20      1.0  0.048507940000000006  0.18643302499999997  0.5264091804576929  1.0000
  Ca  Ca21      1.0  0.060140200000000005  0.595412465  0.5477510406116609  1.0000
  Ca  Ca22      1.0  0.45035790000000003  0.11147795499999999  0.5200336932401368  1.0000
  Ca  Ca23      1.0  0.06828867000000001  0.6262116950000001  0.5127010904126295  1.0000
  Ca  Ca24      1.0  0.6483372500000001  0.144130315  0.5416731875976891  1.0000
  Ca  Ca25      1.0  0.10672749000000001  0.864862385  0.48759108546175495  1.0000
  Ca  Ca26      1.0  0.52339415  0.36486238499999996  0.458838825762965  1.0000
  Ca  Ca27      1.0  0.13904773  0.8762116950000002  0.4508580998222161  1.0000
  Ca  Ca28      1.0  0.72238106  0.3762116949999999  0.47961036297127724  1.0000
  Ca  Ca29      1.0  0.54739967  0.8011448950000003  0.44513711871981015  1.0000
  Ca  Ca30      1.0  0.13073301  0.30114489499999997  0.4738893784186  1.0000
  Ca  Ca31      1.0  0.05685743000000001  0.43992918499999994  0.44448447920143436  1.0000
  Ca  Ca32      1.0  0.64019076  0.939929185  0.4732367423504957  1.0000
  Ca  Ca33      1.0  0.8912938600000001  0.8887853450000001  0.4692790914023342  1.0000
  Ca  Ca34      1.0  0.30796052999999995  0.388785345  0.44052682825327294  1.0000
  Ca  Ca35      1.0  0.36088002  0.852288735  0.471377812079019  1.0000
  Ca  Ca36      1.0  0.77754669  0.35228873499999996  0.44262554892995787  1.0000
  Ca  Ca37      1.0  0.64746947  0.6387853450000002  0.4714098409475143  1.0000
  Ca  Ca38      1.0  0.06413614000000001  0.138785345  0.4426575812487244  1.0000
  Ca  Ca39      1.0  0.11705563  0.602288735  0.4735085616241992  1.0000
  Ca  Ca40      1.0  0.5337223  0.10228873499999998  0.4447563019254093  1.0000
  Ca  Ca41      1.0  0.7848254  0.05114489499999999  0.44079865097724785  1.0000
  Ca  Ca42      1.0  0.36815873  0.5511448950000001  0.46955091067603777  1.0000
  Ca  Ca43      1.0  0.29428315  0.689929185  0.44014601490914346  1.0000
  Ca  Ca44      1.0  0.8776164900000001  0.18992918499999994  0.4688982746079334  1.0000
  Ca  Ca45      1.0  0.86930176  0.614862385  0.4919295532043172  1.0000
  Ca  Ca46      1.0  0.28596842999999994  0.11486238499999997  0.46317729005525604  1.0000
  Ca  Ca47      1.0  0.9016220100000001  0.6262116950000001  0.4551965675647784  1.0000
  Ca  Ca48      1.0  0.48495533999999996  0.12621169499999996  0.48394882726356825  1.0000
