data_image0
_chemical_formula_structural       CONa18Au6
_chemical_formula_sum              "C1 O1 Na18 Au6"
_cell_length_a       9.393728071545018
_cell_length_b       7.35992512
_cell_length_c       112.95604748
_cell_angle_alpha    90.0
_cell_angle_beta     109.74083244925818
_cell_angle_gamma    66.93676818962943

_space_group_name_H-M_alt    "P 1"
_space_group_IT_number       1

loop_
  _space_group_symop_operation_xyz
  'x, y, z'

loop_
  _atom_site_type_symbol
  _atom_site_label
  _atom_site_symmetry_multiplicity
  _atom_site_fract_x
  _atom_site_fract_y
  _atom_site_fract_z
  _atom_site_occupancy
  C   C1        1.0  0.5147468  0.28528978500000013  0.5431329783286369  1.0000
  O   O1        1.0  0.51418778  0.28649716500000005  0.5534489853916635  1.0000
  Na  Na1       1.0  0.002276549999999939  0.791666665  0.486164550334662  1.0000
  Na  Na2       1.0  0.33576693999999996  0.10156908500000007  0.5195269258132321  1.0000
  Na  Na3       1.0  0.6689432200000001  0.458333335  0.4544737240353412  1.0000
  Na  Na4       1.0  0.002276549999999939  0.2916666650000001  0.486164550334662  1.0000
  Na  Na5       1.0  0.33542924999999996  0.6485438250000001  0.5194807738272298  1.0000
  Na  Na6       1.0  0.6689432200000001  0.958333335  0.4544737240353412  1.0000
  Na  Na7       1.0  0.6689432200000001  0.2083333350000001  0.47824184471055664  1.0000
  Na  Na8       1.0  0.9973364  0.543923285  0.5080710681348098  1.0000
  Na  Na9       1.0  0.33560987999999997  0.874999995  0.44655101460833657  1.0000
  Na  Na10      1.0  0.33560987999999997  0.12499999500000011  0.47031913528355196  1.0000
  Na  Na11      1.0  0.6689432200000001  0.458333335  0.502009965385772  1.0000
  Na  Na12      1.0  0.00690353999999994  0.7933606350000001  0.5327362433190995  1.0000
  Na  Na13      1.0  0.33560987999999997  0.624999995  0.47031913528355196  1.0000
  Na  Na14      1.0  0.6689432200000001  0.958333335  0.502009965385772  1.0000
  Na  Na15      1.0  0.006974999999999939  0.2851046750000001  0.5327514625221301  1.0000
  Na  Na16      1.0  0.33560987999999997  0.874999995  0.4940872559587673  1.0000
  Na  Na17      1.0  0.65118205  0.21738282500000009  0.5257338621449343  1.0000
  Na  Na18      1.0  0.002276549999999939  0.541666665  0.46239642965944666  1.0000
  Au  Au1       1.0  0.99772345  0.04430334500000016  0.5086885182751602  1.0000
  Au  Au2       1.0  0.33560987999999997  0.3749999950000001  0.44655101460833657  1.0000
  Au  Au3       1.0  0.6689432200000001  0.7083333349999998  0.47824184471055664  1.0000
  Au  Au4       1.0  0.002276549999999939  0.0416666650000001  0.46239642965944666  1.0000
  Au  Au5       1.0  0.33560987999999997  0.3749999950000001  0.4940872559587673  1.0000
  Au  Au6       1.0  0.6732740500000001  0.7058990249999999  0.5236083380578891  1.0000
