data_image0
_chemical_formula_structural       In3Ni3In3Ni3CO
_chemical_formula_sum              "In6 Ni6 C1 O1"
_cell_length_a       5.33395493
_cell_length_b       5.333954939409803
_cell_length_c       101.00790021
_cell_angle_alpha    90.0
_cell_angle_beta     90.0
_cell_angle_gamma    120.00000000366025

_space_group_name_H-M_alt    "P 1"
_space_group_IT_number       1

loop_
  _space_group_symop_operation_xyz
  'x, y, z'

loop_
  _atom_site_type_symbol
  _atom_site_label
  _atom_site_symmetry_multiplicity
  _atom_site_fract_x
  _atom_site_fract_y
  _atom_site_fract_z
  _atom_site_occupancy
  In  In1       1.0  0.8341189000000002  0.4999976800000001  0.455023247731378  1.0000
  In  In2       1.0  0.5007855600000001  0.8333310200000001  0.455023247731378  1.0000
  In  In3       1.0  0.1674522300000001  0.16666435000000004  0.4769507401958112  1.0000
  Ni  Ni1       1.0  0.16745223000000006  0.66666435  0.4769507401958112  1.0000
  Ni  Ni2       1.0  0.6674522300000001  0.66666435  0.4769507401958112  1.0000
  Ni  Ni3       1.0  0.6674522300000001  0.16666435000000004  0.4769507401958112  1.0000
  In  In4       1.0  0.8341082000000001  0.5000130000000002  0.4985768993516235  1.0000
  In  In5       1.0  0.5007691500000001  0.83333565  0.498805280768456  1.0000
  In  In6       1.0  0.1674203800000001  0.16673499000000003  0.5219787236395769  1.0000
  Ni  Ni4       1.0  0.16578026000000007  0.66584155  0.52090010763238  1.0000
  Ni  Ni5       1.0  0.66830625  0.6657954100000001  0.5209060662093015  1.0000
  Ni  Ni6       1.0  0.6682993700000002  0.16840323000000001  0.5209025942100752  1.0000
  C   C1        1.0  0.8341181599999999  0.50001974  0.5330399452523698  1.0000
  O   O1        1.0  0.8342197400000001  0.5000451200000001  0.5449767522686221  1.0000
