data_image0
_chemical_formula_structural       COAl4Au8
_chemical_formula_sum              "C1 O1 Al4 Au8"
_cell_length_a       4.7666907
_cell_length_b       5.129547049202594
_cell_length_c       103.36683492
_cell_angle_alpha    90.0
_cell_angle_beta     90.0
_cell_angle_gamma    117.68632816638961

_space_group_name_H-M_alt    "P 1"
_space_group_IT_number       1

loop_
  _space_group_symop_operation_xyz
  'x, y, z'

loop_
  _atom_site_type_symbol
  _atom_site_label
  _atom_site_symmetry_multiplicity
  _atom_site_fract_x
  _atom_site_fract_y
  _atom_site_fract_z
  _atom_site_occupancy
  C   C1        1.0  0.679250935  0.22706295999999995  0.5401022321896995  1.0000
  O   O1        1.0  0.723258245  0.2641435999999999  0.5511361240443856  1.0000
  Al  Al1       1.0  0.610822375  0.15577558999999996  0.5202657758064266  1.0000
  Al  Al2       1.0  0.05803967500000003  0.14883272999999994  0.4954655432854561  1.0000
  Al  Al3       1.0  0.533091995  0.13580084999999995  0.471921032592037  1.0000
  Al  Al4       1.0  0.033091995000000034  0.13580084999999995  0.4488638759556145  1.0000
  Au  Au1       1.0  0.7123947449999999  0.4528074099999999  0.4962396149355336  1.0000
  Au  Au2       1.0  0.2813364950000001  0.49380764999999993  0.5191353488762591  1.0000
  Au  Au3       1.0  0.966908005  0.86419915  0.5192374764033345  1.0000
  Au  Au4       1.0  0.40230194500000005  0.8379572299999999  0.4943531641144352  1.0000
  Au  Au5       1.0  0.6876133550000001  0.4448435699999999  0.4488638759556145  1.0000
  Au  Au6       1.0  0.18761335500000004  0.4448435699999999  0.471921032592037  1.0000
  Au  Au7       1.0  0.878570635  0.82675813  0.471921032592037  1.0000
  Au  Au8       1.0  0.3785706350000001  0.82675813  0.4488638759556145  1.0000
