data_image0
_chemical_formula_structural       COV3Os3V3Os3V3Os3V3Os3
_chemical_formula_sum              "C1 O1 V12 Os12"
_cell_length_a       6.04986392
_cell_length_b       6.763953484989389
_cell_length_c       40.05470138
_cell_angle_alpha    108.43494882292202
_cell_angle_beta     90.0
_cell_angle_gamma    90.0

_space_group_name_H-M_alt    "P 1"
_space_group_IT_number       1

loop_
  _space_group_symop_operation_xyz
  'x, y, z'

loop_
  _atom_site_type_symbol
  _atom_site_label
  _atom_site_symmetry_multiplicity
  _atom_site_fract_x
  _atom_site_fract_y
  _atom_site_fract_z
  _atom_site_occupancy
  C   C1        1.0  0.12394686500000003  0.56682646  0.6017187251570953  1.0000
  O   O1        1.0  0.12394682500000004  0.6088419700000001  0.6324692511374029  1.0000
  V   V1        1.0  0.12394543500000003  0.8396939100000003  0.5130855949697021  1.0000
  V   V2        1.0  0.12394617500000003  0.4886948200000001  0.5495529831125794  1.0000
  V   V3        1.0  0.12394619500000004  0.15587791000000004  0.4743321871435773  1.0000
  Os  Os1       1.0  0.3718332550000001  0.8046917900000001  0.5573131682971784  1.0000
  Os  Os2       1.0  0.37394639500000004  0.49452003000000005  0.4923387497957242  1.0000
  Os  Os3       1.0  0.37315689500000004  0.16649405000000006  0.5253084366895641  1.0000
  V   V4        1.0  0.12394619500000004  0.8225445800000002  0.4031312307816244  1.0000
  V   V5        1.0  0.12394619500000004  0.48921124000000005  0.43873170522455035  1.0000
  V   V6        1.0  0.12394619500000004  0.15587791000000004  0.36753074886259746  1.0000
  Os  Os4       1.0  0.37394619500000004  0.8225445800000002  0.45653194992211427  1.0000
  Os  Os5       1.0  0.37394619500000004  0.48921124000000005  0.38533098608406047  1.0000
  Os  Os6       1.0  0.37394619500000004  0.15587791000000004  0.4209314680030874  1.0000
  V   V7        1.0  0.6239460050000001  0.8441220900000002  0.5142109948558226  1.0000
  V   V8        1.0  0.623946525  0.49232197000000005  0.5465525621862961  1.0000
  V   V9        1.0  0.623946195  0.15587791000000004  0.4743321871435773  1.0000
  Os  Os7       1.0  0.8760545650000001  0.80469016  0.5573130785839684  1.0000
  Os  Os8       1.0  0.8739458050000002  0.4945205100000001  0.49233880960453086  1.0000
  Os  Os9       1.0  0.8747339850000001  0.16649387000000007  0.525308391832959  1.0000
  V   V10       1.0  0.623946195  0.8225445800000002  0.4031312307816244  1.0000
  V   V11       1.0  0.623946195  0.48921124000000005  0.43873170522455035  1.0000
  V   V12       1.0  0.623946195  0.15587791000000004  0.36753074886259746  1.0000
  Os  Os10      1.0  0.8739461950000001  0.8225445800000002  0.45653194992211427  1.0000
  Os  Os11      1.0  0.8739461950000001  0.48921124000000005  0.38533098608406047  1.0000
  Os  Os12      1.0  0.8739461950000001  0.15587791000000004  0.4209314680030874  1.0000
