data_image0
_chemical_formula_structural       COPt4Sn8
_chemical_formula_sum              "C1 O1 Pt4 Sn8"
_cell_length_a       4.65759902
_cell_length_b       4.65759902
_cell_length_c       30.47896181
_cell_angle_alpha    90.0
_cell_angle_beta     90.0
_cell_angle_gamma    90.0

_space_group_name_H-M_alt    "P 1"
_space_group_IT_number       1

loop_
  _space_group_symop_operation_xyz
  'x, y, z'

loop_
  _atom_site_type_symbol
  _atom_site_label
  _atom_site_symmetry_multiplicity
  _atom_site_fract_x
  _atom_site_fract_y
  _atom_site_fract_z
  _atom_site_occupancy
  C   C1        1.0  0.25000080999999996  0.5000097649999999  0.6934040651593076  1.0000
  O   O1        1.0  0.25000069999999996  0.500007325  0.7314202291639214  1.0000
  Pt  Pt1       1.0  0.25000049999999996  3.5149999999828444e-06  0.43066304009392997  1.0000
  Pt  Pt2       1.0  0.7500005  0.500003515  0.3226075315775828  1.0000
  Pt  Pt3       1.0  0.24999987999999998  0.999996485  0.6380888056934498  1.0000
  Pt  Pt4       1.0  0.7500001599999999  0.500002155  0.5379306812884069  1.0000
  Sn  Sn1       1.0  0.7500005  3.5149999999828444e-06  0.26857977083607854  1.0000
  Sn  Sn2       1.0  0.25000049999999996  0.500003515  0.26857977083607854  1.0000
  Sn  Sn3       1.0  0.25000049999999996  0.500003515  0.37663527935242574  1.0000
  Sn  Sn4       1.0  0.7500005  3.5149999999828444e-06  0.37663527935242574  1.0000
  Sn  Sn5       1.0  0.7500005  3.5149999999828444e-06  0.4846908008354343  1.0000
  Sn  Sn6       1.0  0.25000049999999996  0.500003515  0.4846908008354343  1.0000
  Sn  Sn7       1.0  0.24999949999999999  0.499993065  0.590614421627902  1.0000
  Sn  Sn8       1.0  0.74999954  0.999994725  0.5963742645508953  1.0000
