data_image0
_chemical_formula_structural       COAl3Os6V3Al3Os6V3Al3Os6V3Al3Os6V3
_chemical_formula_sum              "C1 O1 Al12 Os24 V12"
_cell_length_a       8.55664732
_cell_length_b       8.55664732836231
_cell_length_c       101.43912979
_cell_angle_alpha    90.0
_cell_angle_beta     90.0
_cell_angle_gamma    119.99999996767156

_space_group_name_H-M_alt    "P 1"
_space_group_IT_number       1

loop_
  _space_group_symop_operation_xyz
  'x, y, z'

loop_
  _atom_site_type_symbol
  _atom_site_label
  _atom_site_symmetry_multiplicity
  _atom_site_fract_x
  _atom_site_fract_y
  _atom_site_fract_z
  _atom_site_occupancy
  C   C1        1.0  0.083343415  0.08207181999999993  0.5466877871880328  1.0000
  O   O1        1.0  0.08335989500000002  0.08206097999999992  0.5585033637534853  1.0000
  Al  Al1       1.0  0.08333671500000002  0.08208278999999993  0.47593341242581266  1.0000
  Al  Al2       1.0  0.416670045  0.24874945999999992  0.441496636246515  1.0000
  Al  Al3       1.0  0.24915895500000002  0.4137328799999999  0.5101913088356649  1.0000
  Os  Os1       1.0  0.422110015  0.25148472999999993  0.5192028591641739  1.0000
  Os  Os2       1.0  0.250003385  0.4154161199999999  0.48454260724546466  1.0000
  Os  Os3       1.0  0.08333671500000002  0.08208278999999993  0.4501058310661668  1.0000
  Os  Os4       1.0  0.08333671500000002  0.08208278999999993  0.5017609968847684  1.0000
  Os  Os5       1.0  0.416670045  0.24874945999999992  0.46732422070547064  1.0000
  Os  Os6       1.0  0.242502365  0.4005684799999999  0.534697332062199  1.0000
  V   V1        1.0  0.250003385  0.4154161199999999  0.4587150258858187  1.0000
  V   V2        1.0  0.08332995500000001  0.08208672999999993  0.5271989825943625  1.0000
  V   V3        1.0  0.416670045  0.24874945999999992  0.4931518020651165  1.0000
  Al  Al4       1.0  0.08333671499999998  0.5820827899999999  0.47593341242581266  1.0000
  Al  Al5       1.0  0.416670045  0.7487494599999999  0.441496636246515  1.0000
  Al  Al6       1.0  0.24916282499999995  0.9162599899999998  0.5101920805638268  1.0000
  Os  Os7       1.0  0.41669000500000003  0.7487512199999998  0.5199207988029781  1.0000
  Os  Os8       1.0  0.25000338499999997  0.9154161199999998  0.48454260724546466  1.0000
  Os  Os9       1.0  0.08333671499999998  0.5820827899999999  0.4501058310661668  1.0000
  Os  Os10      1.0  0.08333671499999998  0.5820827899999999  0.5017609968847684  1.0000
  Os  Os11      1.0  0.416670045  0.7487494599999999  0.46732422070547064  1.0000
  Os  Os12      1.0  0.24258398499999995  0.9228357599999999  0.5346981998689674  1.0000
  V   V4        1.0  0.25000338499999997  0.9154161199999998  0.4587150258858187  1.0000
  V   V5        1.0  0.08833249500000002  0.58459034  0.526766706347855  1.0000
  V   V6        1.0  0.416670045  0.7487494599999999  0.4931518020651165  1.0000
  Al  Al7       1.0  0.5833367150000001  0.08208278999999993  0.47593341242581266  1.0000
  Al  Al8       1.0  0.916670045  0.24874945999999992  0.441496636246515  1.0000
  Al  Al9       1.0  0.7499982850000001  0.4154174899999999  0.509976191935019  1.0000
  Os  Os13      1.0  0.9139488450000001  0.2514491899999999  0.5191972122215596  1.0000
  Os  Os14      1.0  0.7500033850000001  0.4154161199999999  0.48454260724546466  1.0000
  Os  Os15      1.0  0.5833367150000001  0.08208278999999993  0.4501058310661668  1.0000
  Os  Os16      1.0  0.5833367150000001  0.08208278999999993  0.5017609968847684  1.0000
  Os  Os17      1.0  0.916670045  0.24874945999999992  0.46732422070547064  1.0000
  Os  Os18      1.0  0.750134245  0.4153054799999999  0.5343438247764729  1.0000
  V   V7        1.0  0.7500033850000001  0.4154161199999999  0.4587150258858187  1.0000
  V   V8        1.0  0.580826825  0.07707976999999992  0.5267657703562691  1.0000
  V   V9        1.0  0.916670045  0.24874945999999992  0.4931518020651165  1.0000
  Al  Al10      1.0  0.583336715  0.5820827899999999  0.47593341242581266  1.0000
  Al  Al11      1.0  0.9166700449999999  0.7487494599999999  0.441496636246515  1.0000
  Al  Al12      1.0  0.751686715  0.9162632099999999  0.5101916559583722  1.0000
  Os  Os19      1.0  0.9139288350000001  0.74331883  0.5192022826925349  1.0000
  Os  Os20      1.0  0.750003385  0.9154161199999998  0.48454260724546466  1.0000
  Os  Os21      1.0  0.583336715  0.5820827899999999  0.4501058310661668  1.0000
  Os  Os22      1.0  0.583336715  0.5820827899999999  0.5017609968847684  1.0000
  Os  Os23      1.0  0.9166700449999999  0.7487494599999999  0.46732422070547064  1.0000
  Os  Os24      1.0  0.764850195  0.92292023  0.5346984230192793  1.0000
  V   V10       1.0  0.750003385  0.9154161199999998  0.4587150258858187  1.0000
  V   V11       1.0  0.580833835  0.5845865899999998  0.5267611213914385  1.0000
  V   V12       1.0  0.9166700449999999  0.7487494599999999  0.4931518020651165  1.0000
