data_image0
_chemical_formula_structural       COCa24Au8
_chemical_formula_sum              "C1 O1 Ca24 Au8"
_cell_length_a       10.553514688916083
_cell_length_b       10.05778941
_cell_length_c       101.66054405
_cell_angle_alpha    90.0
_cell_angle_beta     98.14323029151663
_cell_angle_gamma    90.0

_space_group_name_H-M_alt    "P 1"
_space_group_IT_number       1

loop_
  _space_group_symop_operation_xyz
  'x, y, z'

loop_
  _atom_site_type_symbol
  _atom_site_label
  _atom_site_symmetry_multiplicity
  _atom_site_fract_x
  _atom_site_fract_y
  _atom_site_fract_z
  _atom_site_occupancy
  C   C1        1.0  0.41970876  0.5180461600000001  0.5493602820683992  1.0000
  O   O1        1.0  0.38988007  0.54161976  0.5597620418378134  1.0000
  Ca  Ca1       1.0  0.49532947000000005  0.5621449000000002  0.4583980014807054  1.0000
  Ca  Ca2       1.0  0.99110926  0.55233486  0.5088818359983164  1.0000
  Ca  Ca3       1.0  0.17026268000000003  0.43470992000000014  0.4402379581621865  1.0000
  Ca  Ca4       1.0  0.67026268  0.43470992000000014  0.4921436132017768  1.0000
  Ca  Ca5       1.0  0.8326066400000001  0.9347099200000001  0.4415055316810279  1.0000
  Ca  Ca6       1.0  0.33260664  0.9347099200000001  0.49341118983495763  1.0000
  Ca  Ca7       1.0  0.50204848  0.05388744000000006  0.5264628862452922  1.0000
  Ca  Ca8       1.0  0.007539850000000022  0.062144900000000045  0.47525114340209934  1.0000
  Ca  Ca9       1.0  0.25850968  0.7468878900000001  0.5263946946691997  1.0000
  Ca  Ca10      1.0  0.80494977  0.7484274100000001  0.47616880842896525  1.0000
  Ca  Ca11      1.0  0.34144638000000005  0.24842741000000007  0.47238004634175274  1.0000
  Ca  Ca12      1.0  0.81571777  0.24955809000000007  0.5227475260240335  1.0000
  Ca  Ca13      1.0  0.68073667  0.75183566  0.5133146279073248  1.0000
  Ca  Ca14      1.0  0.16142294000000004  0.7484274100000001  0.4612690985410519  1.0000
  Ca  Ca15      1.0  0.6979195499999999  0.24842741000000007  0.45748033956817885  1.0000
  Ca  Ca16      1.0  0.19842574999999998  0.25139950000000005  0.5090947042124877  1.0000
  Ca  Ca17      1.0  0.49532947000000005  0.9347099200000001  0.4583980014807054  1.0000
  Ca  Ca18      1.0  0.99246015  0.9461125599999999  0.5089582774595508  1.0000
  Ca  Ca19      1.0  0.17026268000000003  0.062144900000000045  0.4402379581621865  1.0000
  Ca  Ca20      1.0  0.67026268  0.062144900000000045  0.4921436132017768  1.0000
  Ca  Ca21      1.0  0.8326066400000001  0.5621449000000002  0.4415055316810279  1.0000
  Ca  Ca22      1.0  0.33260664  0.5621449000000002  0.49341118983495763  1.0000
  Ca  Ca23      1.0  0.5029488299999999  0.45716265  0.527217973411053  1.0000
  Ca  Ca24      1.0  0.007539850000000022  0.43470992000000014  0.47525114340209934  1.0000
  Au  Au1       1.0  0.46538702  0.24842741000000007  0.5016997924447013  1.0000
  Au  Au2       1.0  0.9653870200000001  0.24842741000000007  0.4497941342907716  1.0000
  Au  Au3       1.0  0.53463849  0.7589886100000002  0.5360512989012857  1.0000
  Au  Au4       1.0  0.08738281000000002  0.7484274100000001  0.4890352501921881  1.0000
  Au  Au5       1.0  0.41548651000000003  0.24842741000000007  0.44461389780495597  1.0000
  Au  Au6       1.0  0.91548651  0.24842741000000007  0.49651955595888564  1.0000
  Au  Au7       1.0  0.5374823000000001  0.7484274100000001  0.48385501059203306  1.0000
  Au  Au8       1.0  0.97274604  0.74783404  0.5298961464869185  1.0000
