data_image0
_chemical_formula_structural       COAu8Ca8
_chemical_formula_sum              "C1 O1 Au8 Ca8"
_cell_length_a       5.964720179415306
_cell_length_b       6.234053458394284
_cell_length_c       105.77003598
_cell_angle_alpha    86.8743311803022
_cell_angle_beta     86.45395544041459
_cell_angle_gamma    77.13398392322317

_space_group_name_H-M_alt    "P 1"
_space_group_IT_number       1

loop_
  _space_group_symop_operation_xyz
  'x, y, z'

loop_
  _atom_site_type_symbol
  _atom_site_label
  _atom_site_symmetry_multiplicity
  _atom_site_fract_x
  _atom_site_fract_y
  _atom_site_fract_z
  _atom_site_occupancy
  C   C1        1.0  0.3476410200000001  0.30724541999999994  0.55102398424784  1.0000
  O   O1        1.0  0.28852820999999995  0.20769037999999998  0.5598239748776516  1.0000
  Au  Au1       1.0  0.27023844  0.52877459  0.4683582620367507  1.0000
  Au  Au2       1.0  0.4369051  0.94544126  0.44017602512234844  1.0000
  Au  Au3       1.0  0.8901215300000002  0.88789207  0.4778871873808001  1.0000
  Au  Au4       1.0  0.05678820000000001  0.30455873999999994  0.4497049470845293  1.0000
  Au  Au5       1.0  0.9427631  0.68762317  0.5246682776360532  1.0000
  Au  Au6       1.0  0.10357177000000001  0.11210792999999998  0.4965404989511531  1.0000
  Au  Au7       1.0  0.56162532  0.047514349999999976  0.532668909520629  1.0000
  Au  Au8       1.0  0.72078949  0.47004742  0.506011787109249  1.0000
  Ca  Ca1       1.0  0.78298693  0.41224085  0.4762402985544892  1.0000
  Ca  Ca2       1.0  0.94965359  0.82890751  0.4480580616400869  1.0000
  Ca  Ca3       1.0  0.37737304  0.004425819999999979  0.4700051508630617  1.0000
  Ca  Ca4       1.0  0.54403971  0.42109249  0.44182291056679085  1.0000
  Ca  Ca5       1.0  0.44988994000000004  0.56416712  0.5323482880894553  1.0000
  Ca  Ca6       1.0  0.6163202600000001  0.9955741800000001  0.5044225354688915  1.0000
  Ca  Ca7       1.0  0.05034641000000001  0.16167744999999997  0.5255408098714297  1.0000
  Ca  Ca8       1.0  0.21070636999999995  0.58775915  0.49818738777746396  1.0000
