data_image0
_chemical_formula_structural       COCa4Au4Ca4Au4
_chemical_formula_sum              "C1 O1 Ca8 Au8"
_cell_length_a       11.21390704
_cell_length_b       4.72266729
_cell_length_c       98.48564508
_cell_angle_alpha    90.0
_cell_angle_beta     90.0
_cell_angle_gamma    90.0

_space_group_name_H-M_alt    "P 1"
_space_group_IT_number       1

loop_
  _space_group_symop_operation_xyz
  'x, y, z'

loop_
  _atom_site_type_symbol
  _atom_site_label
  _atom_site_symmetry_multiplicity
  _atom_site_fract_x
  _atom_site_fract_y
  _atom_site_fract_z
  _atom_site_occupancy
  C   C1        1.0  0.651340545  0.74999887  0.5410536789578706  1.0000
  O   O1        1.0  0.5713211850000001  0.74999918  0.5484614166594111  1.0000
  Ca  Ca1       1.0  0.860940645  0.74999819  0.47219833423057056  1.0000
  Ca  Ca2       1.0  0.639696705  0.24999819  0.451538583340589  1.0000
  Ca  Ca3       1.0  0.3609406450000001  0.74999819  0.451538583340589  1.0000
  Ca  Ca4       1.0  0.13969670500000003  0.24999819  0.47219833423057056  1.0000
  Au  Au1       1.0  0.581259645  0.74999819  0.47219833423057056  1.0000
  Au  Au2       1.0  0.919377705  0.24999819  0.451538583340589  1.0000
  Au  Au3       1.0  0.081259645  0.74999819  0.451538583340589  1.0000
  Au  Au4       1.0  0.41937770499999993  0.24999819  0.47219833423057056  1.0000
  Ca  Ca5       1.0  0.844614885  0.74999844  0.5127528921907325  1.0000
  Ca  Ca6       1.0  0.6390893750000001  0.24999809000000003  0.49260967722922294  1.0000
  Ca  Ca7       1.0  0.35823887499999996  0.74999936  0.4926409812975926  1.0000
  Ca  Ca8       1.0  0.14579419500000002  0.24999733000000005  0.5121181424048887  1.0000
  Au  Au5       1.0  0.576045055  0.75000267  0.5120980636057921  1.0000
  Au  Au6       1.0  0.9149687550000001  0.24999738999999999  0.4943460392497393  1.0000
  Au  Au7       1.0  0.08062229500000001  0.74999738  0.49409764292787095  1.0000
  Au  Au8       1.0  0.41743676500000004  0.24999877  0.5120635576891656  1.0000
