data_image0
_chemical_formula_structural       COAu16Ca16
_chemical_formula_sum              "C1 O1 Au16 Ca16"
_cell_length_a       10.284657579647263
_cell_length_b       12.16779755739531
_cell_length_c       100.01077008
_cell_angle_alpha    97.01656047708987
_cell_angle_beta     94.96344911953373
_cell_angle_gamma    110.88255242142591

_space_group_name_H-M_alt    "P 1"
_space_group_IT_number       1

loop_
  _space_group_symop_operation_xyz
  'x, y, z'

loop_
  _atom_site_type_symbol
  _atom_site_label
  _atom_site_symmetry_multiplicity
  _atom_site_fract_x
  _atom_site_fract_y
  _atom_site_fract_z
  _atom_site_occupancy
  C   C1        1.0  0.6448646700000001  0.80882297  0.5339453179603869  1.0000
  O   O1        1.0  0.60013594  0.78163962  0.544145120269871  1.0000
  Au  Au1       1.0  0.7855583100000001  0.4130506399999999  0.5121645113673491  1.0000
  Au  Au2       1.0  0.3519517200000001  0.41484463999999993  0.4944333841010624  1.0000
  Au  Au3       1.0  0.9248989300000002  0.08130024999999995  0.4983591923099419  1.0000
  Au  Au4       1.0  0.36884718000000005  0.08307446999999993  0.5156786821681033  1.0000
  Au  Au5       1.0  0.0683464700000001  0.91463951  0.503269121741568  1.0000
  Au  Au6       1.0  0.5071774300000003  0.9194579500000002  0.5209958829110402  1.0000
  Au  Au7       1.0  0.0777488200000001  0.5575910599999999  0.5236251044021906  1.0000
  Au  Au8       1.0  0.6387028200000001  0.5806698699999999  0.5065156853162611  1.0000
  Au  Au9       1.0  0.9211980100000002  0.4186601099999999  0.47570556245350476  1.0000
  Au  Au10      1.0  0.48369801000000007  0.4186601099999999  0.45695085105092664  1.0000
  Au  Au11      1.0  0.05452137000000009  0.08054204999999993  0.45998689974182194  1.0000
  Au  Au12      1.0  0.49202137000000007  0.08054204999999993  0.47874161114440006  1.0000
  Au  Au13      1.0  0.20244801000000018  0.91866011  0.46632820675221576  1.0000
  Au  Au14      1.0  0.6399480100000002  0.91866011  0.485082918154794  1.0000
  Au  Au15      1.0  0.21077137000000007  0.5805420499999999  0.4881189668456891  1.0000
  Au  Au16      1.0  0.77327137  0.5805420499999999  0.469364255443111  1.0000
  Ca  Ca1       1.0  0.6714462200000001  0.13797868999999996  0.5073861049758469  1.0000
  Ca  Ca2       1.0  0.11729088000000007  0.13353431999999993  0.5243816724609245  1.0000
  Ca  Ca3       1.0  0.04646897000000008  0.35740873999999995  0.5018509564818892  1.0000
  Ca  Ca4       1.0  0.4910595100000002  0.3548083199999999  0.5193010691540272  1.0000
  Ca  Ca5       1.0  0.9535310300000001  0.63785518  0.49883851772208443  1.0000
  Ca  Ca6       1.0  0.3752360900000001  0.6400801399999999  0.516633699079507  1.0000
  Ca  Ca7       1.0  0.33313180000000014  0.86022305  0.4933643025352851  1.0000
  Ca  Ca8       1.0  0.7511239400000002  0.85288459  0.5119368261701679  1.0000
  Ca  Ca9       1.0  0.79883758  0.13897910999999996  0.4704602267639088  1.0000
  Ca  Ca10      1.0  0.23633758000000005  0.13897910999999996  0.4892149381664869  1.0000
  Ca  Ca11      1.0  0.1768818000000001  0.36022305  0.4652322354314179  1.0000
  Ca  Ca12      1.0  0.6143818000000001  0.36022305  0.48398694683399607  1.0000
  Ca  Ca13      1.0  0.08008758000000009  0.63897911  0.46108287106261975  1.0000
  Ca  Ca14      1.0  0.51758758  0.63897911  0.4798375824651979  1.0000
  Ca  Ca15      1.0  0.45813180000000014  0.86022305  0.4558548797301288  1.0000
  Ca  Ca16      1.0  0.8956318  0.86022305  0.474609591132707  1.0000
