data_image0
_chemical_formula_structural       COAu6Na18
_chemical_formula_sum              "C1 O1 Au6 Na18"
_cell_length_a       9.1104386141062
_cell_length_b       5.369505932028865
_cell_length_c       103.55861007
_cell_angle_alpha    88.3329617310692
_cell_angle_beta     86.47755057601772
_cell_angle_gamma    103.95209496847707

_space_group_name_H-M_alt    "P 1"
_space_group_IT_number       1

loop_
  _space_group_symop_operation_xyz
  'x, y, z'

loop_
  _atom_site_type_symbol
  _atom_site_label
  _atom_site_symmetry_multiplicity
  _atom_site_fract_x
  _atom_site_fract_y
  _atom_site_fract_z
  _atom_site_occupancy
  C   C1        1.0  0.828977515  0.61833591  0.5621359064225404  1.0000
  O   O1        1.0  0.8742689149999999  0.77235589  0.5701073758069184  1.0000
  Au  Au1       1.0  0.9333333349999999  0.04166667000000006  0.5001043843623282  1.0000
  Au  Au2       1.0  0.9661231750000001  0.59965796  0.5434374337160324  1.0000
  Au  Au3       1.0  0.46666666500000004  0.30833332999999996  0.5217080003832174  1.0000
  Au  Au4       1.0  0.33333333499999995  0.24166666999999997  0.4352935298185753  1.0000
  Au  Au5       1.0  0.40000000499999994  0.775  0.4785007651008963  1.0000
  Au  Au6       1.0  0.866666665  0.50833333  0.4568971458394644  1.0000
  Na  Na1       1.0  0.328957645  0.7417420599999999  0.540621120158889  1.0000
  Na  Na2       1.0  0.833333335  0.49166667  0.5163070979982665  1.0000
  Na  Na3       1.0  0.30000000499999996  0.22499999999999998  0.49470347873683446  1.0000
  Na  Na4       1.0  0.5890531450000001  0.3703232  0.5504694794854268  1.0000
  Na  Na5       1.0  0.11505071499999998  0.13284608999999994  0.527953582635437  1.0000
  Na  Na6       1.0  0.566666665  0.8583333299999999  0.505505286747279  1.0000
  Na  Na7       1.0  0.7393151450000001  0.94168648  0.5332808274841989  1.0000
  Na  Na8       1.0  0.20000000499999998  0.675  0.5109061923727728  1.0000
  Na  Na9       1.0  0.040324835  0.15297201  0.5595460031046603  1.0000
  Na  Na10      1.0  0.7666666649999999  0.95833333  0.47309985947540256  1.0000
  Na  Na11      1.0  0.23333333499999998  0.6916666699999999  0.45149624345451345  1.0000
  Na  Na12      1.0  0.700000005  0.425  0.42989262419308155  1.0000
  Na  Na13      1.0  0.03333333499999999  0.59166667  0.48390167072638995  1.0000
  Na  Na14      1.0  0.500000005  0.32499999999999996  0.46229805146495806  1.0000
  Na  Na15      1.0  0.966666665  0.058333330000000023  0.44069443220352617  1.0000
  Na  Na16      1.0  0.133333335  0.14166667  0.46769895709045173  1.0000
  Na  Na17      1.0  0.600000005  0.875  0.4460953378290198  1.0000
  Na  Na18      1.0  0.6666666649999999  0.40833332999999994  0.4893025731113409  1.0000
