data_image0
_chemical_formula_structural       Cu6Si2Cu6Si2CO
_chemical_formula_sum              "Cu12 Si4 C1 O1"
_cell_length_a       5.24160725
_cell_length_b       5.241607256690965
_cell_length_c       99.44958567
_cell_angle_alpha    90.0
_cell_angle_beta     90.0
_cell_angle_gamma    120.0000000208833

_space_group_name_H-M_alt    "P 1"
_space_group_IT_number       1

loop_
  _space_group_symop_operation_xyz
  'x, y, z'

loop_
  _atom_site_type_symbol
  _atom_site_label
  _atom_site_symmetry_multiplicity
  _atom_site_fract_x
  _atom_site_fract_y
  _atom_site_fract_z
  _atom_site_occupancy
  Cu  Cu1       1.0  0.17128692000000004  0.33543949  0.4517877758323562  1.0000
  Cu  Cu2       1.0  0.66812769  0.83228026  0.4517877758323562  1.0000
  Cu  Cu3       1.0  0.17128692000000006  0.83228026  0.4517877758323562  1.0000
  Cu  Cu4       1.0  0.83584744  0.66456051  0.4729396165095079  1.0000
  Cu  Cu5       1.0  0.33900667000000007  0.16771974000000003  0.4729396165095079  1.0000
  Cu  Cu6       1.0  0.83584744  0.16771974000000003  0.4729396165095079  1.0000
  Si  Si1       1.0  0.33690051000000004  0.66666667  0.4729396165095079  1.0000
  Si  Si2       1.0  0.67023385  0.33333333  0.4517877758323562  1.0000
  Cu  Cu7       1.0  0.17119532000000004  0.3415909  0.4934880150428018  1.0000
  Cu  Cu8       1.0  0.6664773400000001  0.82988769  0.494341236316954  1.0000
  Cu  Cu9       1.0  0.16235140000000003  0.83138455  0.49420062987627733  1.0000
  Cu  Cu10      1.0  0.83568896  0.67725758  0.517703143609895  1.0000
  Cu  Cu11      1.0  0.33627022  0.17646930000000002  0.5147904267929726  1.0000
  Cu  Cu12      1.0  0.8376485999999999  0.17895637  0.5148102761036978  1.0000
  Si  Si3       1.0  0.33069665000000004  0.67348018  0.5143547635909425  1.0000
  Si  Si4       1.0  0.6719398099999999  0.34370726  0.4949210387401613  1.0000
  C   C1        1.0  0.80261451  0.67544452  0.536662486813512  1.0000
  O   O1        1.0  0.76672859  0.66741136  0.5482122241676438  1.0000
