data_image0
_chemical_formula_structural       COCo8V24
_chemical_formula_sum              "C1 O1 Co8 V24"
_cell_length_a       6.58410686
_cell_length_b       8.063851114764343
_cell_length_c       100.52924758
_cell_angle_alpha    95.05115251199076
_cell_angle_beta     90.0
_cell_angle_gamma    90.0

_space_group_name_H-M_alt    "P 1"
_space_group_IT_number       1

loop_
  _space_group_symop_operation_xyz
  'x, y, z'

loop_
  _atom_site_type_symbol
  _atom_site_label
  _atom_site_symmetry_multiplicity
  _atom_site_fract_x
  _atom_site_fract_y
  _atom_site_fract_z
  _atom_site_occupancy
  C   C1        1.0  0.9319773100000001  0.49060139999999997  0.5388319052985364  1.0000
  O   O1        1.0  0.81918256  0.58406452  0.545860654372677  1.0000
  Co  Co1       1.0  0.014273450000000036  0.52813486  0.48735491755732535  1.0000
  Co  Co2       1.0  0.5093481900000001  0.21660551  0.5069389827572783  1.0000
  Co  Co3       1.0  0.98572655  0.9071391300000001  0.5223574918124402  1.0000
  Co  Co4       1.0  0.51427345  0.84063486  0.46837459074018123  1.0000
  Co  Co5       1.0  0.04546122000000003  0.40565532  0.5242467449541821  1.0000
  Co  Co6       1.0  0.51427345  0.34063486000000004  0.46837459074018123  1.0000
  Co  Co7       1.0  0.014273450000000036  0.02813486  0.48735491755732535  1.0000
  Co  Co8       1.0  0.51733625  0.71304718  0.5071830242073625  1.0000
  V   V1        1.0  0.8892734500000001  0.76250986  0.4731196724444672  1.0000
  V   V2        1.0  0.3892734500000001  0.45000986  0.49209999926161135  1.0000
  V   V3        1.0  0.87114572  0.1375443  0.5106238446635248  1.0000
  V   V4        1.0  0.3892734500000001  0.07500986  0.454139345627323  1.0000
  V   V5        1.0  0.63927345  0.6062598600000001  0.48260983585303935  1.0000
  V   V6        1.0  0.13355153000000003  0.28801414999999997  0.5012494096220483  1.0000
  V   V7        1.0  0.6112432800000002  0.9606633400000001  0.5184714475524889  1.0000
  V   V8        1.0  0.13927345000000005  0.91875986  0.4636295090358951  1.0000
  V   V9        1.0  0.26427345  0.59063486  0.4683745907401811  1.0000
  V   V10       1.0  0.7642734500000001  0.27813486  0.48735491755732535  1.0000
  V   V11       1.0  0.25996404000000006  0.97186514  0.5063677386939804  1.0000
  V   V12       1.0  0.78746962  0.6625813200000001  0.5258597447535919  1.0000
  V   V13       1.0  0.26427345  0.7781348600000001  0.48735491755732535  1.0000
  V   V14       1.0  0.77314287  0.4720848  0.5067230807805203  1.0000
  V   V15       1.0  0.22418791000000005  0.15593011  0.5248237043734911  1.0000
  V   V16       1.0  0.7642734500000001  0.09063486000000001  0.4683745907401811  1.0000
  V   V17       1.0  0.8892734500000001  0.41875986000000004  0.46362950903589506  1.0000
  V   V18       1.0  0.3892734500000001  0.10625986  0.4826098358530393  1.0000
  V   V19       1.0  0.8944503500000001  0.78826578  0.5013467741433418  1.0000
  V   V20       1.0  0.41073679  0.45681342  0.5185660758698685  1.0000
  V   V21       1.0  0.13927345000000005  0.26250986  0.4731196724444672  1.0000
  V   V22       1.0  0.63927345  0.9500098600000001  0.4920999992616114  1.0000
  V   V23       1.0  0.15056515000000004  0.6338346600000001  0.5105590898621293  1.0000
  V   V24       1.0  0.63927345  0.57500986  0.45413934562732305  1.0000
