data_image0
_chemical_formula_structural       COAu18Pd6
_chemical_formula_sum              "C1 O1 Au18 Pd6"
_cell_length_a       5.043558927189102
_cell_length_b       7.74830137287083
_cell_length_c       102.71869797
_cell_angle_alpha    86.31892869315355
_cell_angle_beta     89.64478394619255
_cell_angle_gamma    89.24999930010915

_space_group_name_H-M_alt    "P 1"
_space_group_IT_number       1

loop_
  _space_group_symop_operation_xyz
  'x, y, z'

loop_
  _atom_site_type_symbol
  _atom_site_label
  _atom_site_symmetry_multiplicity
  _atom_site_fract_x
  _atom_site_fract_y
  _atom_site_fract_z
  _atom_site_occupancy
  C   C1        1.0  0.51844102  0.9262293300000001  0.5493402244676904  1.0000
  O   O1        1.0  0.55430709  0.9340691000000001  0.5606021449708661  1.0000
  Au  Au1       1.0  0.23196176  0.42760760000000003  0.5284687496171376  1.0000
  Au  Au2       1.0  0.58142257  0.875  0.5101816737699675  1.0000
  Au  Au3       1.0  0.9147559  0.31944444  0.49248571749212317  1.0000
  Au  Au4       1.0  0.56897714  0.70551513  0.5371223592809639  1.0000
  Au  Au5       1.0  0.9253372000000001  0.14598156000000004  0.519537967150548  1.0000
  Au  Au6       1.0  0.24808924000000002  0.59722222  0.5013336956310452  1.0000
  Au  Au7       1.0  0.07466279999999999  0.7899655600000001  0.5234531408906664  1.0000
  Au  Au8       1.0  0.41475589999999996  0.23611111  0.5057576847005064  1.0000
  Au  Au9       1.0  0.72932654  0.35630944000000003  0.5396644610591157  1.0000
  Au  Au10      1.0  0.24808923999999996  0.76388889  0.4747897643995508  1.0000
  Au  Au11      1.0  0.58142257  0.20833333  0.45709380812170647  1.0000
  Au  Au12      1.0  0.9147559  0.65277778  0.439397855029134  1.0000
  Au  Au13      1.0  0.58142257  0.041666669999999996  0.4836377425384729  1.0000
  Au  Au14      1.0  0.9147559  0.48611111  0.4659417862606286  1.0000
  Au  Au15      1.0  0.24808924000000002  0.93055556  0.44824583316805616  1.0000
  Au  Au16      1.0  0.08142256999999999  0.125  0.47036577533008966  1.0000
  Au  Au17      1.0  0.4147559  0.56944444  0.4526698190522454  1.0000
  Au  Au18      1.0  0.74808924  0.68055556  0.488061731607934  1.0000
  Pd  Pd1       1.0  0.08142256999999999  0.9583333300000001  0.4969097065615843  1.0000
  Pd  Pd2       1.0  0.42753926  0.06258601999999999  0.533202636972608  1.0000
  Pd  Pd3       1.0  0.7454523700000001  0.5145593  0.5146442173702058  1.0000
  Pd  Pd4       1.0  0.08142256999999999  0.29166667  0.4438218440985951  1.0000
  Pd  Pd5       1.0  0.4147559  0.40277778  0.4792137534690118  1.0000
  Pd  Pd6       1.0  0.74808924  0.8472222200000001  0.4615177971911676  1.0000
