data_image0
_chemical_formula_structural       COSi18W9
_chemical_formula_sum              "C1 O1 Si18 W9"
_cell_length_a       4.62476598121768
_cell_length_b       11.400485671686555
_cell_length_c       37.55171692
_cell_angle_alpha    91.01628725051853
_cell_angle_beta     73.43788841746694
_cell_angle_gamma    66.0672599670049

_space_group_name_H-M_alt    "P 1"
_space_group_IT_number       1

loop_
  _space_group_symop_operation_xyz
  'x, y, z'

loop_
  _atom_site_type_symbol
  _atom_site_label
  _atom_site_symmetry_multiplicity
  _atom_site_fract_x
  _atom_site_fract_y
  _atom_site_fract_z
  _atom_site_occupancy
  C   C1        1.0  0.27522362499999997  0.77521794  0.5968580817836496  1.0000
  O   O1        1.0  0.15159921500000004  0.80259602  0.6297394005237252  1.0000
  Si  Si1       1.0  0.8437018249999999  0.8861905299999998  0.4300483251675912  1.0000
  Si  Si2       1.0  0.845288585  0.22561431  0.5019638263377306  1.0000
  Si  Si3       1.0  0.8474817449999998  0.53686686  0.5717460735746326  1.0000
  Si  Si4       1.0  0.13968258499999983  0.6222202499999999  0.5181056554369325  1.0000
  Si  Si5       1.0  0.17095438500000018  0.94275955  0.3702605994762747  1.0000
  Si  Si6       1.0  0.1709543849999999  0.27609288000000004  0.44226858482617765  1.0000
  Si  Si7       1.0  0.6800755449999999  0.55083027  0.42961046187308033  1.0000
  Si  Si8       1.0  0.666528965  0.88767058  0.5010357268987093  1.0000
  Si  Si9       1.0  0.5526295849999998  0.23620737000000003  0.5701332818590449  1.0000
  Si  Si10      1.0  0.17095438499999968  0.66194138  0.3816051325458395  1.0000
  Si  Si11      1.0  0.170954385  0.99527472  0.4536131265367009  1.0000
  Si  Si12      1.0  0.1651841549999998  0.32976528000000005  0.5276758281472382  1.0000
  Si  Si13      1.0  0.8437018249999998  0.49426126000000004  0.4893981875643969  1.0000
  Si  Si14      1.0  0.813874025  0.8493520899999999  0.5586633339165394  1.0000
  Si  Si15      1.0  0.8437018249999998  0.16092792  0.4173901935735355  1.0000
  Si  Si16      1.0  0.33458066500000005  0.77507942  0.4780536544948321  1.0000
  Si  Si17      1.0  0.32515061499999987  0.10279137  0.5510729171511206  1.0000
  Si  Si18      1.0  0.3345806649999997  0.4417460900000001  0.4060456605039708  1.0000
  W   W1        1.0  0.007328104999999733  0.6629548500000001  0.45383205386347697  1.0000
  W   W2        1.0  0.9926718950000001  0.004725280000000016  0.5249132013543124  1.0000
  W   W3        1.0  0.007328104999999834  0.32962151  0.3818240685135742  1.0000
  W   W4        1.0  0.49390598499999994  0.7287150000000001  0.5406158105285052  1.0000
  W   W5        1.0  0.5073281049999997  0.05184374000000001  0.3938254008453844  1.0000
  W   W6        1.0  0.5073281049999997  0.38517707  0.4658333861952872  1.0000
  W   W7        1.0  0.5073281049999999  0.7740659599999999  0.4058267331771946  1.0000
  W   W8        1.0  0.5073281049999998  0.10739929000000002  0.4778347185270974  1.0000
  W   W9        1.0  0.5013697549999998  0.4454582900000001  0.5459956281403686  1.0000
