data_image0
_chemical_formula_structural       COSn18Pt12Sn18Pt12
_chemical_formula_sum              "C1 O1 Sn36 Pt24"
_cell_length_a       11.755431068039307
_cell_length_b       14.003712618993221
_cell_length_c       101.10194717
_cell_angle_alpha    99.1280431849621
_cell_angle_beta     79.10660537228074
_cell_angle_gamma    76.12271666564028

_space_group_name_H-M_alt    "P 1"
_space_group_IT_number       1

loop_
  _space_group_symop_operation_xyz
  'x, y, z'

loop_
  _atom_site_type_symbol
  _atom_site_label
  _atom_site_symmetry_multiplicity
  _atom_site_fract_x
  _atom_site_fract_y
  _atom_site_fract_z
  _atom_site_occupancy
  C   C1        1.0  0.6417565800000001  0.23266670000000003  0.5445336712749907  1.0000
  O   O1        1.0  0.5947933100000001  0.28292054  0.5555062207542906  1.0000
  Sn  Sn1       1.0  0.8652613400000001  0.07069894000000002  0.45701959957654714  1.0000
  Sn  Sn2       1.0  0.19859468000000008  0.07069894000000002  0.4716686268093783  1.0000
  Sn  Sn3       1.0  0.5319280100000001  0.07069894000000002  0.4863176540422095  1.0000
  Sn  Sn4       1.0  0.8014053200000002  0.92893366  0.4772811988634526  1.0000
  Sn  Sn5       1.0  0.13473866000000012  0.92893366  0.4479831443977903  1.0000
  Sn  Sn6       1.0  0.4680719900000002  0.92893366  0.4626321716306214  1.0000
  Sn  Sn7       1.0  0.7458497700000002  0.42893366000000005  0.46751517865736814  1.0000
  Sn  Sn8       1.0  0.0791831000000001  0.42893366000000005  0.48216420589019937  1.0000
  Sn  Sn9       1.0  0.41251644000000004  0.42893366000000005  0.4528661545008325  1.0000
  Sn  Sn10      1.0  0.9208169  0.57069894  0.4667856167063361  1.0000
  Sn  Sn11      1.0  0.2541502300000001  0.57069894  0.48143464393916724  1.0000
  Sn  Sn12      1.0  0.58748356  0.57069894  0.45213659254980054  1.0000
  Sn  Sn13      1.0  0.9166666700000002  0.24981630000000002  0.48179942491468325  1.0000
  Sn  Sn14      1.0  0.2500000000000001  0.24981630000000002  0.4525013735253165  1.0000
  Sn  Sn15      1.0  0.5833333300000001  0.24981630000000002  0.46715039768185207  1.0000
  Sn  Sn16      1.0  0.7500000000000002  0.7498163  0.4525013735253165  1.0000
  Sn  Sn17      1.0  0.08333333000000008  0.7498163  0.46715039768185207  1.0000
  Sn  Sn18      1.0  0.41666667000000013  0.7498163  0.48179942491468325  1.0000
  Pt  Pt1       1.0  0.06332716000000008  0.14316815000000002  0.45425979637549835  1.0000
  Pt  Pt2       1.0  0.39666049000000003  0.14316815000000002  0.46890882360832953  1.0000
  Pt  Pt3       1.0  0.7299938300000002  0.14316815000000002  0.4835578508411607  1.0000
  Pt  Pt4       1.0  0.67443827  0.64316815  0.47379183371137173  1.0000
  Pt  Pt5       1.0  0.007771610000000057  0.64316815  0.4444937792457094  1.0000
  Pt  Pt6       1.0  0.34110494000000013  0.64316815  0.45914280647854055  1.0000
  Pt  Pt7       1.0  0.99222839  0.35646445000000004  0.460508964728628  1.0000
  Pt  Pt8       1.0  0.3255617300000001  0.35646445000000004  0.47515799196145914  1.0000
  Pt  Pt9       1.0  0.65889506  0.35646445000000004  0.44585993749579683  1.0000
  Pt  Pt10      1.0  0.6033395100000002  0.85646445  0.48004099898820585  1.0000
  Pt  Pt11      1.0  0.9366728400000002  0.85646445  0.4507429475988391  1.0000
  Pt  Pt12      1.0  0.27000617000000016  0.85646445  0.4653919717553747  1.0000
  Sn  Sn19      1.0  0.86727292  0.06795292000000001  0.5002900285314325  1.0000
  Sn  Sn20      1.0  0.18882672000000014  0.06919697000000002  0.5177679371822262  1.0000
  Sn  Sn21      1.0  0.5169868200000001  0.06474225000000003  0.5308025644943459  1.0000
  Sn  Sn22      1.0  0.7993915800000002  0.93525775  0.5220994813133857  1.0000
  Sn  Sn23      1.0  0.13473866000000012  0.92893366  0.4919302230199882  1.0000
  Sn  Sn24      1.0  0.46194054000000023  0.9315979300000001  0.5059482620405792  1.0000
  Sn  Sn25      1.0  0.7411639900000002  0.43420198000000004  0.5128391948693136  1.0000
  Sn  Sn26      1.0  0.0733966800000001  0.41101403999999997  0.5271277910085577  1.0000
  Sn  Sn27      1.0  0.41251644000000004  0.42893366000000005  0.4968132331230305  1.0000
  Sn  Sn28      1.0  0.9332975600000002  0.57257578  0.5127610723434384  1.0000
  Sn  Sn29      1.0  0.24067733000000008  0.5636169  0.5254537755560905  1.0000
  Sn  Sn30      1.0  0.58748356  0.57069894  0.49608367117199853  1.0000
  Sn  Sn31      1.0  0.9149340100000001  0.24257463999999998  0.523873885519028  1.0000
  Sn  Sn32      1.0  0.2500000000000001  0.24981630000000002  0.49644845214751443  1.0000
  Sn  Sn33      1.0  0.5741326000000001  0.24781593999999998  0.5103936352602376  1.0000
  Sn  Sn34      1.0  0.7500000000000002  0.7498163  0.49644845214751443  1.0000
  Sn  Sn35      1.0  0.09017161000000004  0.7495056400000001  0.5101357924711549  1.0000
  Sn  Sn36      1.0  0.43440884000000013  0.74829678  0.5234784954026395  1.0000
  Pt  Pt13      1.0  0.06332716000000008  0.14316815000000002  0.4982068780739919  1.0000
  Pt  Pt14      1.0  0.3904715600000001  0.14062117000000002  0.5124548332725257  1.0000
  Pt  Pt15      1.0  0.7190843700000001  0.14981637000000003  0.5265843172525528  1.0000
  Pt  Pt16      1.0  0.68782854  0.6407733300000001  0.5157547570674135  1.0000
  Pt  Pt17      1.0  0.007771610000000057  0.64316815  0.4884408609442029  1.0000
  Pt  Pt18      1.0  0.34331499000000004  0.6404771400000001  0.5030836094577859  1.0000
  Pt  Pt19      1.0  0.9874197100000001  0.3557932  0.5036949001495228  1.0000
  Pt  Pt20      1.0  0.3193369100000001  0.35464795  0.5172364117581962  1.0000
  Pt  Pt21      1.0  0.65889506  0.35646445000000004  0.48980701611799476  1.0000
  Pt  Pt22      1.0  0.6067155900000001  0.8581366700000002  0.5214313652899706  1.0000
  Pt  Pt23      1.0  0.9366728400000002  0.85646445  0.494690026221037  1.0000
  Pt  Pt24      1.0  0.27186922000000013  0.85650307  0.5086225657589877  1.0000
