data_image0
_chemical_formula_structural       COZn3Ag3Zn3Ag3
_chemical_formula_sum              "C1 O1 Zn6 Ag6"
_cell_length_a       4.56846186
_cell_length_b       4.5684618626151305
_cell_length_c       103.57120139
_cell_angle_alpha    90.0
_cell_angle_beta     90.0
_cell_angle_gamma    60.000000018935886

_space_group_name_H-M_alt    "P 1"
_space_group_IT_number       1

loop_
  _space_group_symop_operation_xyz
  'x, y, z'

loop_
  _atom_site_type_symbol
  _atom_site_label
  _atom_site_symmetry_multiplicity
  _atom_site_fract_x
  _atom_site_fract_y
  _atom_site_fract_z
  _atom_site_occupancy
  C   C1        1.0  0.8290376999999999  0.8290338450000001  0.5497243009916736  1.0000
  O   O1        1.0  0.82770666  0.827701255  0.561010184339381  1.0000
  Zn  Zn1       1.0  0.8321726  0.8321614950000001  0.47500497624981164  1.0000
  Zn  Zn2       1.0  0.16550592999999997  0.16549482500000007  0.45699739757589763  1.0000
  Zn  Zn3       1.0  0.49883925999999995  0.4988281550000001  0.43898981566061923  1.0000
  Ag  Ag1       1.0  0.8321726  0.8321614950000001  0.44799360661825843  1.0000
  Ag  Ag2       1.0  0.16550592999999997  0.16549482500000007  0.4840087672074509  1.0000
  Ag  Ag3       1.0  0.49883925999999995  0.4988281550000001  0.4660011885335369  1.0000
  Zn  Zn4       1.0  0.8344940700000001  0.834505175  0.529097096919729  1.0000
  Zn  Zn5       1.0  0.16587921  0.16587810500000008  0.5100625697013507  1.0000
  Zn  Zn6       1.0  0.49883925999999995  0.4988281550000001  0.49301255816509015  1.0000
  Ag  Ag4       1.0  0.8321726  0.8321614950000001  0.5020163491227294  1.0000
  Ag  Ag5       1.0  0.16917756999999997  0.16919595500000006  0.5355498335450272  1.0000
  Ag  Ag6       1.0  0.5003658200000001  0.5002375050000001  0.5202233106088717  1.0000
