data_image0
_chemical_formula_structural       COCo4Se8Co4Se8
_chemical_formula_sum              "C1 O1 Co8 Se16"
_cell_length_a       4.93201464
_cell_length_b       6.917922402680027
_cell_length_c       111.50753444
_cell_angle_alpha    64.07624583925693
_cell_angle_beta     90.0
_cell_angle_gamma    90.0

_space_group_name_H-M_alt    "P 1"
_space_group_IT_number       1

loop_
  _space_group_symop_operation_xyz
  'x, y, z'

loop_
  _atom_site_type_symbol
  _atom_site_label
  _atom_site_symmetry_multiplicity
  _atom_site_fract_x
  _atom_site_fract_y
  _atom_site_fract_z
  _atom_site_occupancy
  C   C1        1.0  0.36308494  0.602418625  0.557291721980241  1.0000
  O   O1        1.0  0.26538272000000007  0.575385285  0.5674919951068673  1.0000
  Co  Co1       1.0  0.008982910000000052  0.08260588500000002  0.4830989054991114  1.0000
  Co  Co2       1.0  0.008982910000000052  0.582605885  0.4520789292943994  1.0000
  Co  Co3       1.0  0.5089829100000001  0.08260588500000002  0.4520789292943995  1.0000
  Co  Co4       1.0  0.5089829100000001  0.582605885  0.4830989054991113  1.0000
  Se  Se1       1.0  0.22708587000000008  0.26714910500000005  0.4325080048931325  1.0000
  Se  Se2       1.0  0.22708587000000008  0.7671491050000001  0.46352798109784427  1.0000
  Se  Se3       1.0  0.7908799500000001  0.398062665  0.44062987376855745  1.0000
  Se  Se4       1.0  0.7908799500000001  0.898062665  0.47164985369566653  1.0000
  Se  Se5       1.0  0.7270858699999999  0.898062665  0.44062987376855733  1.0000
  Se  Se6       1.0  0.7270858699999999  0.398062665  0.4716498536956665  1.0000
  Se  Se7       1.0  0.29087995  0.26714910500000005  0.4635279810978443  1.0000
  Se  Se8       1.0  0.29087995  0.7671491050000001  0.43250800489313246  1.0000
  Co  Co5       1.0  0.9910170899999999  0.136705505  0.5408920306723843  1.0000
  Co  Co6       1.0  0.008982910000000052  0.582605885  0.5141188817038231  1.0000
  Co  Co7       1.0  0.5089829100000001  0.08260588500000002  0.5141188817038232  1.0000
  Co  Co8       1.0  0.5092917400000001  0.632360365  0.5420552686593991  1.0000
  Se  Se9       1.0  0.22708587000000008  0.26714910500000005  0.4945479573025562  1.0000
  Se  Se10      1.0  0.20990900000000004  0.7822569250000001  0.5247742737355345  1.0000
  Se  Se11      1.0  0.7908799500000001  0.398062665  0.5026698299003783  1.0000
  Se  Se12      1.0  0.7939695800000001  0.917394115  0.5341240237493724  1.0000
  Se  Se13      1.0  0.7270858699999999  0.898062665  0.5026698299003783  1.0000
  Se  Se14      1.0  0.72853789  0.424017225  0.5343351879030359  1.0000
  Se  Se15      1.0  0.30356863  0.28111226500000003  0.525155499331947  1.0000
  Se  Se16      1.0  0.29087995  0.7671491050000001  0.49454795730255613  1.0000
