data_image0
_chemical_formula_structural       COAl3Au6Ti3
_chemical_formula_sum              "C1 O1 Al3 Au6 Ti3"
_cell_length_a       4.59335851
_cell_length_b       4.593358513929429
_cell_length_c       103.75415368
_cell_angle_alpha    90.0
_cell_angle_beta     90.0
_cell_angle_gamma    120.00000004371809

_space_group_name_H-M_alt    "P 1"
_space_group_IT_number       1

loop_
  _space_group_symop_operation_xyz
  'x, y, z'

loop_
  _atom_site_type_symbol
  _atom_site_label
  _atom_site_symmetry_multiplicity
  _atom_site_fract_x
  _atom_site_fract_y
  _atom_site_fract_z
  _atom_site_occupancy
  C   C1        1.0  0.17198347  0.18267247000000006  0.5497913971888444  1.0000
  O   O1        1.0  0.1746048  0.19114344000000003  0.561059517317614  1.0000
  Al  Al1       1.0  0.49876727000000004  0.8303879700000002  0.45701427388502136  1.0000
  Al  Al2       1.0  0.16909550999999998  0.16829473000000003  0.529874914440109  1.0000
  Al  Al3       1.0  0.8321006100000001  0.49705463000000005  0.49316185303701  1.0000
  Au  Au1       1.0  0.16543394  0.16372130000000004  0.5021987486383277  1.0000
  Au  Au2       1.0  0.8321006100000001  0.49705463000000005  0.46605116948633907  1.0000
  Au  Au3       1.0  0.5032741300000001  0.8362787  0.5364414139696965  1.0000
  Au  Au4       1.0  0.49876727000000004  0.8303879700000002  0.48412495743569234  1.0000
  Au  Au5       1.0  0.16543394  0.16372130000000004  0.4479773782837037  1.0000
  Au  Au6       1.0  0.8345660600000001  0.5004931600000001  0.521893747937868  1.0000
  Ti  Ti1       1.0  0.16543394  0.16372130000000004  0.4750880618343746  1.0000
  Ti  Ti2       1.0  0.8321006100000001  0.49705463000000005  0.43894048268238606  1.0000
  Ti  Ti3       1.0  0.49979960000000007  0.8314715400000001  0.5114739178780484  1.0000
