data_image0
_chemical_formula_structural       COFe14Mo12
_chemical_formula_sum              "C1 O1 Fe14 Mo12"
_cell_length_a       4.7337951
_cell_length_b       9.055891293798393
_cell_length_c       98.66182299
_cell_angle_alpha    98.23813972195998
_cell_angle_beta     90.0
_cell_angle_gamma    105.15110147588076

_space_group_name_H-M_alt    "P 1"
_space_group_IT_number       1

loop_
  _space_group_symop_operation_xyz
  'x, y, z'

loop_
  _atom_site_type_symbol
  _atom_site_label
  _atom_site_symmetry_multiplicity
  _atom_site_fract_x
  _atom_site_fract_y
  _atom_site_fract_z
  _atom_site_occupancy
  C   C1        1.0  0.2541400399999999  0.39188573499999996  0.5364808457790593  1.0000
  O   O1        1.0  0.20111114999999996  0.387121185  0.5481541873593582  1.0000
  Fe  Fe1       1.0  0.28033595  0.8043477950000001  0.5042037817671109  1.0000
  Fe  Fe2       1.0  0.056234480000000024  0.8448264550000001  0.5253089925866217  1.0000
  Fe  Fe3       1.0  0.32743175999999996  0.399214305  0.518996506850779  1.0000
  Fe  Fe4       1.0  0.03375189999999993  0.30599042499999995  0.4975265980673247  1.0000
  Fe  Fe5       1.0  0.40385129999999997  0.5466599950000001  0.49926162599312884  1.0000
  Fe  Fe6       1.0  0.7847322899999999  0.796405385  0.5042052953018628  1.0000
  Fe  Fe7       1.0  0.53103475  0.307789035  0.4974104771247112  1.0000
  Fe  Fe8       1.0  0.70381413  0.6479191350000001  0.4625059051632936  1.0000
  Fe  Fe9       1.0  0.49106347  0.7188360250000001  0.48310766668139693  1.0000
  Fe  Fe10      1.0  0.7504273199999999  0.237563725  0.4757811068516893  1.0000
  Fe  Fe11      1.0  0.4626662899999999  0.16562346499999997  0.4548820505045998  1.0000
  Fe  Fe12      1.0  0.83503111  0.40677130499999997  0.4586939792864753  1.0000
  Fe  Fe13      1.0  0.20739594  0.6479191350000001  0.4625059051632936  1.0000
  Fe  Fe14      1.0  0.9662480999999999  0.16562346499999997  0.4548820505045998  1.0000
  Mo  Mo1       1.0  0.9088840099999999  0.5557902450000001  0.512644152111223  1.0000
  Mo  Mo2       1.0  0.16642234999999997  0.07554724499999997  0.5083834181520911  1.0000
  Mo  Mo3       1.0  0.6229302899999999  0.9789065250000001  0.5222798517771718  1.0000
  Mo  Mo4       1.0  0.47580843  0.684361685  0.5235276377151591  1.0000
  Mo  Mo5       1.0  0.7540971099999999  0.25473066499999997  0.5179982246473386  1.0000
  Mo  Mo6       1.0  0.6421921999999998  0.021093474999999976  0.4933466305058345  1.0000
  Mo  Mo7       1.0  0.3377325399999999  0.412174155  0.4731407846953285  1.0000
  Mo  Mo8       1.0  0.5992985999999999  0.9353062750000001  0.4655421430272517  1.0000
  Mo  Mo9       1.0  0.050814770000000016  0.8383386150000001  0.48147591063062944  1.0000
  Mo  Mo10      1.0  0.9037582599999998  0.544225585  0.4857479859327006  1.0000
  Mo  Mo11      1.0  0.19067602999999997  0.11806112499999998  0.47741285999739963  1.0000
  Mo  Mo12      1.0  0.07076362999999997  0.878236325  0.4518458126406418  1.0000
