data_image0
_chemical_formula_structural       COSn16V8
_chemical_formula_sum              "C1 O1 Sn16 V8"
_cell_length_a       5.56165772
_cell_length_b       10.58749632462538
_cell_length_c       104.29644477
_cell_angle_alpha    96.6775969340086
_cell_angle_beta     90.0
_cell_angle_gamma    90.0

_space_group_name_H-M_alt    "P 1"
_space_group_IT_number       1

loop_
  _space_group_symop_operation_xyz
  'x, y, z'

loop_
  _atom_site_type_symbol
  _atom_site_label
  _atom_site_symmetry_multiplicity
  _atom_site_fract_x
  _atom_site_fract_y
  _atom_site_fract_z
  _atom_site_occupancy
  C   C1        1.0  0.60699155  0.42194817  0.5344447351664133  1.0000
  O   O1        1.0  0.59110227  0.41080585999999997  0.5456065729813064  1.0000
  Sn  Sn1       1.0  0.8761229  0.41679780000000005  0.4713259551020842  1.0000
  Sn  Sn2       1.0  0.8761229  0.58324466  0.49869283013660093  1.0000
  Sn  Sn3       1.0  0.12612289999999998  0.08324466  0.4986928301366008  1.0000
  Sn  Sn4       1.0  0.12612289999999998  0.9167978  0.4713259551020842  1.0000
  Sn  Sn5       1.0  0.8682729  0.64094564  0.5300925652695095  1.0000
  Sn  Sn6       1.0  0.87347766  0.90310965  0.5193668168466995  1.0000
  Sn  Sn7       1.0  0.12387709999999999  0.37626785  0.5194038372241507  1.0000
  Sn  Sn8       1.0  0.18978558  0.12884686  0.5320528005034395  1.0000
  Sn  Sn9       1.0  0.37308184  0.67214658  0.5139323385565059  1.0000
  Sn  Sn10      1.0  0.3761229  0.33324466  0.45758830729592265  1.0000
  Sn  Sn11      1.0  0.6261229  0.83324466  0.45758830729592265  1.0000
  Sn  Sn12      1.0  0.62312863  0.17056024  0.512891726591186  1.0000
  Sn  Sn13      1.0  0.3761229  0.37409679  0.491910810764855  1.0000
  Sn  Sn14      1.0  0.3761229  0.62594568  0.47810797447383  1.0000
  Sn  Sn15      1.0  0.6261229  0.12594568  0.47810797447383  1.0000
  Sn  Sn16      1.0  0.6261229  0.8740967899999998  0.49191081076485504  1.0000
  V   V1        1.0  0.8761229  0.69139722  0.4745208353793132  1.0000
  V   V2        1.0  0.3761229  0.05864525000000001  0.45439342701869356  1.0000
  V   V3        1.0  0.12612289999999998  0.8086452499999999  0.4954979498593718  1.0000
  V   V4        1.0  0.6276022800000001  0.44112887000000006  0.516020343089234  1.0000
  V   V5        1.0  0.37014012999999996  0.9413547499999999  0.5146210070205406  1.0000
  V   V6        1.0  0.8761229  0.30864525  0.4954979498593718  1.0000
  V   V7        1.0  0.6261229  0.55864525  0.4543934270186935  1.0000
  V   V8        1.0  0.12612289999999998  0.19139722  0.4745208353793132  1.0000
