data_image0
_chemical_formula_structural       CONb4Pt8
_chemical_formula_sum              "C1 O1 Nb4 Pt8"
_cell_length_a       4.927787664149055
_cell_length_b       4.960446363967209
_cell_length_c       102.52654916
_cell_angle_alpha    91.54326311649378
_cell_angle_beta     93.1081306825648
_cell_angle_gamma    60.217553170317586

_space_group_name_H-M_alt    "P 1"
_space_group_IT_number       1

loop_
  _space_group_symop_operation_xyz
  'x, y, z'

loop_
  _atom_site_type_symbol
  _atom_site_label
  _atom_site_symmetry_multiplicity
  _atom_site_fract_x
  _atom_site_fract_y
  _atom_site_fract_z
  _atom_site_occupancy
  C   C1        1.0  0.17735073  0.4862984899999999  0.535950427374214  1.0000
  O   O1        1.0  0.11223768999999992  0.56129188  0.5470300287943808  1.0000
  Nb  Nb1       1.0  0.48487713999999993  0.16817911999999996  0.5210855986540868  1.0000
  Nb  Nb2       1.0  0.88776231  0.15519393999999997  0.4981480070418169  1.0000
  Nb  Nb3       1.0  0.49888589000000005  0.16048683999999996  0.4756306860406399  1.0000
  Nb  Nb4       1.0  0.14174303  0.16048683999999996  0.45296997120561905  1.0000
  Pt  Pt1       1.0  0.8130908099999999  0.49423335999999995  0.5214792805415035  1.0000
  Pt  Pt2       1.0  0.20958464999999996  0.47626728  0.49858274425354987  1.0000
  Pt  Pt3       1.0  0.5302239000000002  0.8214997799999999  0.4982165489073493  1.0000
  Pt  Pt4       1.0  0.1455489199999999  0.84480606  0.5212716435798176  1.0000
  Pt  Pt5       1.0  0.8344525700000001  0.48935349  0.4756306860406399  1.0000
  Pt  Pt6       1.0  0.47730970999999994  0.48935349  0.45296997120561905  1.0000
  Pt  Pt7       1.0  0.8061763600000001  0.8316201899999999  0.45296997120561905  1.0000
  Pt  Pt8       1.0  0.16331921999999996  0.8316201899999999  0.4756306860406399  1.0000
