data_image0
_chemical_formula_structural       COCa6Pb2
_chemical_formula_sum              "C1 O1 Ca6 Pb2"
_cell_length_a       5.170365
_cell_length_b       7.31200031
_cell_length_c       99.24800121999999
_cell_angle_alpha    90.0
_cell_angle_beta     90.0
_cell_angle_gamma    90.0

_space_group_name_H-M_alt    "P 1"
_space_group_IT_number       1

loop_
  _space_group_symop_operation_xyz
  'x, y, z'

loop_
  _atom_site_type_symbol
  _atom_site_label
  _atom_site_symmetry_multiplicity
  _atom_site_fract_x
  _atom_site_fract_y
  _atom_site_fract_z
  _atom_site_occupancy
  C   C1        1.0  0.24999751000000003  0.8185473200000001  0.5347760875618774  1.0000
  O   O1        1.0  0.24999889  0.9095585200000001  0.544393978852411  1.0000
  Ca  Ca1       1.0  0.7499999500000001  0.34789788  0.4556060211475888  1.0000
  Ca  Ca2       1.0  0.7500024900000001  0.84784969  0.493991287496931  1.0000
  Ca  Ca3       1.0  0.25000313  0.59439453  0.5147981746800797  1.0000
  Ca  Ca4       1.0  0.24999995000000003  0.09789787999999998  0.47402452886340596  1.0000
  Ca  Ca5       1.0  0.7499999500000001  0.84789788  0.4556060211475888  1.0000
  Ca  Ca6       1.0  0.7500010300000001  0.34100482  0.4938646477317995  1.0000
  Pb  Pb1       1.0  0.24999995000000003  0.59789788  0.47402452886340596  1.0000
  Pb  Pb2       1.0  0.25000367  0.09044147999999998  0.5070777580544297  1.0000
