data_image0
_chemical_formula_structural       COTi8Au8Ti8Au8
_chemical_formula_sum              "C1 O1 Ti16 Au16"
_cell_length_a       5.528026505706596
_cell_length_b       10.337446139911942
_cell_length_c       108.69618552
_cell_angle_alpha    99.1779684447518
_cell_angle_beta     66.20522166863324
_cell_angle_gamma    80.82203157216341

_space_group_name_H-M_alt    "P 1"
_space_group_IT_number       1

loop_
  _space_group_symop_operation_xyz
  'x, y, z'

loop_
  _atom_site_type_symbol
  _atom_site_label
  _atom_site_symmetry_multiplicity
  _atom_site_fract_x
  _atom_site_fract_y
  _atom_site_fract_z
  _atom_site_occupancy
  C   C1        1.0  0.8741979899999996  0.75214732  0.5467545055420981  1.0000
  O   O1        1.0  0.76317944  0.80479652  0.5585886949446683  1.0000
  Ti  Ti1       1.0  0.04708834999999997  0.65727156  0.4747649029083628  1.0000
  Ti  Ti2       1.0  0.29708835  0.15727155999999998  0.4620505028128711  1.0000
  Ti  Ti3       1.0  0.7970883499999998  0.15727155999999998  0.487479299443823  1.0000
  Ti  Ti4       1.0  0.5470883499999999  0.65727156  0.44933610627741083  1.0000
  Ti  Ti5       1.0  0.70291165  0.84562496  0.46684010524631514  1.0000
  Ti  Ti6       1.0  0.9529116499999998  0.34562496  0.4541257051508234  1.0000
  Ti  Ti7       1.0  0.45291165000000005  0.34562496  0.47955450178177533  1.0000
  Ti  Ti8       1.0  0.20291165  0.84562496  0.44141130505533155  1.0000
  Au  Au1       1.0  0.6705904199999999  0.9102674199999999  0.44305508556584766  1.0000
  Au  Au2       1.0  0.9205904199999997  0.41026742  0.4811982822922914  1.0000
  Au  Au3       1.0  0.42059042  0.41026742  0.45576948566133946  1.0000
  Au  Au4       1.0  0.17059042  0.9102674199999999  0.4684838821967996  1.0000
  Au  Au5       1.0  0.5794095799999998  0.5926291  0.47312112239784687  1.0000
  Au  Au6       1.0  0.82940958  0.09262909999999998  0.46040672230235513  1.0000
  Au  Au7       1.0  0.32940958  0.09262909999999998  0.48583551893330706  1.0000
  Au  Au8       1.0  0.07940958000000001  0.5926291  0.4476923257668949  1.0000
  Ti  Ti9       1.0  0.07931055000000004  0.65405609  0.5251282285030507  1.0000
  Ti  Ti10      1.0  0.31055905000000006  0.15757812999999998  0.5126216310120554  1.0000
  Ti  Ti11      1.0  0.83192761  0.16368707  0.535240523181748  1.0000
  Ti  Ti12      1.0  0.5470883499999999  0.65727156  0.5001936995393147  1.0000
  Ti  Ti13      1.0  0.6828007799999999  0.8503882099999999  0.5178923681561448  1.0000
  Ti  Ti14      1.0  0.9529116499999998  0.34562496  0.5049832984127274  1.0000
  Ti  Ti15      1.0  0.45293470999999996  0.35189476  0.5298024182720695  1.0000
  Ti  Ti16      1.0  0.20291165  0.84562496  0.49226890187726713  1.0000
  Au  Au9       1.0  0.6705904199999999  0.9102674199999999  0.4939126823877832  1.0000
  Au  Au10      1.0  0.9221007399999998  0.40844047  0.531374570946803  1.0000
  Au  Au11      1.0  0.42059042  0.41026742  0.5066270789232434  1.0000
  Au  Au12      1.0  0.1425751900000001  0.9069225299999999  0.5206195054427466  1.0000
  Au  Au13      1.0  0.59567206  0.59898715  0.5236700538000081  1.0000
  Au  Au14      1.0  0.84643021  0.08973257999999998  0.5103349799952955  1.0000
  Au  Au15      1.0  0.33484543  0.10666675999999999  0.5360872090570967  1.0000
  Au  Au16      1.0  0.07940958000000001  0.5926291  0.4985499190287988  1.0000
