data_image0
_chemical_formula_structural       COCa4Ge2
_chemical_formula_sum              "C1 O1 Ca4 Ge2"
_cell_length_a       5.16300898
_cell_length_b       5.16300898
_cell_length_c       99.20638928
_cell_angle_alpha    90.0
_cell_angle_beta     90.0
_cell_angle_gamma    90.0

_space_group_name_H-M_alt    "P 1"
_space_group_IT_number       1

loop_
  _space_group_symop_operation_xyz
  'x, y, z'

loop_
  _atom_site_type_symbol
  _atom_site_label
  _atom_site_symmetry_multiplicity
  _atom_site_fract_x
  _atom_site_fract_y
  _atom_site_fract_z
  _atom_site_occupancy
  C   C1        1.0  0.75001407  0.74981216  0.5257502861779652  1.0000
  O   O1        1.0  0.7500001000000002  0.74980925  0.5375392246953462  1.0000
  Ca  Ca1       1.0  0.24998593000000002  0.24996260999999997  0.46246077530465385  1.0000
  Ca  Ca2       1.0  0.74998593  0.74996261  0.46246077530465385  1.0000
  Ca  Ca3       1.0  0.7498240500000001  0.7500735  0.5003383130315354  1.0000
  Ca  Ca4       1.0  0.2504987  0.24993981999999998  0.4991874139973003  1.0000
  Ge  Ge1       1.0  0.74952301  0.24992649999999997  0.5139039013329678  1.0000
  Ge  Ge2       1.0  0.24998593000000002  0.74996261  0.48086079311850644  1.0000
