data_image0
_chemical_formula_structural       COCa4Cu4Ga2
_chemical_formula_sum              "C1 O1 Ca4 Cu4 Ga2"
_cell_length_a       5.592370821429427
_cell_length_b       5.783783721728873
_cell_length_c       101.29038948
_cell_angle_alpha    86.62243949623839
_cell_angle_beta     84.87307042351685
_cell_angle_gamma    61.08885789815573

_space_group_name_H-M_alt    "P 1"
_space_group_IT_number       1

loop_
  _space_group_symop_operation_xyz
  'x, y, z'

loop_
  _atom_site_type_symbol
  _atom_site_label
  _atom_site_symmetry_multiplicity
  _atom_site_fract_x
  _atom_site_fract_y
  _atom_site_fract_z
  _atom_site_occupancy
  C   C1        1.0  0.15938833999999993  0.05248043000000003  0.5317629826796796  1.0000
  O   O1        1.0  0.09728045999999992  0.14829956000000002  0.5425238109678346  1.0000
  Ca  Ca1       1.0  0.1264812399999999  0.31041102000000004  0.4692137716934565  1.0000
  Ca  Ca2       1.0  0.7834227899999999  0.94751957  0.4843533161965897  1.0000
  Ca  Ca3       1.0  0.2472871899999998  0.9445347300000001  0.5077496858931935  1.0000
  Ca  Ca4       1.0  0.90271954  0.5814354800000001  0.5234520134890113  1.0000
  Cu  Cu1       1.0  0.13231679000000002  0.81646529  0.4574761890321653  1.0000
  Cu  Cu2       1.0  0.6525872499999998  0.81646529  0.4574761890321654  1.0000
  Cu  Cu3       1.0  0.24611966999999993  0.44775574000000007  0.49623131428828093  1.0000
  Cu  Cu4       1.0  0.78471229  0.44657518000000007  0.49606447713094337  1.0000
  Ga  Ga1       1.0  0.4549520199999999  0.6289652900000001  0.47678354240043475  1.0000
  Ga  Ga2       1.0  0.57580294  0.26894134000000003  0.5145281702080798  1.0000
