data_image0
_chemical_formula_structural       COMn3Al3Mn3Al3Mn3Al3Mn3Al3Mn3Al3Mn3Al3Mn3Al3Mn3Al3
_chemical_formula_sum              "C1 O1 Mn24 Al24"
_cell_length_a       8.29729044
_cell_length_b       8.297290436866925
_cell_length_c       100.48619176
_cell_angle_alpha    90.0
_cell_angle_beta     90.0
_cell_angle_gamma    59.99999998750903

_space_group_name_H-M_alt    "P 1"
_space_group_IT_number       1

loop_
  _space_group_symop_operation_xyz
  'x, y, z'

loop_
  _atom_site_type_symbol
  _atom_site_label
  _atom_site_symmetry_multiplicity
  _atom_site_fract_x
  _atom_site_fract_y
  _atom_site_fract_z
  _atom_site_occupancy
  C   C1        1.0  0.5794438200000002  0.08368013499999999  0.5502066430444903  1.0000
  O   O1        1.0  0.5795398000000002  0.083767635  0.561808921702738  1.0000
  Mn  Mn1       1.0  0.4126969800000001  0.41692644500000003  0.4719007308057059  1.0000
  Mn  Mn2       1.0  0.0793636500000001  0.083593115  0.4550459060684183  1.0000
  Mn  Mn3       1.0  0.2460303200000001  0.250259785  0.43819107829726206  1.0000
  Al  Al1       1.0  0.4126969800000001  0.41692644500000003  0.4466184921828402  1.0000
  Al  Al2       1.0  0.0793636500000001  0.083593115  0.4803281446912841  1.0000
  Al  Al3       1.0  0.2460303200000001  0.250259785  0.46347331995399654  1.0000
  Mn  Mn4       1.0  0.40861128000000013  0.425717225  0.521821248170874  1.0000
  Mn  Mn5       1.0  0.07970477000000008  0.083183695  0.506026102214323  1.0000
  Mn  Mn6       1.0  0.2460303200000001  0.250259785  0.4887555585768622  1.0000
  Al  Al4       1.0  0.4126969800000001  0.41692644500000003  0.49718297246244036  1.0000
  Al  Al5       1.0  0.07875998000000008  0.084958675  0.5311039005571901  1.0000
  Al  Al6       1.0  0.24604428000000017  0.25048461499999997  0.5142273047777088  1.0000
  Mn  Mn7       1.0  0.4126969800000001  0.916926445  0.4719007308057059  1.0000
  Mn  Mn8       1.0  0.07936365  0.5835931150000001  0.4550459060684183  1.0000
  Mn  Mn9       1.0  0.24603032000000016  0.750259785  0.43819107829726206  1.0000
  Al  Al7       1.0  0.4126969800000001  0.916926445  0.4466184921828402  1.0000
  Al  Al8       1.0  0.07936365  0.5835931150000001  0.4803281446912841  1.0000
  Al  Al9       1.0  0.24603032000000016  0.750259785  0.46347331995399654  1.0000
  Mn  Mn10      1.0  0.4080603300000002  0.912227685  0.5217586018149294  1.0000
  Mn  Mn11      1.0  0.07939893000000012  0.583623595  0.5059651032491128  1.0000
  Mn  Mn12      1.0  0.24603032000000016  0.750259785  0.4887555585768622  1.0000
  Al  Al10      1.0  0.4126969800000001  0.916926445  0.49718297246244036  1.0000
  Al  Al11      1.0  0.07853234000000009  0.582715985  0.5310528799863189  1.0000
  Al  Al12      1.0  0.24572288000000014  0.749993145  0.5134404102384396  1.0000
  Mn  Mn13      1.0  0.9126969800000001  0.41692644500000003  0.4719007308057059  1.0000
  Mn  Mn14      1.0  0.5793636500000002  0.083593115  0.4550459060684183  1.0000
  Mn  Mn15      1.0  0.7460303200000001  0.250259785  0.43819107829726206  1.0000
  Al  Al13      1.0  0.9126969800000001  0.41692644500000003  0.4466184921828402  1.0000
  Al  Al14      1.0  0.5793636500000002  0.083593115  0.4803281446912841  1.0000
  Al  Al15      1.0  0.7460303200000001  0.250259785  0.46347331995399654  1.0000
  Mn  Mn16      1.0  0.9125273700000001  0.416791445  0.5222043317448378  1.0000
  Mn  Mn17      1.0  0.5793396700000002  0.083544145  0.5064262907403336  1.0000
  Mn  Mn18      1.0  0.7460303200000001  0.250259785  0.4887555585768622  1.0000
  Al  Al16      1.0  0.9126969800000001  0.41692644500000003  0.49718297246244036  1.0000
  Al  Al17      1.0  0.5787733700000001  0.083073555  0.5305992893024634  1.0000
  Al  Al18      1.0  0.7460163400000003  0.250204675  0.5142103151126747  1.0000
  Mn  Mn19      1.0  0.9126969800000001  0.916926445  0.4719007308057059  1.0000
  Mn  Mn20      1.0  0.5793636500000002  0.5835931150000001  0.4550459060684183  1.0000
  Mn  Mn21      1.0  0.7460303199999999  0.750259785  0.43819107829726206  1.0000
  Al  Al19      1.0  0.9126969800000001  0.916926445  0.4466184921828402  1.0000
  Al  Al20      1.0  0.5793636500000002  0.5835931150000001  0.4803281446912841  1.0000
  Al  Al21      1.0  0.7460303199999999  0.750259785  0.46347331995399654  1.0000
  Mn  Mn22      1.0  0.92146766  0.9128391250000001  0.5218225770053893  1.0000
  Mn  Mn23      1.0  0.5789486600000002  0.583946155  0.5060262448061545  1.0000
  Mn  Mn24      1.0  0.7460303199999999  0.750259785  0.4887555585768622  1.0000
  Al  Al22      1.0  0.9126969800000001  0.916926445  0.49718297246244036  1.0000
  Al  Al23      1.0  0.5807235400000001  0.582946185  0.5311046529566417  1.0000
  Al  Al24      1.0  0.7462811200000002  0.750281615  0.5142315643294424  1.0000
