data_image0
_chemical_formula_structural       COPt8Pb16Pt8Pb16
_chemical_formula_sum              "C1 O1 Pt16 Pb32"
_cell_length_a       15.484417011317742
_cell_length_b       7.16271837
_cell_length_c       105.26705484
_cell_angle_alpha    90.0
_cell_angle_beta     112.30873904971743
_cell_angle_gamma    90.0

_space_group_name_H-M_alt    "P 1"
_space_group_IT_number       1

loop_
  _space_group_symop_operation_xyz
  'x, y, z'

loop_
  _atom_site_type_symbol
  _atom_site_label
  _atom_site_symmetry_multiplicity
  _atom_site_fract_x
  _atom_site_fract_y
  _atom_site_fract_z
  _atom_site_occupancy
  C   C1        1.0  0.13456363500000004  0.95738537  0.551920976220187  1.0000
  O   O1        1.0  0.16894437500000006  0.9310319300000001  0.5638084168746326  1.0000
  Pt  Pt1       1.0  0.5794044549999999  0.00861400999999998  0.5059883774336846  1.0000
  Pt  Pt2       1.0  0.08760234500000004  0.99138599  0.5329288728559772  1.0000
  Pt  Pt3       1.0  0.32940445500000004  0.50861401  0.4920290205821689  1.0000
  Pt  Pt4       1.0  0.8164828749999999  0.5138677899999999  0.5187307875123846  1.0000
  Pt  Pt5       1.0  0.330355995  0.51399609  0.5202885715803637  1.0000
  Pt  Pt6       1.0  0.8294044549999999  0.50861401  0.4920290205821689  1.0000
  Pt  Pt7       1.0  0.5483464350000001  0.03691867999999998  0.5313844663209963  1.0000
  Pt  Pt8       1.0  0.07940445500000003  0.00861400999999998  0.5059883774336846  1.0000
  Pb  Pb1       1.0  0.24894445500000006  0.16953402  0.501495697305764  1.0000
  Pb  Pb2       1.0  0.730027175  0.17597246999999996  0.5303645307748192  1.0000
  Pb  Pb3       1.0  0.5004444650000001  0.38154450999999995  0.5161920580632757  1.0000
  Pb  Pb4       1.0  0.963332395  0.33679663  0.5411594159468813  1.0000
  Pb  Pb5       1.0  0.41997391500000003  0.21070573  0.5407721609908885  1.0000
  Pb  Pb6       1.0  0.9098644550000001  0.16953402  0.5104810575616052  1.0000
  Pb  Pb7       1.0  0.17108936500000002  0.33161088  0.5257296125950633  1.0000
  Pb  Pb8       1.0  0.659864455  0.34769399999999995  0.49652170071008955  1.0000
  Pb  Pb9       1.0  0.5005101250000001  0.7020525700000001  0.5428959054963693  1.0000
  Pb  Pb10      1.0  0.0010555450000000368  0.65032673  0.515914188645073  1.0000
  Pb  Pb11      1.0  0.25721662500000003  0.86206949  0.5294722630598386  1.0000
  Pb  Pb12      1.0  0.748944455  0.847694  0.501495697305764  1.0000
  Pb  Pb13      1.0  0.15986445500000004  0.6695340200000001  0.49652170071008955  1.0000
  Pb  Pb14      1.0  0.668309785  0.7084332200000001  0.5271203198860258  1.0000
  Pb  Pb15      1.0  0.409864455  0.847694  0.5104810575616052  1.0000
  Pb  Pb16      1.0  0.9039891449999999  0.8339794  0.5376644223802538  1.0000
  Pt  Pt9       1.0  0.5794044549999999  0.00861400999999998  0.45015094332712946  1.0000
  Pt  Pt10      1.0  0.07940445500000003  0.00861400999999998  0.47806966038040705  1.0000
  Pt  Pt11      1.0  0.32940445500000004  0.50861401  0.43619158312536754  1.0000
  Pt  Pt12      1.0  0.8294044549999999  0.50861401  0.46411030017864513  1.0000
  Pt  Pt13      1.0  0.32940445500000004  0.50861401  0.46411030017864513  1.0000
  Pt  Pt14      1.0  0.8294044549999999  0.50861401  0.43619158312536754  1.0000
  Pt  Pt15      1.0  0.5794044549999999  0.00861400999999998  0.47806966038040705  1.0000
  Pt  Pt16      1.0  0.07940445500000003  0.00861400999999998  0.4501509433271294  1.0000
  Pb  Pb17      1.0  0.24894445500000006  0.16953402  0.44565826319920876  1.0000
  Pb  Pb18      1.0  0.748944455  0.16953402  0.4735769802524864  1.0000
  Pb  Pb19      1.0  0.498944455  0.34769399999999995  0.4596176200507245  1.0000
  Pb  Pb20      1.0  0.998944455  0.34769399999999995  0.48753634045424826  1.0000
  Pb  Pb21      1.0  0.409864455  0.16953402  0.48256234050832764  1.0000
  Pb  Pb22      1.0  0.9098644550000001  0.16953402  0.45464362345505005  1.0000
  Pb  Pb23      1.0  0.15986445500000004  0.34769399999999995  0.4686029803065657  1.0000
  Pb  Pb24      1.0  0.659864455  0.34769399999999995  0.4406842632532882  1.0000
  Pb  Pb25      1.0  0.498944455  0.6695340200000001  0.4875363404542484  1.0000
  Pb  Pb26      1.0  0.998944455  0.6695340200000001  0.4596176200507245  1.0000
  Pb  Pb27      1.0  0.24894445500000006  0.847694  0.4735769802524864  1.0000
  Pb  Pb28      1.0  0.748944455  0.847694  0.4456582631992088  1.0000
  Pb  Pb29      1.0  0.15986445500000004  0.6695340200000001  0.4406842632532882  1.0000
  Pb  Pb30      1.0  0.659864455  0.6695340200000001  0.46860298030656583  1.0000
  Pb  Pb31      1.0  0.409864455  0.847694  0.4546436234550501  1.0000
  Pb  Pb32      1.0  0.9098644550000001  0.847694  0.48256234050832764  1.0000
