data_image0
_chemical_formula_structural       COGa20Pd4Ga20Pd4
_chemical_formula_sum              "C1 O1 Ga40 Pd8"
_cell_length_a       6.57266288
_cell_length_b       10.1942096
_cell_length_c       109.43597728
_cell_angle_alpha    90.0
_cell_angle_beta     90.0
_cell_angle_gamma    90.0

_space_group_name_H-M_alt    "P 1"
_space_group_IT_number       1

loop_
  _space_group_symop_operation_xyz
  'x, y, z'

loop_
  _atom_site_type_symbol
  _atom_site_label
  _atom_site_symmetry_multiplicity
  _atom_site_fract_x
  _atom_site_fract_y
  _atom_site_fract_z
  _atom_site_occupancy
  C   C1        1.0  9.750000000068933e-07  0.253020665  0.5595816476184453  1.0000
  O   O1        1.0  2.6500000000689337e-07  0.2530233549999999  0.5702165313958989  1.0000
  Ga  Ga1       1.0  5.950000000068934e-07  0.0030181349999999696  0.4810845592639929  1.0000
  Ga  Ga2       1.0  5.950000000068934e-07  0.5030181349999999  0.4810845592639929  1.0000
  Ga  Ga3       1.0  0.6458285349999999  0.14245946499999995  0.42978346860410116  1.0000
  Ga  Ga4       1.0  0.14582853499999998  0.14245946499999995  0.4422964985767455  1.0000
  Ga  Ga5       1.0  0.8541726550000001  0.14245946499999995  0.4598131845186255  1.0000
  Ga  Ga6       1.0  0.354172655  0.36357680499999995  0.42978346860410116  1.0000
  Ga  Ga7       1.0  0.6458285349999999  0.36357680499999995  0.4723262144912699  1.0000
  Ga  Ga8       1.0  0.14582853499999998  0.36357680499999995  0.4598131845186255  1.0000
  Ga  Ga9       1.0  0.8541726550000001  0.36357680499999995  0.4422964985767455  1.0000
  Ga  Ga10      1.0  0.354172655  0.14245946499999995  0.4723262144912699  1.0000
  Ga  Ga11      1.0  0.500000595  0.5030181349999999  0.4510548433494685  1.0000
  Ga  Ga12      1.0  0.500000595  0.0030181349999999696  0.4510548433494685  1.0000
  Ga  Ga13      1.0  0.14582853499999998  0.642459465  0.4598131845186255  1.0000
  Ga  Ga14      1.0  0.6458285349999999  0.642459465  0.4723262144912699  1.0000
  Ga  Ga15      1.0  0.354172655  0.642459465  0.42978346860410116  1.0000
  Ga  Ga16      1.0  0.8541726550000001  0.863576805  0.4598131845186255  1.0000
  Ga  Ga17      1.0  0.14582853499999998  0.863576805  0.4422964985767455  1.0000
  Ga  Ga18      1.0  0.6458285349999999  0.863576805  0.42978346860410116  1.0000
  Ga  Ga19      1.0  0.354172655  0.863576805  0.4723262144912699  1.0000
  Ga  Ga20      1.0  0.8541726550000001  0.642459465  0.4422964985767455  1.0000
  Pd  Pd1       1.0  5.950000000068934e-07  0.253018135  0.4810845592639929  1.0000
  Pd  Pd2       1.0  0.500000595  0.253018135  0.4510548433494685  1.0000
  Pd  Pd3       1.0  0.500000595  0.7530181349999999  0.4510548433494685  1.0000
  Pd  Pd4       1.0  5.950000000068934e-07  0.7530181349999999  0.4810845592639929  1.0000
  Ga  Ga21      1.0  0.967994715  0.9969818649999999  0.5423117014478409  1.0000
  Ga  Ga22      1.0  0.032010155000000005  0.5090536749999999  0.5423117338799354  1.0000
  Ga  Ga23      1.0  0.6458285349999999  0.14245946499999995  0.48984290403671593  1.0000
  Ga  Ga24      1.0  0.14582853499999998  0.14245946499999995  0.5023559340093603  1.0000
  Ga  Ga25      1.0  0.852695425  0.14398894499999995  0.5204144989894612  1.0000
  Ga  Ga26      1.0  0.354172655  0.36357680499999995  0.48984290403671593  1.0000
  Ga  Ga27      1.0  0.6446876149999999  0.35911538499999995  0.5332930710990457  1.0000
  Ga  Ga28      1.0  0.14730671500000003  0.3620452049999999  0.5204145206108576  1.0000
  Ga  Ga29      1.0  0.8541726550000001  0.36357680499999995  0.5023559340093603  1.0000
  Ga  Ga30      1.0  0.355316805  0.14691941499999997  0.533293092720442  1.0000
  Ga  Ga31      1.0  0.500000595  0.5030181349999999  0.5111142751785173  1.0000
  Ga  Ga32      1.0  0.500000595  0.0030181349999999696  0.5111142751785173  1.0000
  Ga  Ga33      1.0  0.14894716500000002  0.6369659849999999  0.51930215742708  1.0000
  Ga  Ga34      1.0  0.6467555850000001  0.649207315  0.5332830964282085  1.0000
  Ga  Ga35      1.0  0.354172655  0.642459465  0.48984290403671593  1.0000
  Ga  Ga36      1.0  0.851052655  0.8690674549999999  0.5193021934627404  1.0000
  Ga  Ga37      1.0  0.14582853499999998  0.863576805  0.5023559340093603  1.0000
  Ga  Ga38      1.0  0.6458285349999999  0.863576805  0.48984290403671593  1.0000
  Ga  Ga39      1.0  0.353244735  0.856825685  0.5332831252567369  1.0000
  Ga  Ga40      1.0  0.8541726550000001  0.642459465  0.5023559340093603  1.0000
  Pd  Pd5       1.0  1.8850000000068933e-06  0.253017495  0.5415770208150389  1.0000
  Pd  Pd6       1.0  0.500000595  0.253018135  0.5111142751785173  1.0000
  Pd  Pd7       1.0  0.500000595  0.7530181349999999  0.5111142751785173  1.0000
  Pd  Pd8       1.0  0.9999997350000001  0.7530172749999999  0.5384285923608911  1.0000
