data_image0
_chemical_formula_structural       COSb16Sn16Ti16
_chemical_formula_sum              "C1 O1 Sb16 Sn16 Ti16"
_cell_length_a       19.6865282
_cell_length_b       5.671687529375322
_cell_length_c       103.90971039
_cell_angle_alpha    86.7091380250479
_cell_angle_beta     90.0
_cell_angle_gamma    90.0

_space_group_name_H-M_alt    "P 1"
_space_group_IT_number       1

loop_
  _space_group_symop_operation_xyz
  'x, y, z'

loop_
  _atom_site_type_symbol
  _atom_site_label
  _atom_site_symmetry_multiplicity
  _atom_site_fract_x
  _atom_site_fract_y
  _atom_site_fract_z
  _atom_site_occupancy
  C   C1        1.0  0.49057836500000007  0.515464845  0.5454024679408102  1.0000
  O   O1        1.0  0.4901965050000001  0.6991512950000001  0.5517648134418504  1.0000
  Sb  Sb1       1.0  0.929039115  0.886587385  0.4870586595774831  1.0000
  Sb  Sb2       1.0  0.7736796950000001  0.886587385  0.4870586595774831  1.0000
  Sb  Sb3       1.0  0.523679695  0.172301665  0.46374878686990856  1.0000
  Sb  Sb4       1.0  0.679039115  0.172301665  0.46374878686990856  1.0000
  Sb  Sb5       1.0  0.42903911500000014  0.672301665  0.46374878686990856  1.0000
  Sb  Sb6       1.0  0.27367969500000006  0.672301665  0.46374878686990856  1.0000
  Sb  Sb7       1.0  0.023679695000000063  0.38658738499999995  0.4870586595774832  1.0000
  Sb  Sb8       1.0  0.17903911500000005  0.38658738499999995  0.4870586595774832  1.0000
  Sb  Sb9       1.0  0.9325726849999999  0.32008929500000005  0.5333416402619289  1.0000
  Sb  Sb10      1.0  0.7681205550000001  0.29796861500000005  0.5351038340400437  1.0000
  Sb  Sb11      1.0  0.5295763650000002  0.6299199449999999  0.5094908195233877  1.0000
  Sb  Sb12      1.0  0.6833253150000002  0.5996008649999999  0.5101559881994846  1.0000
  Sb  Sb13      1.0  0.4238074150000001  0.08873389500000002  0.5099447200963692  1.0000
  Sb  Sb14      1.0  0.27070702500000005  0.09506035500000004  0.5103224598545323  1.0000
  Sb  Sb15      1.0  0.021628045000000064  0.819854625  0.5332546580715887  1.0000
  Sb  Sb16      1.0  0.18877697500000007  0.7973859050000001  0.5351144269788087  1.0000
  Sn  Sn1       1.0  0.851359405  0.40950987499999997  0.4715450592657243  1.0000
  Sn  Sn2       1.0  0.851359405  0.9350934649999999  0.4559525144740928  1.0000
  Sn  Sn3       1.0  0.6013594050000001  0.649379175  0.4792623871816674  1.0000
  Sn  Sn4       1.0  0.6013594050000001  0.6952241650000001  0.4482351865581497  1.0000
  Sn  Sn5       1.0  0.35135940500000007  0.195224165  0.4482351865581497  1.0000
  Sn  Sn6       1.0  0.35135940500000007  0.14937917500000003  0.4792623871816674  1.0000
  Sn  Sn7       1.0  0.10135940500000004  0.43509346499999996  0.4559525144740928  1.0000
  Sn  Sn8       1.0  0.10135940500000004  0.909509875  0.47154505926572426  1.0000
  Sn  Sn9       1.0  0.856628085  0.856428705  0.5191850195550066  1.0000
  Sn  Sn10      1.0  0.851359405  0.36366488500000005  0.502572259889242  1.0000
  Sn  Sn11      1.0  0.605741865  0.064906535  0.5270499861470653  1.0000
  Sn  Sn12      1.0  0.6013594050000001  0.12379559500000001  0.4948549319732989  1.0000
  Sn  Sn13      1.0  0.35135940500000007  0.623795595  0.4948549319732989  1.0000
  Sn  Sn14      1.0  0.3488420750000001  0.533304195  0.5262893798572331  1.0000
  Sn  Sn15      1.0  0.10135940500000004  0.8636648849999999  0.502572259889242  1.0000
  Sn  Sn16      1.0  0.09631432500000006  0.35507507499999996  0.5190337519978352  1.0000
  Ti  Ti1       1.0  0.4777883850000001  0.886587385  0.4870586595774831  1.0000
  Ti  Ti2       1.0  0.7249304250000002  0.672301665  0.46374878686990856  1.0000
  Ti  Ti3       1.0  0.9749304249999999  0.172301665  0.46374878686990856  1.0000
  Ti  Ti4       1.0  0.727788385  0.38658738499999995  0.4870586595774832  1.0000
  Ti  Ti5       1.0  0.977788385  0.672301665  0.46374878686990856  1.0000
  Ti  Ti6       1.0  0.22493042500000004  0.886587385  0.4870586595774831  1.0000
  Ti  Ti7       1.0  0.4749304250000001  0.38658738499999995  0.4870586595774832  1.0000
  Ti  Ti8       1.0  0.22778838500000007  0.172301665  0.46374878686990856  1.0000
  Ti  Ti9       1.0  0.48020157500000005  0.34301640499999997  0.5296081155911895  1.0000
  Ti  Ti10      1.0  0.725883535  0.099992145  0.510398574981999  1.0000
  Ti  Ti11      1.0  0.974694615  0.606443385  0.5100110613940141  1.0000
  Ti  Ti12      1.0  0.7326060450000002  0.824612765  0.5324441416137116  1.0000
  Ti  Ti13      1.0  0.9783719549999998  0.10612843500000001  0.5099962717456827  1.0000
  Ti  Ti14      1.0  0.22047679500000003  0.32199060500000004  0.5324606771715436  1.0000
  Ti  Ti15      1.0  0.48208534500000005  0.821596115  0.5328734623916286  1.0000
  Ti  Ti16      1.0  0.22688656500000007  0.596776105  0.5102992115194237  1.0000
