data_image0
_chemical_formula_structural       COV24Ga20
_chemical_formula_sum              "C1 O1 V24 Ga20"
_cell_length_a       14.77242885
_cell_length_b       5.14995569
_cell_length_c       104.11546308
_cell_angle_alpha    90.0
_cell_angle_beta     90.0
_cell_angle_gamma    90.0

_space_group_name_H-M_alt    "P 1"
_space_group_IT_number       1

loop_
  _space_group_symop_operation_xyz
  'x, y, z'

loop_
  _atom_site_type_symbol
  _atom_site_label
  _atom_site_symmetry_multiplicity
  _atom_site_fract_x
  _atom_site_fract_y
  _atom_site_fract_z
  _atom_site_occupancy
  C   C1        1.0  0.12868781000000004  0.40895426  0.5343725319104828  1.0000
  O   O1        1.0  0.11089262000000004  0.40895218000000005  0.5453808447809076  1.0000
  V   V1        1.0  0.5117374200000001  0.9089950400000001  0.47630980549835467  1.0000
  V   V2        1.0  0.023222730000000025  0.9090828  0.5149376896263066  1.0000
  V   V3        1.0  0.93333305  0.40899504000000003  0.45461915521909235  1.0000
  V   V4        1.0  0.4335389300000001  0.40892204000000004  0.49493283018067374  1.0000
  V   V5        1.0  0.8373107800000001  0.09075807000000002  0.5161837971239582  1.0000
  V   V6        1.0  0.34014178000000006  0.15899504  0.47509849977967555  1.0000
  V   V7        1.0  0.24695052000000003  0.9089950400000001  0.45461915521909235  1.0000
  V   V8        1.0  0.74676744  0.90924193  0.49487415112429123  1.0000
  V   V9        1.0  0.66854615  0.40899504000000003  0.47630980549835467  1.0000
  V   V10       1.0  0.16076606000000002  0.40899873000000003  0.5157807505162254  1.0000
  V   V11       1.0  0.6726579600000001  0.4090301800000001  0.5131378599720784  1.0000
  V   V12       1.0  0.16854615000000003  0.40899504000000003  0.4738871973376916  1.0000
  V   V13       1.0  0.3444991100000001  0.22428429  0.5164202598279926  1.0000
  V   V14       1.0  0.8401417800000001  0.15899504  0.47509849977967555  1.0000
  V   V15       1.0  0.83717638  0.7265148200000001  0.5161965401913176  1.0000
  V   V16       1.0  0.34014178000000006  0.65899504  0.47509849977967555  1.0000
  V   V17       1.0  0.5078205  0.9089926899999999  0.5131949268944571  1.0000
  V   V18       1.0  0.011737420000000024  0.9089950400000001  0.4738871973376916  1.0000
  V   V19       1.0  0.59014178  0.15899504  0.45461915521909235  1.0000
  V   V20       1.0  0.08895833000000003  0.15750554000000003  0.49684066953646205  1.0000
  V   V21       1.0  0.34452530000000003  0.593937  0.5164202631046877  1.0000
  V   V22       1.0  0.8401417800000001  0.65899504  0.47509849977967555  1.0000
  V   V23       1.0  0.59014178  0.65899504  0.45461915521909235  1.0000
  V   V24       1.0  0.08897372000000005  0.66069692  0.4968396144406303  1.0000
  Ga  Ga1       1.0  0.59011824  0.15880948000000003  0.49530087840772624  1.0000
  Ga  Ga2       1.0  0.09014178000000003  0.15899504  0.45461915521909235  1.0000
  Ga  Ga3       1.0  0.88638337  0.9089950400000001  0.45461915521909235  1.0000
  Ga  Ga4       1.0  0.3825508000000001  0.9089671400000001  0.4960074092416762  1.0000
  Ga  Ga5       1.0  0.5066453600000002  0.40887316  0.5209276947551792  1.0000
  Ga  Ga6       1.0  0.98826258  0.40899504000000003  0.4796561893800663  1.0000
  Ga  Ga7       1.0  0.48826258000000006  0.40899504000000003  0.47054081345598  1.0000
  Ga  Ga8       1.0  0.9831295  0.40910240000000003  0.5147783078985032  1.0000
  Ga  Ga9       1.0  0.69202099  0.9089950400000001  0.47054081345598  1.0000
  Ga  Ga10      1.0  0.19994830000000002  0.9090827600000001  0.5150193481456338  1.0000
  Ga  Ga11      1.0  0.59003806  0.6591031300000001  0.49530011493776105  1.0000
  Ga  Ga12      1.0  0.09014178000000003  0.65899504  0.45461915521909235  1.0000
  Ga  Ga13      1.0  0.67471293  0.9090300800000001  0.521009549876214  1.0000
  Ga  Ga14      1.0  0.19202099000000003  0.9089950400000001  0.4796561893800663  1.0000
  Ga  Ga15      1.0  0.29390019000000006  0.40899504000000003  0.45461915521909235  1.0000
  Ga  Ga16      1.0  0.79734943  0.40912326000000004  0.495977997626192  1.0000
  Ga  Ga17      1.0  0.75680845  0.40899504000000003  0.45461915521909235  1.0000
  Ga  Ga18      1.0  0.25613378000000003  0.40874692  0.49489486311420605  1.0000
  Ga  Ga19      1.0  0.42347512000000004  0.9089950400000001  0.45461915521909235  1.0000
  Ga  Ga20      1.0  0.92387843  0.9090415100000001  0.4947911720968268  1.0000
