data_image0
_chemical_formula_structural       COIr4Re12
_chemical_formula_sum              "C1 O1 Ir4 Re12"
_cell_length_a       4.793185751723307
_cell_length_b       5.51951035
_cell_length_c       106.13205794000001
_cell_angle_alpha    90.0
_cell_angle_beta     92.31208451283902
_cell_angle_gamma    90.0

_space_group_name_H-M_alt    "P 1"
_space_group_IT_number       1

loop_
  _space_group_symop_operation_xyz
  'x, y, z'

loop_
  _atom_site_type_symbol
  _atom_site_label
  _atom_site_symmetry_multiplicity
  _atom_site_fract_x
  _atom_site_fract_y
  _atom_site_fract_z
  _atom_site_occupancy
  C   C1        1.0  0.39181257999999997  0.12438559  0.5337057220755793  1.0000
  O   O1        1.0  0.44689435  0.12612999  0.544886632390752  1.0000
  Ir  Ir1       1.0  0.71847788  0.62561441  0.4551133676092481  1.0000
  Ir  Ir2       1.0  0.40597787999999996  0.12561441  0.4763911385776266  1.0000
  Ir  Ir3       1.0  0.78207023  0.12573647  0.5186112883728283  1.0000
  Ir  Ir4       1.0  0.09402211999999996  0.62564167  0.49717013816784617  1.0000
  Re  Re1       1.0  0.90597788  0.8756144099999998  0.4763911385776266  1.0000
  Re  Re2       1.0  0.58552371  0.37733711  0.49866183928157704  1.0000
  Re  Re3       1.0  0.21847787999999993  0.37561440999999995  0.45511336760924803  1.0000
  Re  Re4       1.0  0.2830352599999999  0.8707256099999998  0.5190470435044873  1.0000
  Re  Re5       1.0  0.90597788  0.37561440999999995  0.4763911385776266  1.0000
  Re  Re6       1.0  0.58558044  0.87389666  0.49866304445452464  1.0000
  Re  Re7       1.0  0.21847787999999993  0.8756144099999998  0.45511336760924803  1.0000
  Re  Re8       1.0  0.28310168999999996  0.38081444000000003  0.5190318937315578  1.0000
  Re  Re9       1.0  0.40597787999999996  0.62561441  0.4763911385776266  1.0000
  Re  Re10      1.0  0.09980274999999997  0.12567926000000001  0.49871238845651117  1.0000
  Re  Re11      1.0  0.71847788  0.12561441  0.4551133676092481  1.0000
  Re  Re12      1.0  0.76426889  0.6257086799999999  0.5181767792674372  1.0000
