data_image0
_chemical_formula_structural       COPb8Pd4
_chemical_formula_sum              "C1 O1 Pb8 Pd4"
_cell_length_a       5.84028656617872
_cell_length_b       5.8402865665648385
_cell_length_c       106.66565936
_cell_angle_alpha    86.39357723787714
_cell_angle_beta     86.3935772376384
_cell_angle_gamma    74.86189588160259

_space_group_name_H-M_alt    "P 1"
_space_group_IT_number       1

loop_
  _space_group_symop_operation_xyz
  'x, y, z'

loop_
  _atom_site_type_symbol
  _atom_site_label
  _atom_site_symmetry_multiplicity
  _atom_site_fract_x
  _atom_site_fract_y
  _atom_site_fract_z
  _atom_site_occupancy
  C   C1        1.0  0.31814097999999996  0.2573764150000001  0.538441182256606  1.0000
  O   O1        1.0  0.3555368899999999  0.249558475  0.5490901933906344  1.0000
  Pb  Pb1       1.0  0.7595335999999999  0.4444985250000001  0.4798462699140048  1.0000
  Pb  Pb2       1.0  0.10455816999999992  0.8189796050000002  0.5224233844789068  1.0000
  Pb  Pb3       1.0  0.24547609999999997  0.583556025  0.4583622822487173  1.0000
  Pb  Pb4       1.0  0.6271175899999998  0.9470999150000001  0.5018379499886083  1.0000
  Pb  Pb5       1.0  0.22887765999999996  0.566957585  0.4938777819399406  1.0000
  Pb  Pb6       1.0  0.8538776599999999  0.19195758500000004  0.45090980660936547  1.0000
  Pb  Pb7       1.0  0.36793515999999993  0.052900085000000034  0.472393794274653  1.0000
  Pb  Pb8       1.0  0.7379230699999998  0.41124541500000006  0.5158256278048307  1.0000
  Pd  Pd1       1.0  0.9004556299999998  0.9119780550000001  0.47612003209432896  1.0000
  Pd  Pd2       1.0  0.26032742999999997  0.2611954250000001  0.5209386931214002  1.0000
  Pd  Pd3       1.0  0.09954436999999995  0.09896970500000003  0.4987860584486465  1.0000
  Pd  Pd4       1.0  0.7129556299999998  0.7244780550000001  0.4546360444290414  1.0000
