data_image0
_chemical_formula_structural       COTi2Cu2Sn2Ti2Cu2Sn2Ti2Cu2Sn2Ti2Cu2Sn2
_chemical_formula_sum              "C1 O1 Ti8 Cu8 Sn8"
_cell_length_a       6.09195518
_cell_length_b       8.914309446724312
_cell_length_c       105.65723777
_cell_angle_alpha    60.000000024952975
_cell_angle_beta     90.0
_cell_angle_gamma    90.0

_space_group_name_H-M_alt    "P 1"
_space_group_IT_number       1

loop_
  _space_group_symop_operation_xyz
  'x, y, z'

loop_
  _atom_site_type_symbol
  _atom_site_label
  _atom_site_symmetry_multiplicity
  _atom_site_fract_x
  _atom_site_fract_y
  _atom_site_fract_z
  _atom_site_occupancy
  C   C1        1.0  0.62587495  0.22555263999999997  0.5395169907484163  1.0000
  O   O1        1.0  0.62374896  0.16336726999999998  0.5521493041234463  1.0000
  Ti  Ti1       1.0  0.8800669999999999  0.9986998699999999  0.49050202154124206  1.0000
  Ti  Ti2       1.0  0.36158050999999997  0.9969845199999999  0.49079609851198436  1.0000
  Cu  Cu1       1.0  0.6449856199999999  0.33143153999999997  0.5192762984394819  1.0000
  Cu  Cu2       1.0  0.13781392999999997  0.16805483  0.5039911906836956  1.0000
  Sn  Sn1       1.0  0.12276061999999999  0.32668494  0.5196132320352882  1.0000
  Sn  Sn2       1.0  0.61400585  0.16939290999999995  0.5046022055416448  1.0000
  Ti  Ti3       1.0  0.87489895  0.0013001299999999823  0.44785069587655374  1.0000
  Ti  Ti4       1.0  0.37489894999999995  0.0013001299999999823  0.44785069587655374  1.0000
  Cu  Cu3       1.0  0.65195547  0.33463345999999994  0.47597405424452705  1.0000
  Cu  Cu4       1.0  0.15195546999999995  0.16796679999999997  0.46191237674794194  1.0000
  Sn  Sn3       1.0  0.11993299999999997  0.33463345999999994  0.47597405424452705  1.0000
  Sn  Sn4       1.0  0.619933  0.16796679999999997  0.46191237674794194  1.0000
  Ti  Ti5       1.0  0.8800669999999999  0.49869986999999993  0.490502021541242  1.0000
  Ti  Ti6       1.0  0.36158050999999997  0.49698451999999993  0.49079609851198436  1.0000
  Cu  Cu5       1.0  0.6748693599999999  0.8433285199999999  0.5168757638437708  1.0000
  Cu  Cu6       1.0  0.13807699999999998  0.6706580299999999  0.5040265653702002  1.0000
  Sn  Sn5       1.0  0.12708740999999998  0.82409383  0.5201613506871331  1.0000
  Sn  Sn6       1.0  0.61182568  0.66498203  0.5043733736399917  1.0000
  Ti  Ti7       1.0  0.87489895  0.50130013  0.44785069587655374  1.0000
  Ti  Ti8       1.0  0.37489894999999995  0.50130013  0.44785069587655374  1.0000
  Cu  Cu7       1.0  0.65195547  0.8346334599999999  0.47597405424452705  1.0000
  Cu  Cu8       1.0  0.15195546999999995  0.6679668000000001  0.46191237674794194  1.0000
  Sn  Sn7       1.0  0.11993299999999997  0.8346334599999999  0.47597405424452705  1.0000
  Sn  Sn8       1.0  0.619933  0.6679668000000001  0.46191237674794194  1.0000
