data_image0
_chemical_formula_structural       COGa2As2Pd10Ga2As2Pd10
_chemical_formula_sum              "C1 O1 Ga4 As4 Pd20"
_cell_length_a       5.68227385
_cell_length_b       8.094320993998329
_cell_length_c       104.09364307999999
_cell_angle_alpha    110.5487204614967
_cell_angle_beta     90.0
_cell_angle_gamma    69.4512795385033

_space_group_name_H-M_alt    "P 1"
_space_group_IT_number       1

loop_
  _space_group_symop_operation_xyz
  'x, y, z'

loop_
  _atom_site_type_symbol
  _atom_site_label
  _atom_site_symmetry_multiplicity
  _atom_site_fract_x
  _atom_site_fract_y
  _atom_site_fract_z
  _atom_site_occupancy
  C   C1        1.0  0.688744495  0.7308506549999999  0.5527832891453909  1.0000
  O   O1        1.0  0.6887261849999999  0.731390145  0.5641050579946592  1.0000
  Ga  Ga1       1.0  0.05088956499999992  0.004730544999999975  0.4495419672537548  1.0000
  Ga  Ga2       1.0  0.550889565  0.004730544999999975  0.4768360144752968  1.0000
  As  As1       1.0  0.8008895649999999  0.5047305449999999  0.43589494200534085  1.0000
  As  As2       1.0  0.3008895649999999  0.5047305449999999  0.4631889925021686  1.0000
  Pd  Pd1       1.0  0.16103781499999995  0.284434035  0.4435291844853839  1.0000
  Pd  Pd2       1.0  0.661037815  0.284434035  0.4708232317069259  1.0000
  Pd  Pd3       1.0  0.9407413150000002  0.725027055  0.45555475002212553  1.0000
  Pd  Pd4       1.0  0.440741315  0.725027055  0.4828488005189533  1.0000
  Pd  Pd5       1.0  0.661037815  0.284434035  0.4435291844853839  1.0000
  Pd  Pd6       1.0  0.16103781499999995  0.284434035  0.4708232317069259  1.0000
  Pd  Pd7       1.0  0.440741315  0.725027055  0.45555475002212553  1.0000
  Pd  Pd8       1.0  0.9407413150000002  0.725027055  0.4828488005189533  1.0000
  Pd  Pd9       1.0  0.05088956499999992  0.004730544999999975  0.4768360144752968  1.0000
  Pd  Pd10      1.0  0.550889565  0.004730544999999975  0.4495419672537548  1.0000
  Ga  Ga3       1.0  0.05088956499999992  0.004730544999999975  0.5041300649721244  1.0000
  Ga  Ga4       1.0  0.560111605  0.9882271549999999  0.5291252382216205  1.0000
  As  As3       1.0  0.8008895649999999  0.5047305449999999  0.4904830397237106  1.0000
  As  As4       1.0  0.3023885649999999  0.5019282949999999  0.5191050188190302  1.0000
  Pd  Pd11      1.0  0.16103781499999995  0.284434035  0.4981172822037537  1.0000
  Pd  Pd12      1.0  0.6697828949999999  0.273375245  0.5253684657600626  1.0000
  Pd  Pd13      1.0  0.9491104349999999  0.715097735  0.5097977308760026  1.0000
  Pd  Pd14      1.0  0.456092365  0.727561575  0.5376553532494511  1.0000
  Pd  Pd15      1.0  0.661037815  0.284434035  0.4981172822037537  1.0000
  Pd  Pd16      1.0  0.16541766499999994  0.27246833499999995  0.5254128065791905  1.0000
  Pd  Pd17      1.0  0.44395295500000004  0.715268425  0.5098841132636284  1.0000
  Pd  Pd18      1.0  0.921158235  0.725695125  0.5374376613789139  1.0000
  Pd  Pd19      1.0  0.055161724999999995  0.995269455  0.5306945226305372  1.0000
  Pd  Pd20      1.0  0.550889565  0.004730544999999975  0.5041300649721244  1.0000
