data_image0
_chemical_formula_structural       COCo12Nb6Zn6
_chemical_formula_sum              "C1 O1 Co12 Nb6 Zn6"
_cell_length_a       5.96882955
_cell_length_b       7.310293376689486
_cell_length_c       102.14313081
_cell_angle_alpha    94.34775314594629
_cell_angle_beta     90.0
_cell_angle_gamma    114.09484251928923

_space_group_name_H-M_alt    "P 1"
_space_group_IT_number       1

loop_
  _space_group_symop_operation_xyz
  'x, y, z'

loop_
  _atom_site_type_symbol
  _atom_site_label
  _atom_site_symmetry_multiplicity
  _atom_site_fract_x
  _atom_site_fract_y
  _atom_site_fract_z
  _atom_site_occupancy
  C   C1        1.0  0.520409855  0.25507756  0.5403361065061726  1.0000
  O   O1        1.0  0.49148712499999997  0.28187502999999997  0.5515089133054392  1.0000
  Co  Co1       1.0  0.935927595  0.40350211999999996  0.4484910866945608  1.0000
  Co  Co2       1.0  0.7715818849999999  0.05496027999999995  0.5011582233663707  1.0000
  Co  Co3       1.0  0.35259426499999996  0.23683544999999995  0.47471501488025  1.0000
  Co  Co4       1.0  0.959905735  0.46456711999999994  0.5128680469353758  1.0000
  Co  Co5       1.0  0.560927595  0.65350212  0.4878269805465303  1.0000
  Co  Co6       1.0  0.14426092500000004  0.8201687900000001  0.46160304921396966  1.0000
  Co  Co7       1.0  0.47540342499999994  0.47047644999999993  0.5128446342113551  1.0000
  Co  Co8       1.0  0.060927594999999966  0.65350212  0.4878269805465303  1.0000
  Co  Co9       1.0  0.6442609250000001  0.8201687900000001  0.46160304921396966  1.0000
  Co  Co10      1.0  0.43592759500000006  0.40350211999999996  0.4484910866945608  1.0000
  Co  Co11      1.0  0.254554485  0.054831209999999964  0.5009473483597374  1.0000
  Co  Co12      1.0  0.852594265  0.23683544999999995  0.47471501488025  1.0000
  Nb  Nb1       1.0  0.040094265  0.11183544999999999  0.45504706795426525  1.0000
  Nb  Nb2       1.0  0.867354145  0.76405535  0.5077452453666316  1.0000
  Nb  Nb3       1.0  0.456760925  0.9451687900000001  0.4812709961399545  1.0000
  Nb  Nb4       1.0  0.748427595  0.52850212  0.46815903362054556  1.0000
  Nb  Nb5       1.0  0.567562445  0.19358088999999998  0.5195330830271954  1.0000
  Nb  Nb6       1.0  0.16213952499999998  0.35881117999999995  0.49445087758712386  1.0000
  Zn  Zn1       1.0  0.540094265  0.11183544999999999  0.45504706795426525  1.0000
  Zn  Zn2       1.0  0.36819382500000003  0.7691661300000001  0.5088530825998494  1.0000
  Zn  Zn3       1.0  0.956760925  0.9451687900000001  0.4812709961399545  1.0000
  Zn  Zn4       1.0  0.248427595  0.52850212  0.46815903362054556  1.0000
  Zn  Zn5       1.0  0.08132693499999998  0.19584857999999994  0.5208468295038065  1.0000
  Zn  Zn6       1.0  0.6612765349999999  0.35367436999999996  0.4938882264020798  1.0000
