data_image0
_chemical_formula_structural       COAl8Ca4
_chemical_formula_sum              "C1 O1 Al8 Ca4"
_cell_length_a       5.71894828
_cell_length_b       5.71894828
_cell_length_c       102.35125686
_cell_angle_alpha    90.0
_cell_angle_beta     90.0
_cell_angle_gamma    90.0

_space_group_name_H-M_alt    "P 1"
_space_group_IT_number       1

loop_
  _space_group_symop_operation_xyz
  'x, y, z'

loop_
  _atom_site_type_symbol
  _atom_site_label
  _atom_site_symmetry_multiplicity
  _atom_site_fract_x
  _atom_site_fract_y
  _atom_site_fract_z
  _atom_site_occupancy
  C   C1        1.0  0.9547032999999999  0.15786410999999997  0.5315725661824883  1.0000
  O   O1        1.0  0.045296700000000016  0.16088011  0.5424121965996408  1.0000
  Al  Al1       1.0  0.15254508  0.12499999999999999  0.47734284711726943  1.0000
  Al  Al2       1.0  0.40254508000000006  0.875  0.4970978908341796  1.0000
  Al  Al3       1.0  0.65254508  0.12499999999999999  0.47734284711726943  1.0000
  Al  Al4       1.0  0.9025450799999999  0.875  0.4575878034003593  1.0000
  Al  Al5       1.0  0.65115889  0.62663932  0.5171227094280878  1.0000
  Al  Al6       1.0  0.9025450799999999  0.37499999999999994  0.4575878034003593  1.0000
  Al  Al7       1.0  0.14940962000000002  0.62342339  0.516639684385578  1.0000
  Al  Al8       1.0  0.40254508000000006  0.37499999999999994  0.4970978908341796  1.0000
  Ca  Ca1       1.0  0.8994079099999999  0.12649408999999998  0.5080201731934367  1.0000
  Ca  Ca2       1.0  0.9025450799999999  0.625  0.4872203689757245  1.0000
  Ca  Ca3       1.0  0.40254508000000006  0.625  0.46746532525881435  1.0000
  Ca  Ca4       1.0  0.41152445000000004  0.13143241  0.5289341267949557  1.0000
