data_image0
_chemical_formula_structural       COIn20Pt20
_chemical_formula_sum              "C1 O1 In20 Pt20"
_cell_length_a       7.107274634982017
_cell_length_b       13.34896310823687
_cell_length_c       100.07861902
_cell_angle_alpha    82.27245656049426
_cell_angle_beta     84.45121062645401
_cell_angle_gamma    79.5580810252705

_space_group_name_H-M_alt    "P 1"
_space_group_IT_number       1

loop_
  _space_group_symop_operation_xyz
  'x, y, z'

loop_
  _atom_site_type_symbol
  _atom_site_label
  _atom_site_symmetry_multiplicity
  _atom_site_fract_x
  _atom_site_fract_y
  _atom_site_fract_z
  _atom_site_occupancy
  C   C1        1.0  0.774036945  0.67249759  0.5415493857904888  1.0000
  O   O1        1.0  0.809515445  0.6600093399999999  0.5528995085307534  1.0000
  In  In1       1.0  0.336734685  0.79361198  0.5312579500758395  1.0000
  In  In2       1.0  0.819035785  0.27983897  0.5072119894089197  1.0000
  In  In3       1.0  0.192786835  0.95840833  0.5054257792713996  1.0000
  In  In4       1.0  0.7793630649999999  0.46890027  0.5236755930241477  1.0000
  In  In5       1.0  0.44185157499999994  0.62469346  0.5088461273076261  1.0000
  In  In6       1.0  0.049755284999999996  0.11725428999999998  0.5318810020422217  1.0000
  In  In7       1.0  0.733335755  0.9168384899999998  0.5173874549388412  1.0000
  In  In8       1.0  0.168276025  0.41683727  0.4952352561914473  1.0000
  In  In9       1.0  0.9019806050000001  0.66043079  0.49576010648323776  1.0000
  In  In10      1.0  0.453893925  0.17761907  0.5180756781457158  1.0000
  In  In11      1.0  0.24941402499999998  0.78863403  0.48476375502022256  1.0000
  In  In12      1.0  0.6779854549999998  0.28863403  0.4632959053914818  1.0000
  In  In13      1.0  0.04950007500000003  0.96136597  0.4622729597600715  1.0000
  In  In14      1.0  0.620928645  0.4613659699999999  0.48374080938881225  1.0000
  In  In15      1.0  0.30647083500000005  0.6159020899999998  0.4643188510228921  1.0000
  In  In16      1.0  0.877899415  0.11590208999999999  0.485786703657132  1.0000
  In  In17      1.0  0.596847455  0.9168372699999999  0.47376740656270644  1.0000
  In  In18      1.0  0.025418885000000016  0.41683727  0.4522995569339657  1.0000
  In  In19      1.0  0.7591234650000002  0.66043079  0.4528244072257561  1.0000
  In  In20      1.0  0.33055203499999997  0.16043079  0.47429225685449694  1.0000
  Pt  Pt1       1.0  0.11216458500000004  0.54191489  0.5152175026879626  1.0000
  Pt  Pt2       1.0  0.535128315  0.03863402999999999  0.49549768133734257  1.0000
  Pt  Pt3       1.0  0.734649875  0.6953797300000001  0.5229648977011894  1.0000
  Pt  Pt4       1.0  0.162986815  0.16257809999999998  0.5006146455856565  1.0000
  Pt  Pt5       1.0  0.903072185  0.9069216499999999  0.49003619373222734  1.0000
  Pt  Pt6       1.0  0.48304731500000003  0.41318859999999996  0.5112147069769541  1.0000
  Pt  Pt7       1.0  0.08730790499999995  0.7657830400000001  0.5123746672971473  1.0000
  Pt  Pt8       1.0  0.523155365  0.26056016  0.49064372830723046  1.0000
  Pt  Pt9       1.0  0.538590685  0.8204380200000001  0.49969814571261717  1.0000
  Pt  Pt10      1.0  0.11201842499999999  0.32285558  0.5205403556403299  1.0000
  Pt  Pt11      1.0  0.9636997449999999  0.53863403  0.4740298317086017  1.0000
  Pt  Pt12      1.0  0.3922711749999999  0.03863402999999999  0.4525619820798609  1.0000
  Pt  Pt13      1.0  0.595755875  0.67034641  0.4794913193137169  1.0000
  Pt  Pt14      1.0  0.024327305000000007  0.17034640999999998  0.45802346968497615  1.0000
  Pt  Pt15      1.0  0.760215035  0.9069216499999999  0.4471004914692467  1.0000
  Pt  Pt16      1.0  0.33164361500000006  0.40692164999999997  0.46856834410348647  1.0000
  Pt  Pt17      1.0  0.9517267849999999  0.76056016  0.4691758756729906  1.0000
  Pt  Pt18      1.0  0.38029821500000005  0.26056016  0.44770802604424975  1.0000
  Pt  Pt19      1.0  0.40424412500000007  0.8167078999999999  0.457415935109973  1.0000
  Pt  Pt20      1.0  0.9756726950000001  0.3167079  0.4788837847387138  1.0000
