data_image0
_chemical_formula_structural       Co6Pt2Co6Pt2CO
_chemical_formula_sum              "Co12 Pt4 C1 O1"
_cell_length_a       5.18194131
_cell_length_b       5.181941302840772
_cell_length_c       98.81298861
_cell_angle_alpha    90.0
_cell_angle_beta     90.0
_cell_angle_gamma    119.99999998186549

_space_group_name_H-M_alt    "P 1"
_space_group_IT_number       1

loop_
  _space_group_symop_operation_xyz
  'x, y, z'

loop_
  _atom_site_type_symbol
  _atom_site_label
  _atom_site_symmetry_multiplicity
  _atom_site_fract_x
  _atom_site_fract_y
  _atom_site_fract_z
  _atom_site_occupancy
  Co  Co1       1.0  0.221746935  0.31658171  0.4547792304932923  1.0000
  Co  Co2       1.0  0.746874375  0.8417091499999999  0.4547792304932923  1.0000
  Co  Co3       1.0  0.22174693499999992  0.8417091499999999  0.4547792304932923  1.0000
  Co  Co4       1.0  0.905165235  0.68341829  0.47560716620082855  1.0000
  Co  Co5       1.0  0.38003779500000007  0.15829085000000004  0.47560716620082855  1.0000
  Co  Co6       1.0  0.905165235  0.15829085000000004  0.47560716620082855  1.0000
  Pt  Pt1       1.0  0.396789415  0.66666667  0.47560716620082855  1.0000
  Pt  Pt2       1.0  0.730122755  0.3333333299999999  0.4547792304932923  1.0000
  Co  Co7       1.0  0.22765422500000004  0.32603944  0.49644852967878395  1.0000
  Co  Co8       1.0  0.740991095  0.8385523999999999  0.4965444223298167  1.0000
  Co  Co9       1.0  0.22688859499999992  0.8415709799999999  0.4964794179246147  1.0000
  Co  Co10      1.0  0.9009851050000001  0.68758068  0.516642129347166  1.0000
  Co  Co11      1.0  0.386819585  0.16351297  0.5168082283887271  1.0000
  Co  Co12      1.0  0.9016801349999999  0.16677551  0.5176740119521492  1.0000
  Pt  Pt3       1.0  0.39972803500000004  0.67525196  0.5187834811185471  1.0000
  Pt  Pt4       1.0  0.7311477950000002  0.3357816  0.4964323959429035  1.0000
  C   C1        1.0  0.09483476500000003  0.34697594  0.5332431487222896  1.0000
  O   O1        1.0  0.11627658499999999  0.36088915999999993  0.5452207695067076  1.0000
