data_image0
_chemical_formula_structural       COSi8V24
_chemical_formula_sum              "C1 O1 Si8 V24"
_cell_length_a       6.66420864
_cell_length_b       8.161955353838517
_cell_length_c       39.09933575
_cell_angle_alpha    84.94884746400209
_cell_angle_beta     90.0
_cell_angle_gamma    90.0

_space_group_name_H-M_alt    "P 1"
_space_group_IT_number       1

loop_
  _space_group_symop_operation_xyz
  'x, y, z'

loop_
  _atom_site_type_symbol
  _atom_site_label
  _atom_site_symmetry_multiplicity
  _atom_site_fract_x
  _atom_site_fract_y
  _atom_site_fract_z
  _atom_site_occupancy
  C   C1        1.0  0.33374840999999994  0.7195965699999999  0.5862789377484667  1.0000
  O   O1        1.0  0.32083342000000004  0.8456995799999999  0.6048480076626096  1.0000
  Si  Si1       1.0  0.0565543  0.39843749999999994  0.3951519923373906  1.0000
  Si  Si2       1.0  0.54939369  0.33358028  0.5420174336537084  1.0000
  Si  Si3       1.0  0.0565543  0.023437499999999993  0.49394096041468083  1.0000
  Si  Si4       1.0  0.5565543000000001  0.7109374999999999  0.4445464763760358  1.0000
  Si  Si5       1.0  0.0565543  0.5234374999999999  0.4939409604146807  1.0000
  Si  Si6       1.0  0.5565543000000001  0.21093749999999997  0.44454647637603567  1.0000
  Si  Si7       1.0  0.0565543  0.8984375  0.3951519923373906  1.0000
  Si  Si8       1.0  0.5636032799999999  0.8352233699999999  0.5392728627363502  1.0000
  V   V1        1.0  0.31534204999999993  0.5863103099999999  0.5485296024293634  1.0000
  V   V2        1.0  0.8065543000000001  0.2734375  0.4939409604146807  1.0000
  V   V3        1.0  0.3065543  0.9609374999999999  0.44454647637603567  1.0000
  V   V4        1.0  0.8065543000000001  0.6484375  0.3951519923373906  1.0000
  V   V5        1.0  0.3065543  0.7734374999999999  0.49394096041468083  1.0000
  V   V6        1.0  0.8065543000000001  0.4609375  0.44454647637603567  1.0000
  V   V7        1.0  0.3065543  0.14843749999999997  0.3951519923373906  1.0000
  V   V8        1.0  0.80045132  0.07622447  0.5424772212204926  1.0000
  V   V9        1.0  0.9012278300000001  0.43823302999999997  0.5570246159535611  1.0000
  V   V10       1.0  0.4274087  0.10212692999999999  0.5062639041957594  1.0000
  V   V11       1.0  0.9315543000000001  0.7890624999999999  0.456895097385697  1.0000
  V   V12       1.0  0.43155430000000006  0.4765625  0.4075006133470519  1.0000
  V   V13       1.0  0.17364247000000002  0.25724421  0.5322664250924934  1.0000
  V   V14       1.0  0.6815543  0.9453124999999999  0.4815923394050195  1.0000
  V   V15       1.0  0.1815543  0.6328124999999999  0.43219785536637445  1.0000
  V   V16       1.0  0.6971341499999999  0.57046495  0.5732084697006237  1.0000
  V   V17       1.0  0.6825831699999999  0.5998977399999998  0.5048204551160361  1.0000
  V   V18       1.0  0.1815543  0.28906249999999994  0.456895097385697  1.0000
  V   V19       1.0  0.6815543  0.9765624999999999  0.40750061334705184  1.0000
  V   V20       1.0  0.1963578  0.9126319399999999  0.5547369479651191  1.0000
  V   V21       1.0  0.9434457  0.7641019699999999  0.5289736544334809  1.0000
  V   V22       1.0  0.43155430000000006  0.4453125  0.4815923394050195  1.0000
  V   V23       1.0  0.9315543000000001  0.1328125  0.4321978553663744  1.0000
  V   V24       1.0  0.43062765000000003  0.06763954  0.5737967698602  1.0000
