data_image0
_chemical_formula_structural       COGe6Mo3Ge6Mo3
_chemical_formula_sum              "C1 O1 Ge12 Mo6"
_cell_length_a       4.788013983804251
_cell_length_b       6.717054127476002
_cell_length_c       101.19848673999999
_cell_angle_alpha    93.08544561497459
_cell_angle_beta     92.58486960786284
_cell_angle_gamma    69.46849618018273

_space_group_name_H-M_alt    "P 1"
_space_group_IT_number       1

loop_
  _space_group_symop_operation_xyz
  'x, y, z'

loop_
  _atom_site_type_symbol
  _atom_site_label
  _atom_site_symmetry_multiplicity
  _atom_site_fract_x
  _atom_site_fract_y
  _atom_site_fract_z
  _atom_site_occupancy
  C   C1        1.0  0.22769104000000004  0.24615251  0.5409092852641563  1.0000
  O   O1        1.0  0.16770923  0.2654250100000001  0.5521891835780814  1.0000
  Ge  Ge1       1.0  0.12135080999999996  0.10628439  0.5198040103503718  1.0000
  Ge  Ge2       1.0  0.5983998799999999  0.26041478000000007  0.5294934310372966  1.0000
  Ge  Ge3       1.0  0.7864410000000001  0.17461768  0.48908008273110065  1.0000
  Ge  Ge4       1.0  0.23785299999999998  0.3198321500000001  0.4990285657145269  1.0000
  Ge  Ge5       1.0  0.48644099999999996  0.22461767000000005  0.45825107753050365  1.0000
  Ge  Ge6       1.0  0.937853  0.36983214  0.46819956051393  1.0000
  Mo  Mo1       1.0  0.6532099299999999  0.47344068  0.509071514935689  1.0000
  Mo  Mo2       1.0  0.362147  0.02222491  0.47863982162251534  1.0000
  Mo  Mo3       1.0  0.062147  0.07222491  0.4478108164219184  1.0000
  Ge  Ge7       1.0  0.08761992  0.62901084  0.5199990284714697  1.0000
  Ge  Ge8       1.0  0.60585287  0.74712871  0.532412379824799  1.0000
  Ge  Ge9       1.0  0.7864410000000001  0.67461768  0.48908008273110065  1.0000
  Ge  Ge10      1.0  0.23785299999999998  0.81983215  0.49902856571452703  1.0000
  Ge  Ge11      1.0  0.48644099999999996  0.72461767  0.4582510775305037  1.0000
  Ge  Ge12      1.0  0.937853  0.86983214  0.4681995605139301  1.0000
  Mo  Mo4       1.0  0.6567938799999999  0.97777509  0.509270374350835  1.0000
  Mo  Mo5       1.0  0.362147  0.52222491  0.47863982162251534  1.0000
  Mo  Mo6       1.0  0.062147  0.57222491  0.44781081642191845  1.0000
