data_image0
_chemical_formula_structural       COIn5As5Pd25
_chemical_formula_sum              "C1 O1 In5 As5 Pd25"
_cell_length_a       8.244497820668768
_cell_length_b       9.11822283936314
_cell_length_c       106.79133418
_cell_angle_alpha    101.43574870242134
_cell_angle_beta     117.24462454880995
_cell_angle_gamma    77.22074876382447

_space_group_name_H-M_alt    "P 1"
_space_group_IT_number       1

loop_
  _space_group_symop_operation_xyz
  'x, y, z'

loop_
  _atom_site_type_symbol
  _atom_site_label
  _atom_site_symmetry_multiplicity
  _atom_site_fract_x
  _atom_site_fract_y
  _atom_site_fract_z
  _atom_site_occupancy
  C   C1        1.0  0.667342115  0.581829875  0.5352842229355586  1.0000
  O   O1        1.0  0.708136585  0.572289205  0.5474171395193458  1.0000
  In  In1       1.0  0.5461781450000001  0.621207425  0.4969539781098953  1.0000
  In  In2       1.0  0.346178145  0.021207424999999995  0.47972817300946125  1.0000
  In  In3       1.0  0.756770105  0.21808272500000003  0.5144403786350499  1.0000
  In  In4       1.0  0.14617814499999998  0.42120742499999997  0.46250236790902727  1.0000
  In  In5       1.0  0.936905565  0.8162128149999999  0.5302108305851244  1.0000
  As  As1       1.0  0.151896455  0.41826620499999995  0.5054142221301513  1.0000
  As  As2       1.0  0.946178145  0.8212074249999999  0.4883410755596784  1.0000
  As  As3       1.0  0.351843375  0.021658105000000007  0.5231171716963843  1.0000
  As  As4       1.0  0.7461781449999999  0.22120742500000004  0.4711152704592443  1.0000
  As  As5       1.0  0.5461781450000001  0.621207425  0.4538894653588102  1.0000
  Pd  Pd1       1.0  0.912424245  0.6615223449999998  0.5033762577996851  1.0000
  Pd  Pd2       1.0  0.7189336049999999  0.063622265  0.48703447068152217  1.0000
  Pd  Pd3       1.0  0.119897185  0.258888345  0.5206433531549447  1.0000
  Pd  Pd4       1.0  0.5189336050000001  0.4636222649999999  0.46980866558108814  1.0000
  Pd  Pd5       1.0  0.31893360500000006  0.863622265  0.45258286048065416  1.0000
  Pd  Pd6       1.0  0.17342267500000003  0.578792575  0.48964768043783435  1.0000
  Pd  Pd7       1.0  0.9734226749999999  0.9787925749999999  0.47242187533740027  1.0000
  Pd  Pd8       1.0  0.376067045  0.17894925499999997  0.5071576665353325  1.0000
  Pd  Pd9       1.0  0.7734226750000001  0.3787925750000001  0.4551960702369663  1.0000
  Pd  Pd10      1.0  0.5699386049999999  0.7716062250000001  0.5241237133851738  1.0000
  Pd  Pd11      1.0  0.8189336049999999  0.363622265  0.49564737323173913  1.0000
  Pd  Pd12      1.0  0.6189336049999999  0.763622265  0.4784215681313052  1.0000
  Pd  Pd13      1.0  0.026577325000000002  0.9594233349999998  0.5133357222055692  1.0000
  Pd  Pd14      1.0  0.418933605  0.163622265  0.4611957630308712  1.0000
  Pd  Pd15      1.0  0.191179495  0.565863115  0.5283067348764158  1.0000
  Pd  Pd16      1.0  0.07342267499999999  0.27879257499999993  0.4810347778876173  1.0000
  Pd  Pd17      1.0  0.8734226749999999  0.6787925749999999  0.4638089727871833  1.0000
  Pd  Pd18      1.0  0.273422675  0.8787925749999999  0.4982605829880514  1.0000
  Pd  Pd19      1.0  0.682606225  0.06486363499999998  0.5312999458932435  1.0000
  Pd  Pd20      1.0  0.480492495  0.47721616500000014  0.5165429052830325  1.0000
  Pd  Pd21      1.0  0.8370651349999999  0.521231825  0.5237419860989873  1.0000
  Pd  Pd22      1.0  0.6427002549999999  0.9212451949999998  0.5049241962072981  1.0000
  Pd  Pd23      1.0  0.046178145000000004  0.121207425  0.4538894653588102  1.0000
  Pd  Pd24      1.0  0.44617814499999997  0.32120742500000005  0.48834107555967826  1.0000
  Pd  Pd25      1.0  0.24617814500000001  0.7212074249999999  0.47111527045924423  1.0000
