data_image0
_chemical_formula_structural       COPd18Zn6
_chemical_formula_sum              "C1 O1 Pd18 Zn6"
_cell_length_a       4.806227101355213
_cell_length_b       7.4058203953876225
_cell_length_c       101.32566465
_cell_angle_alpha    86.4281192186951
_cell_angle_beta     89.45964226191644
_cell_angle_gamma    88.85711934552518

_space_group_name_H-M_alt    "P 1"
_space_group_IT_number       1

loop_
  _space_group_symop_operation_xyz
  'x, y, z'

loop_
  _atom_site_type_symbol
  _atom_site_label
  _atom_site_symmetry_multiplicity
  _atom_site_fract_x
  _atom_site_fract_y
  _atom_site_fract_z
  _atom_site_occupancy
  C   C1        1.0  0.045114529999999986  0.9612415599999999  0.5527499122227336  1.0000
  O   O1        1.0  0.12570684  0.9227277399999999  0.563396190659096  1.0000
  Pd  Pd1       1.0  0.25928264  0.45163483000000004  0.518460893034645  1.0000
  Pd  Pd2       1.0  0.60980828  0.8955326199999999  0.5010117760050317  1.0000
  Pd  Pd3       1.0  0.9548854699999999  0.02113405000000001  0.5346466256215866  1.0000
  Pd  Pd4       1.0  0.6095115200000001  0.7341892499999999  0.5263904712178888  1.0000
  Pd  Pd5       1.0  0.9448132100000001  0.16951825000000004  0.5095680859655715  1.0000
  Pd  Pd6       1.0  0.27647495  0.6177548399999999  0.4924240462920593  1.0000
  Pd  Pd7       1.0  0.7495809099999999  0.37180911  0.5298450023552027  1.0000
  Pd  Pd8       1.0  0.11325197  0.81257616  0.5139202858912942  1.0000
  Pd  Pd9       1.0  0.44314160999999996  0.25664373  0.4967179111485456  1.0000
  Pd  Pd10      1.0  0.27647495  0.78442151  0.4666608602447248  1.0000
  Pd  Pd11      1.0  0.60980828  0.22886595  0.44948540081878013  1.0000
  Pd  Pd12      1.0  0.9431416099999999  0.33997706  0.48383631967066953  1.0000
  Pd  Pd13      1.0  0.60980828  0.062199280000000016  0.47524858995769714  1.0000
  Pd  Pd14      1.0  0.9431416099999999  0.5066437300000001  0.45807313053175247  1.0000
  Pd  Pd15      1.0  0.27647495  0.9510881699999999  0.44089767419739023  1.0000
  Pd  Pd16      1.0  0.77647495  0.7010881699999999  0.47954245481418334  1.0000
  Pd  Pd17      1.0  0.10980827999999998  0.14553262000000003  0.46236699538823867  1.0000
  Pd  Pd18      1.0  0.44314160999999996  0.58997706  0.4451915390538764  1.0000
  Zn  Zn1       1.0  0.10980827999999998  0.9788659499999999  0.48813018143557324  1.0000
  Zn  Zn2       1.0  0.44286545  0.09071489000000002  0.5225472508771312  1.0000
  Zn  Zn3       1.0  0.76541771  0.53726958  0.5055005867760263  1.0000
  Zn  Zn4       1.0  0.10980827999999998  0.31219927999999997  0.43660380934090404  1.0000
  Zn  Zn5       1.0  0.44314160999999996  0.42331040000000003  0.470954725101211  1.0000
  Zn  Zn6       1.0  0.77647495  0.8677548399999999  0.4537792656752662  1.0000
