data_image0
_chemical_formula_structural       COCa4Pb2
_chemical_formula_sum              "C1 O1 Ca4 Pb2"
_cell_length_a       5.48614381
_cell_length_b       5.48614381
_cell_length_c       101.03431592
_cell_angle_alpha    90.0
_cell_angle_beta     90.0
_cell_angle_gamma    90.0

_space_group_name_H-M_alt    "P 1"
_space_group_IT_number       1

loop_
  _space_group_symop_operation_xyz
  'x, y, z'

loop_
  _atom_site_type_symbol
  _atom_site_label
  _atom_site_symmetry_multiplicity
  _atom_site_fract_x
  _atom_site_fract_y
  _atom_site_fract_z
  _atom_site_occupancy
  C   C1        1.0  0.39300157  0.841246465  0.5239202260937842  1.0000
  O   O1        1.0  0.37060198000000005  0.818814305  0.53537494110842  1.0000
  Ca  Ca1       1.0  0.21053690000000005  0.158753535  0.46462505889158  1.0000
  Ca  Ca2       1.0  0.7105369  0.658753535  0.46462505889158  1.0000
  Ca  Ca3       1.0  0.7219857800000001  0.722807495  0.5037215982544742  1.0000
  Ca  Ca4       1.0  0.274596  0.170195435  0.5037216811893188  1.0000
  Pb  Pb1       1.0  0.7894631  0.23767410500000002  0.5191219446481886  1.0000
  Pb  Pb2       1.0  0.21053690000000005  0.658753535  0.48382293960505784  1.0000
