data_image0
_chemical_formula_structural       COCu6Se4Cu6Se4
_chemical_formula_sum              "C1 O1 Cu12 Se8"
_cell_length_a       6.49325994
_cell_length_b       6.49325994
_cell_length_c       100.91342765
_cell_angle_alpha    90.0
_cell_angle_beta     90.0
_cell_angle_gamma    90.0

_space_group_name_H-M_alt    "P 1"
_space_group_IT_number       1

loop_
  _space_group_symop_operation_xyz
  'x, y, z'

loop_
  _atom_site_type_symbol
  _atom_site_label
  _atom_site_symmetry_multiplicity
  _atom_site_fract_x
  _atom_site_fract_y
  _atom_site_fract_z
  _atom_site_occupancy
  C   C1        1.0  0.4309571199999999  0.21516923499999996  0.5381279809114308  1.0000
  O   O1        1.0  0.48781382  0.15863922499999997  0.5484287656845092  1.0000
  Cu  Cu1       1.0  0.06659356000000002  0.07968788499999997  0.4630231965219091  1.0000
  Cu  Cu2       1.0  0.5665935599999999  0.579687885  0.4630231965219091  1.0000
  Cu  Cu3       1.0  0.21240285  0.7254971749999999  0.45229926660609193  1.0000
  Cu  Cu4       1.0  0.42078427  0.22549717499999997  0.4737471233743651  1.0000
  Cu  Cu5       1.0  0.71240285  0.9338785949999999  0.4737471233743651  1.0000
  Cu  Cu6       1.0  0.9207842700000001  0.433878595  0.45229926660609193  1.0000
  Se  Se1       1.0  0.33751515  0.850609475  0.47447515872832735  1.0000
  Se  Se2       1.0  0.29567197  0.35060947499999995  0.45157123431549084  1.0000
  Se  Se3       1.0  0.83751515  0.808766295  0.45157123431549084  1.0000
  Se  Se4       1.0  0.79567197  0.308766295  0.47447515872832735  1.0000
  Cu  Cu7       1.0  0.08794304000000001  0.049868854999999976  0.5076654088494867  1.0000
  Cu  Cu8       1.0  0.5966200799999999  0.558434125  0.5076619717582462  1.0000
  Cu  Cu9       1.0  0.22975315000000002  0.7129738949999999  0.49629666897616387  1.0000
  Cu  Cu10      1.0  0.42709157999999997  0.21936482499999996  0.5192987312276665  1.0000
  Cu  Cu11      1.0  0.6962011100000001  0.950131145  0.5123703180635846  1.0000
  Cu  Cu12      1.0  0.93340644  0.4164942749999999  0.49629521694296597  1.0000
  Se  Se5       1.0  0.36385511  0.821835535  0.5181773572352174  1.0000
  Se  Se6       1.0  0.30869118000000006  0.3375081549999999  0.4964071399069285  1.0000
  Se  Se7       1.0  0.85921535  0.7870772749999999  0.4939664834731911  1.0000
  Se  Se8       1.0  0.8241108  0.282731185  0.518190002790156  1.0000
