data_image0
_chemical_formula_structural       COCu8Se8
_chemical_formula_sum              "C1 O1 Cu8 Se8"
_cell_length_a       5.4238058
_cell_length_b       9.541093071058606
_cell_length_c       101.398035
_cell_angle_alpha    87.8731323296021
_cell_angle_beta     90.0
_cell_angle_gamma    55.356538476759745

_space_group_name_H-M_alt    "P 1"
_space_group_IT_number       1

loop_
  _space_group_symop_operation_xyz
  'x, y, z'

loop_
  _atom_site_type_symbol
  _atom_site_label
  _atom_site_symmetry_multiplicity
  _atom_site_fract_x
  _atom_site_fract_y
  _atom_site_fract_z
  _atom_site_occupancy
  C   C1        1.0  0.452674415  0.6706495849999999  0.5334365036763293  1.0000
  O   O1        1.0  0.49343916499999996  0.6351349249999999  0.5445503229273534  1.0000
  Cu  Cu1       1.0  0.7563443349999999  0.7442503549999999  0.4564319436884243  1.0000
  Cu  Cu2       1.0  0.5063443349999999  0.494250355  0.4757851509522534  1.0000
  Cu  Cu3       1.0  0.03822068499999988  0.9782070049999999  0.515041589823376  1.0000
  Cu  Cu4       1.0  0.26480890499999993  0.24328763499999997  0.49568450882158105  1.0000
  Cu  Cu5       1.0  0.006344334999999899  0.494250355  0.4757851509522534  1.0000
  Cu  Cu6       1.0  0.7539427949999999  0.24212079499999997  0.49567284115998567  1.0000
  Cu  Cu7       1.0  0.25634433499999987  0.7442503549999999  0.4564319436884243  1.0000
  Cu  Cu8       1.0  0.5020306649999999  0.9930609749999999  0.5145161889525776  1.0000
  Se  Se1       1.0  0.2765045450000001  0.974032485  0.4957581841592495  1.0000
  Se  Se2       1.0  0.6636388049999997  0.09253038499999998  0.5305857576672884  1.0000
  Se  Se3       1.0  0.5190330049999998  0.23156168499999996  0.4748028843364758  1.0000
  Se  Se4       1.0  0.7690330049999997  0.48156168499999996  0.45544967707264666  1.0000
  Se  Se5       1.0  0.993655665  0.7569390249999999  0.47676741756803104  1.0000
  Se  Se6       1.0  0.7524099249999999  0.49878848499999995  0.49586118966959053  1.0000
  Se  Se7       1.0  0.24365566499999988  0.006939024999999984  0.45741421030420193  1.0000
  Se  Se8       1.0  0.4114616149999999  0.338783705  0.5147686476706929  1.0000
