data_image0
_chemical_formula_structural       COAu4Ca2Na2
_chemical_formula_sum              "C1 O1 Au4 Ca2 Na2"
_cell_length_a       5.1564394
_cell_length_b       5.1564394
_cell_length_c       99.16922616
_cell_angle_alpha    90.0
_cell_angle_beta     90.0
_cell_angle_gamma    90.0

_space_group_name_H-M_alt    "P 1"
_space_group_IT_number       1

loop_
  _space_group_symop_operation_xyz
  'x, y, z'

loop_
  _atom_site_type_symbol
  _atom_site_label
  _atom_site_symmetry_multiplicity
  _atom_site_fract_x
  _atom_site_fract_y
  _atom_site_fract_z
  _atom_site_occupancy
  C   C1        1.0  0.436438415  0.8156666750000001  0.5333696359863485  1.0000
  O   O1        1.0  0.501070065  0.8803007250000001  0.5440992799772938  1.0000
  Au  Au1       1.0  0.23981369500000002  0.13938832499999998  0.49412777010580167  1.0000
  Au  Au2       1.0  0.760186305  0.6190357249999999  0.49412714065504965  1.0000
  Au  Au3       1.0  0.740485685  0.619699275  0.45590072002270615  1.0000
  Au  Au4       1.0  0.24048568500000003  0.11969927499999998  0.45590072002270615  1.0000
  Ca  Ca1       1.0  0.263241115  0.642436935  0.5106267302636714  1.0000
  Ca  Ca2       1.0  0.740485685  0.11969927499999998  0.4742842116117061  1.0000
  Na  Na1       1.0  0.747000125  0.126192375  0.5121795735034389  1.0000
  Na  Na2       1.0  0.24048568500000003  0.619699275  0.4742842116117061  1.0000
