data_image0
_chemical_formula_structural       COCo4Rh8Sn4
_chemical_formula_sum              "C1 O1 Co4 Rh8 Sn4"
_cell_length_a       4.600758092284141
_cell_length_b       4.6007581
_cell_length_c       104.64984724
_cell_angle_alpha    90.0
_cell_angle_beta     90.0
_cell_angle_gamma    102.25180066493417

_space_group_name_H-M_alt    "P 1"
_space_group_IT_number       1

loop_
  _space_group_symop_operation_xyz
  'x, y, z'

loop_
  _atom_site_type_symbol
  _atom_site_label
  _atom_site_symmetry_multiplicity
  _atom_site_fract_x
  _atom_site_fract_y
  _atom_site_fract_z
  _atom_site_occupancy
  C   C1        1.0  0.8875848999999999  0.42039181499999995  0.5489430253685539  1.0000
  O   O1        1.0  0.9287475  0.38710818499999994  0.5600143448268305  1.0000
  Co  Co1       1.0  0.07407090999999999  0.24466229499999997  0.522943361137205  1.0000
  Co  Co2       1.0  0.5724494299999999  0.754188675  0.49516944003102403  1.0000
  Co  Co3       1.0  0.07244943  0.254188675  0.4675775492576103  1.0000
  Co  Co4       1.0  0.5724494299999999  0.754188675  0.4399856551731696  1.0000
  Rh  Rh1       1.0  0.5803421999999999  0.25802116499999994  0.5356036755751697  1.0000
  Rh  Rh2       1.0  0.07322358999999999  0.753935495  0.5085034590708976  1.0000
  Rh  Rh3       1.0  0.0712525  0.731096275  0.5357613135718419  1.0000
  Rh  Rh4       1.0  0.57110611  0.2563667649999999  0.5084390695283376  1.0000
  Rh  Rh5       1.0  0.5724494299999999  0.2541886749999999  0.48137349298880366  1.0000
  Rh  Rh6       1.0  0.07244943  0.754188675  0.45378160221538993  1.0000
  Rh  Rh7       1.0  0.07244943  0.754188675  0.48137349298880366  1.0000
  Rh  Rh8       1.0  0.5724494299999999  0.2541886749999999  0.45378160221538993  1.0000
  Sn  Sn1       1.0  0.07244943  0.254188675  0.49516944003102403  1.0000
  Sn  Sn2       1.0  0.57740371  0.755337705  0.5228875173553971  1.0000
  Sn  Sn3       1.0  0.07244943  0.254188675  0.4399856551731696  1.0000
  Sn  Sn4       1.0  0.5724494299999999  0.754188675  0.4675775492576103  1.0000
