data_image0
_chemical_formula_structural       COIn24Ir8
_chemical_formula_sum              "C1 O1 In24 Ir8"
_cell_length_a       5.5107907
_cell_length_b       11.373207391030524
_cell_length_c       104.11962216
_cell_angle_alpha    84.20066600903886
_cell_angle_beta     90.0
_cell_angle_gamma    90.0

_space_group_name_H-M_alt    "P 1"
_space_group_IT_number       1

loop_
  _space_group_symop_operation_xyz
  'x, y, z'

loop_
  _atom_site_type_symbol
  _atom_site_label
  _atom_site_symmetry_multiplicity
  _atom_site_fract_x
  _atom_site_fract_y
  _atom_site_fract_z
  _atom_site_occupancy
  C   C1        1.0  0.018246589999999965  0.7964294449999998  0.5512936589402103  1.0000
  O   O1        1.0  0.06479733999999997  0.7845445249999999  0.5623893891901879  1.0000
  In  In1       1.0  0.40468247  0.38656927500000005  0.43761061080981234  1.0000
  In  In2       1.0  0.40468247  0.8865692749999999  0.4922266734605857  1.0000
  In  In3       1.0  0.97296825  0.37128239500000004  0.5271159193288548  1.0000
  In  In4       1.0  0.94613954  0.8647031449999999  0.47341784890236227  1.0000
  In  In5       1.0  0.17804981  0.44251180500000004  0.4983373947850169  1.0000
  In  In6       1.0  0.17804981  0.942511805  0.4437213321342434  1.0000
  In  In7       1.0  0.13659273999999996  0.634975545  0.443895420830461  1.0000
  In  In8       1.0  0.13659273999999996  0.134975545  0.4985114802042706  1.0000
  In  In9       1.0  0.90468247  0.5571668849999999  0.4735919343216161  1.0000
  In  In10      1.0  0.9404496  0.057488195  0.5288472998193556  1.0000
  In  In11      1.0  0.6365927400000001  0.614703145  0.5007258785892671  1.0000
  In  In12      1.0  0.6365927400000001  0.114703145  0.4461098159384937  1.0000
  In  In13      1.0  0.6886133000000001  0.6124528349999999  0.5335290683555961  1.0000
  In  In14      1.0  0.6780498100000001  0.113109415  0.47970265564604714  1.0000
  In  In15      1.0  0.44613954  0.384975545  0.47120345051736584  1.0000
  In  In16      1.0  0.44796676  0.8870396549999999  0.5278123199912168  1.0000
  In  In17      1.0  0.18770188999999998  0.643821545  0.5195316817869651  1.0000
  In  In18      1.0  0.17804981  0.136569275  0.4649186437736808  1.0000
  In  In19      1.0  0.43264402  0.19822306500000003  0.5264860344755438  1.0000
  In  In20      1.0  0.40468247  0.6925118050000001  0.471029365098112  1.0000
  In  In21      1.0  0.90468247  0.363109415  0.45239462595914237  1.0000
  In  In22      1.0  0.8981937  0.8648200549999998  0.5066185441956047  1.0000
  In  In23      1.0  0.6780498100000001  0.8071668849999999  0.44628390463471124  1.0000
  In  In24      1.0  0.6780498100000001  0.307166885  0.5008999640085209  1.0000
  Ir  Ir1       1.0  0.60097887  0.561469765  0.45192461105658266  1.0000
  Ir  Ir2       1.0  0.6028633800000001  0.062687955  0.5062941641135118  1.0000
  Ir  Ir3       1.0  0.48301156  0.442202805  0.5203673796220106  1.0000
  Ir  Ir4       1.0  0.48175341  0.938208925  0.4653886553992769  1.0000
  Ir  Ir5       1.0  0.10097886999999996  0.188208925  0.43808062571237205  1.0000
  Ir  Ir6       1.0  0.10097886999999996  0.6882089250000001  0.4926966850861817  1.0000
  Ir  Ir7       1.0  0.9564132999999999  0.8120686949999999  0.5334741300592745  1.0000
  Ir  Ir8       1.0  0.9817534100000002  0.31146976500000007  0.4792326440204511  1.0000
