data_image0
_chemical_formula_structural       COV3Si6V3Si6
_chemical_formula_sum              "C1 O1 V6 Si12"
_cell_length_a       4.582751873659919
_cell_length_b       6.39700944
_cell_length_c       106.66201497
_cell_angle_alpha    90.0
_cell_angle_beta     120.0000000457647
_cell_angle_gamma    90.0

_space_group_name_H-M_alt    "P 1"
_space_group_IT_number       1

loop_
  _space_group_symop_operation_xyz
  'x, y, z'

loop_
  _atom_site_type_symbol
  _atom_site_label
  _atom_site_symmetry_multiplicity
  _atom_site_fract_x
  _atom_site_fract_y
  _atom_site_fract_z
  _atom_site_occupancy
  C   C1        1.0  0.4556522250000001  0.46231092  0.5412656627496649  1.0000
  O   O1        1.0  0.6274864450000001  0.53549269  0.552777290479818  1.0000
  V   V1        1.0  0.581420935  0.33839354  0.46870529576486775  1.0000
  V   V2        1.0  0.581420935  0.67172688  0.4472227095201819  1.0000
  V   V3        1.0  0.08142093500000006  0.005060210000000026  0.4472227095201819  1.0000
  Si  Si1       1.0  0.7557371850000002  0.005060210000000026  0.4617087645835673  1.0000
  Si  Si2       1.0  0.9185790650000001  0.67172688  0.47570182350895446  1.0000
  Si  Si3       1.0  0.9185790650000001  0.33839354  0.4547122368394806  1.0000
  Si  Si4       1.0  0.4071046850000001  0.005060210000000026  0.4757018235089544  1.0000
  Si  Si5       1.0  0.24426280500000006  0.67172688  0.46170876458356724  1.0000
  Si  Si6       1.0  0.24426280500000006  0.33839354  0.48269835469025485  1.0000
  V   V4        1.0  0.5659630050000001  0.33797978  0.5103812759118062  1.0000
  V   V5        1.0  0.581420935  0.67172688  0.4901878820095536  1.0000
  V   V6        1.0  0.08142093500000006  0.005060210000000026  0.49018788200955365  1.0000
  Si  Si7       1.0  0.762446015  0.005200640000000026  0.5048778875909253  1.0000
  Si  Si8       1.0  0.891358455  0.67789221  0.518978493498874  1.0000
  Si  Si9       1.0  0.907301405  0.34115537000000007  0.4966625307080878  1.0000
  Si  Si10      1.0  0.46035296500000006  0.99493979  0.5194380971048136  1.0000
  Si  Si11      1.0  0.24186294500000008  0.66994896  0.5050544022683668  1.0000
  Si  Si12      1.0  0.20963900500000004  0.32112051  0.5239070353095575  1.0000
