data_image0
_chemical_formula_structural       CONa36Zn6Sn12
_chemical_formula_sum              "C1 O1 Na36 Zn6 Sn12"
_cell_length_a       9.559007582020167
_cell_length_b       15.186421797934601
_cell_length_c       105.11750298999999
_cell_angle_alpha    104.1393265781079
_cell_angle_beta     96.91935557879954
_cell_angle_gamma    84.67177503419904

_space_group_name_H-M_alt    "P 1"
_space_group_IT_number       1

loop_
  _space_group_symop_operation_xyz
  'x, y, z'

loop_
  _atom_site_type_symbol
  _atom_site_label
  _atom_site_symmetry_multiplicity
  _atom_site_fract_x
  _atom_site_fract_y
  _atom_site_fract_z
  _atom_site_occupancy
  C   C1        1.0  0.6758234599999999  0.67427927  0.5555897052511632  1.0000
  O   O1        1.0  0.6183885900000001  0.6439083999999999  0.5630332426104366  1.0000
  Na  Na1       1.0  0.27917314  0.8580135799999999  0.46106947911408147  1.0000
  Na  Na2       1.0  0.25925138999999997  0.50226644  0.5347439420379441  1.0000
  Na  Na3       1.0  0.27917314  0.19134691  0.4981893176439066  1.0000
  Na  Na4       1.0  0.59469309  0.956928  0.4390393539881572  1.0000
  Na  Na5       1.0  0.59469309  0.62359467  0.5132790343885931  1.0000
  Na  Na6       1.0  0.59469309  0.29026133  0.4761591958587679  1.0000
  Na  Na7       1.0  0.9336384499999999  0.91713392  0.4479022541346389  1.0000
  Na  Na8       1.0  0.9400055599999999  0.57953257  0.5207177777206724  1.0000
  Na  Na9       1.0  0.9336384499999999  0.25046726  0.4850220926644642  1.0000
  Na  Na10      1.0  0.43402206000000004  0.7373962999999999  0.5396641239741036  1.0000
  Na  Na11      1.0  0.41292261  0.40594859  0.506073197258508  1.0000
  Na  Na12      1.0  0.41292261  0.07261526  0.46895335872868277  1.0000
  Na  Na13      1.0  0.69792078  0.8687970899999999  0.5233267107051822  1.0000
  Na  Na14      1.0  0.7284425600000001  0.50486301  0.48404307547336917  1.0000
  Na  Na15      1.0  0.7284425600000002  0.17152968000000002  0.4469232336027584  1.0000
  Na  Na16      1.0  0.06607448999999994  0.78992722  0.5376782241000488  1.0000
  Na  Na17      1.0  0.07397725  0.44574267  0.49721030045281167  1.0000
  Na  Na18      1.0  0.07397724999999998  0.11240934  0.4600904619229864  1.0000
  Na  Na19      1.0  0.27917314  0.5246802500000001  0.4796294000493868  1.0000
  Na  Na20      1.0  0.27917314  0.19134691  0.4425095615195615  1.0000
  Na  Na21      1.0  0.25229723  0.8596835399999999  0.516025614417319  1.0000
  Na  Na22      1.0  0.59469309  0.62359467  0.45759927492346253  1.0000
  Na  Na23      1.0  0.59381902  0.28212167  0.5300197172161367  1.0000
  Na  Na24      1.0  0.59469309  0.956928  0.49471911345328773  1.0000
  Na  Na25      1.0  0.9336384499999999  0.5838005900000001  0.46646217506994436  1.0000
  Na  Na26      1.0  0.99785933  0.22747900000000001  0.543250784606505  1.0000
  Na  Na27      1.0  0.9336384499999999  0.91713392  0.5035820135997695  1.0000
  Na  Na28      1.0  0.41292261  0.7392819300000001  0.4875132796639881  1.0000
  Na  Na29      1.0  0.41292261  0.40594859  0.4503934411341628  1.0000
  Na  Na30      1.0  0.42013093  0.08514432  0.5251943601356402  1.0000
  Na  Na31      1.0  0.7284425600000001  0.8381963499999999  0.4654831545380639  1.0000
  Na  Na32      1.0  0.74113321  0.50401728  0.5384717976287638  1.0000
  Na  Na33      1.0  0.7284425600000002  0.17152968000000002  0.5026029930678889  1.0000
  Na  Na34      1.0  0.07397724999999998  0.7790759999999999  0.4786503795175063  1.0000
  Na  Na35      1.0  0.07397725  0.44574267  0.44153054098768113  1.0000
  Na  Na36      1.0  0.06549156999999996  0.11395893000000001  0.5144438493653314  1.0000
  Zn  Zn1       1.0  0.0038078499999999707  0.6814383  0.5003961570262906  1.0000
  Zn  Zn2       1.0  0.0038078499999999707  0.34810495999999996  0.46327631849646544  1.0000
  Zn  Zn3       1.0  0.002866569999999972  0.98522837  0.5341897892429505  1.0000
  Zn  Zn4       1.0  0.0038078499999999707  0.6814383  0.44471639756116005  1.0000
  Zn  Zn5       1.0  0.002140669999999973  0.34395273  0.519196497590182  1.0000
  Zn  Zn6       1.0  0.003807849999999969  0.014771630000000001  0.48183623609098525  1.0000
  Sn  Sn1       1.0  0.25444028999999996  0.96623389  0.4369667573895636  1.0000
  Sn  Sn2       1.0  0.25444028999999996  0.63290055  0.5112064344492141  1.0000
  Sn  Sn3       1.0  0.25444028999999996  0.29956722  0.47408659591938884  1.0000
  Sn  Sn4       1.0  0.77007734  0.72709333  0.5423289516408322  1.0000
  Sn  Sn5       1.0  0.7531754100000001  0.39664270999999995  0.508145797197887  1.0000
  Sn  Sn6       1.0  0.7531754100000001  0.06330937  0.4710259586680618  1.0000
  Sn  Sn7       1.0  0.25444028999999996  0.63290055  0.45552667832486904  1.0000
  Sn  Sn8       1.0  0.25212661999999997  0.29174311999999997  0.5293643285981035  1.0000
  Sn  Sn9       1.0  0.25444028999999996  0.96623389  0.4926465168546942  1.0000
  Sn  Sn10      1.0  0.7531754100000001  0.72997604  0.48958587626258165  1.0000
  Sn  Sn11      1.0  0.7531754100000001  0.39664270999999995  0.4524660377327564  1.0000
  Sn  Sn12      1.0  0.76471093  0.07775484  0.5266617266697139  1.0000
