data_image0
_chemical_formula_structural       COCa4In2Na2
_chemical_formula_sum              "C1 O1 Ca4 In2 Na2"
_cell_length_a       5.70475378
_cell_length_b       5.70475378
_cell_length_c       102.27096068
_cell_angle_alpha    90.0
_cell_angle_beta     90.0
_cell_angle_gamma    90.0

_space_group_name_H-M_alt    "P 1"
_space_group_IT_number       1

loop_
  _space_group_symop_operation_xyz
  'x, y, z'

loop_
  _atom_site_type_symbol
  _atom_site_label
  _atom_site_symmetry_multiplicity
  _atom_site_fract_x
  _atom_site_fract_y
  _atom_site_fract_z
  _atom_site_occupancy
  C   C1        1.0  0.7499965300000001  0.6615974350000001  0.5275173887953925  1.0000
  O   O1        1.0  0.74999055  0.650091065  0.5392212213850471  1.0000
  Ca  Ca1       1.0  0.7500014400000001  0.7337272150000002  0.4607787786149528  1.0000
  Ca  Ca2       1.0  0.25000144  0.23372721500000002  0.4607787786149528  1.0000
  Ca  Ca3       1.0  0.24999708  0.23534438500000004  0.49998334875722533  1.0000
  Ca  Ca4       1.0  0.7500016000000002  0.715425165  0.5028949938409236  1.0000
  In  In1       1.0  0.25000144  0.7337272150000002  0.48050026190883594  1.0000
  In  In2       1.0  0.7500029199999999  0.20862674500000003  0.5163692255635889  1.0000
  Na  Na1       1.0  0.7500014400000001  0.23372721500000002  0.48050026190883594  1.0000
  Na  Na2       1.0  0.24999832000000002  0.791373255  0.5264191766989706  1.0000
