data_image0
_chemical_formula_structural       COCa4In2Na2
_chemical_formula_sum              "C1 O1 Ca4 In2 Na2"
_cell_length_a       5.70475378
_cell_length_b       5.70475378
_cell_length_c       102.27096068
_cell_angle_alpha    90.0
_cell_angle_beta     90.0
_cell_angle_gamma    90.0

_space_group_name_H-M_alt    "P 1"
_space_group_IT_number       1

loop_
  _space_group_symop_operation_xyz
  'x, y, z'

loop_
  _atom_site_type_symbol
  _atom_site_label
  _atom_site_symmetry_multiplicity
  _atom_site_fract_x
  _atom_site_fract_y
  _atom_site_fract_z
  _atom_site_occupancy
  C   C1        1.0  5.900000000017311e-07  0.21636703999999998  0.5385169940378399  1.0000
  O   O1        1.0  0.9999994100000001  0.04554438  0.5446768179070379  1.0000
  Ca  Ca1       1.0  0.50000224  0.50773294  0.455323182092962  1.0000
  Ca  Ca2       1.0  2.240000000001731e-06  0.007732940000000001  0.455323182092962  1.0000
  Ca  Ca3       1.0  1.1540000000001731e-05  0.01737338  0.49511735201066304  1.0000
  Ca  Ca4       1.0  0.4999989400000001  0.5077461  0.495073718623305  1.0000
  In  In1       1.0  2.240000000001731e-06  0.50773294  0.4750446653868451  1.0000
  In  In2       1.0  0.50000537  0.9922670600000002  0.5112234425001143  1.0000
  Na  Na1       1.0  0.50000224  0.007732940000000001  0.4750446653868451  1.0000
  Na  Na2       1.0  1.2100000000017312e-06  0.5667667900000001  0.5213912113544125  1.0000
