data_image0
_chemical_formula_structural       COCa4In2Na2
_chemical_formula_sum              "C1 O1 Ca4 In2 Na2"
_cell_length_a       5.70475378
_cell_length_b       5.70475378
_cell_length_c       102.27096068
_cell_angle_alpha    90.0
_cell_angle_beta     90.0
_cell_angle_gamma    90.0

_space_group_name_H-M_alt    "P 1"
_space_group_IT_number       1

loop_
  _space_group_symop_operation_xyz
  'x, y, z'

loop_
  _atom_site_type_symbol
  _atom_site_label
  _atom_site_symmetry_multiplicity
  _atom_site_fract_x
  _atom_site_fract_y
  _atom_site_fract_z
  _atom_site_occupancy
  C   C1        1.0  0.49999936500000003  0.9999992300000001  0.533490006878853  1.0000
  O   O1        1.0  0.49999472500000003  0.99999764  0.5450110260515294  1.0000
  Ca  Ca1       1.0  0.500002185  0.50000095  0.45498897394847054  1.0000
  Ca  Ca2       1.0  2.1849999999883696e-06  9.499999999941754e-07  0.45498897394847054  1.0000
  Ca  Ca3       1.0  5.81499999998837e-06  7.699999999941753e-07  0.4951193525579283  1.0000
  Ca  Ca4       1.0  0.500003645  0.50000166  0.4951192831383071  1.0000
  In  In1       1.0  2.1849999999883696e-06  0.50000095  0.4747104572423536  1.0000
  In  In2       1.0  0.5000013750000001  4.949999999994176e-06  0.51130857304376  1.0000
  Na  Na1       1.0  0.500002185  9.499999999941754e-07  0.4747104572423536  1.0000
  Na  Na2       1.0  0.999997815  0.49999901  0.5207295540121839  1.0000
