data_image0
_chemical_formula_structural       COCa4In2Na2
_chemical_formula_sum              "C1 O1 Ca4 In2 Na2"
_cell_length_a       5.70475378
_cell_length_b       5.70475378
_cell_length_c       102.27096068
_cell_angle_alpha    90.0
_cell_angle_beta     90.0
_cell_angle_gamma    90.0

_space_group_name_H-M_alt    "P 1"
_space_group_IT_number       1

loop_
  _space_group_symop_operation_xyz
  'x, y, z'

loop_
  _atom_site_type_symbol
  _atom_site_label
  _atom_site_symmetry_multiplicity
  _atom_site_fract_x
  _atom_site_fract_y
  _atom_site_fract_z
  _atom_site_occupancy
  C   C1        1.0  0.49999985  0.75000014  0.5325789264153915  1.0000
  O   O1        1.0  0.49999976000000007  0.74999994  0.5441071557623602  1.0000
  Ca  Ca1       1.0  0.49999977000000007  0.25000016999999997  0.5155326544417304  1.0000
  Ca  Ca2       1.0  0.9999998600000001  0.7499999300000001  0.5155325724003599  1.0000
  Ca  Ca3       1.0  2.0000000001674902e-08  0.74999986  0.47561432753152294  1.0000
  Ca  Ca4       1.0  0.50000002  0.24999986000000002  0.47561432753152294  1.0000
  In  In1       1.0  0.49999997  0.7499999500000001  0.4941650394476494  1.0000
  In  In2       1.0  2.0000000001674902e-08  0.24999986000000002  0.4558928442376398  1.0000
  Na  Na1       1.0  0.9999999800000001  0.25000003000000004  0.4955537789696447  1.0000
  Na  Na2       1.0  0.50000002  0.74999986  0.4558928442376398  1.0000
