data_image0
_chemical_formula_structural       CONb4Pd8
_chemical_formula_sum              "C1 O1 Nb4 Pd8"
_cell_length_a       4.893702463366435
_cell_length_b       4.9278980045409835
_cell_length_c       98.80685183
_cell_angle_alpha    88.41844570683652
_cell_angle_beta     86.28693663418619
_cell_angle_gamma    98.40339042450036

_space_group_name_H-M_alt    "P 1"
_space_group_IT_number       1

loop_
  _space_group_symop_operation_xyz
  'x, y, z'

loop_
  _atom_site_type_symbol
  _atom_site_label
  _atom_site_symmetry_multiplicity
  _atom_site_fract_x
  _atom_site_fract_y
  _atom_site_fract_z
  _atom_site_occupancy
  C   C1        1.0  0.9733284799999999  0.7072275000000001  0.5381562116295432  1.0000
  O   O1        1.0  0.9976444199999999  0.6840696199999999  0.5499776946380135  1.0000
  Nb  Nb1       1.0  0.1222122799999999  0.39303803  0.4777445751801523  1.0000
  Nb  Nb2       1.0  0.7650694199999999  0.17875232000000002  0.4569197822198523  1.0000
  Nb  Nb3       1.0  0.8513422599999999  0.83343717  0.5183728686684963  1.0000
  Nb  Nb4       1.0  0.4671740399999999  0.6027588899999999  0.4985891000486726  1.0000
  Pd  Pd1       1.0  0.21775303999999987  0.9185122099999999  0.4638172590777179  1.0000
  Pd  Pd2       1.0  0.5748958999999999  0.13279793  0.48464205495348894  1.0000
  Pd  Pd3       1.0  0.31238580999999993  0.43899242000000005  0.45002230536198656  1.0000
  Pd  Pd4       1.0  0.6695286599999999  0.65327814  0.47084709832228655  1.0000
  Pd  Pd5       1.0  0.9217124599999998  0.35096740000000004  0.5063104832007556  1.0000
  Pd  Pd6       1.0  0.3075812999999999  0.55960127  0.5260609075779202  1.0000
  Pd  Pd7       1.0  0.02667152000000006  0.8675638500000001  0.4916718912825864  1.0000
  Pd  Pd8       1.0  0.38675195999999995  0.08148779000000002  0.512467570348754  1.0000
