data_image0
_chemical_formula_structural       COPt8Zn8
_chemical_formula_sum              "C1 O1 Pt8 Zn8"
_cell_length_a       4.5983930129943555
_cell_length_b       5.4344977005722095
_cell_length_c       104.10833342000001
_cell_angle_alpha    88.8646780687148
_cell_angle_beta     88.65821285417192
_cell_angle_gamma    79.93325969923681

_space_group_name_H-M_alt    "P 1"
_space_group_IT_number       1

loop_
  _space_group_symop_operation_xyz
  'x, y, z'

loop_
  _atom_site_type_symbol
  _atom_site_label
  _atom_site_symmetry_multiplicity
  _atom_site_fract_x
  _atom_site_fract_y
  _atom_site_fract_z
  _atom_site_occupancy
  C   C1        1.0  0.9828100799999999  0.38832526500000003  0.5445480689046525  1.0000
  O   O1        1.0  0.0203733399999999  0.39089854500000004  0.5556162577637125  1.0000
  Pt  Pt1       1.0  0.54434936  0.46428571500000004  0.4911870941148563  1.0000
  Pt  Pt2       1.0  0.94415808  0.378304305  0.5266058187299183  1.0000
  Pt  Pt3       1.0  0.4823274699999999  0.757842235  0.5142389730280088  1.0000
  Pt  Pt4       1.0  0.008172130000000166  0.117730295  0.5030660986416747  1.0000
  Pt  Pt5       1.0  0.6872065  0.8928571449999999  0.4443837422362875  1.0000
  Pt  Pt6       1.0  0.08006363999999995  0.8214285749999999  0.4794862577833314  1.0000
  Pt  Pt7       1.0  0.6157779299999998  0.17857143500000003  0.46778541817557195  1.0000
  Pt  Pt8       1.0  0.15149220999999993  0.5357142850000001  0.4560845818440471  1.0000
  Zn  Zn1       1.0  0.47354919999999995  0.252614285  0.5160810753012272  1.0000
  Zn  Zn2       1.0  0.01718991999999986  0.611029005  0.5029964524444854  1.0000
  Zn  Zn3       1.0  0.54434936  0.9642857149999999  0.4911870941148563  1.0000
  Zn  Zn4       1.0  0.9502127899999999  0.8819565149999999  0.5258321162488078  1.0000
  Zn  Zn5       1.0  0.6157779299999999  0.6785714350000001  0.46778541817557184  1.0000
  Zn  Zn6       1.0  0.15149220999999993  0.03571428500000002  0.4560845818440471  1.0000
  Zn  Zn7       1.0  0.6872064999999999  0.392857145  0.44438374223628757  1.0000
  Zn  Zn8       1.0  0.08006363999999992  0.321428575  0.4794862577833314  1.0000
