data_image0
_chemical_formula_structural       COSb8Pt4Sb8Pt4
_chemical_formula_sum              "C1 O1 Sb16 Pt8"
_cell_length_a       6.58755742
_cell_length_b       6.58755742
_cell_length_c       109.52534452
_cell_angle_alpha    90.0
_cell_angle_beta     90.0
_cell_angle_gamma    90.0

_space_group_name_H-M_alt    "P 1"
_space_group_IT_number       1

loop_
  _space_group_symop_operation_xyz
  'x, y, z'

loop_
  _atom_site_type_symbol
  _atom_site_label
  _atom_site_symmetry_multiplicity
  _atom_site_fract_x
  _atom_site_fract_y
  _atom_site_fract_z
  _atom_site_occupancy
  C   C1        1.0  0.71742397  0.48783772  0.5586459446789731  1.0000
  O   O1        1.0  0.79942075  0.4902613899999999  0.5680612905956673  1.0000
  Sb  Sb1       1.0  0.18796789999999997  0.8961502600000001  0.4469411874346103  1.0000
  Sb  Sb2       1.0  0.9374005200000001  0.39615026  0.4319387094043326  1.0000
  Sb  Sb3       1.0  0.43740052  0.14671763999999998  0.47701440005893425  1.0000
  Sb  Sb4       1.0  0.6879679  0.64671764  0.4620119184198714  1.0000
  Sb  Sb5       1.0  0.43740052  0.39615026  0.4469411874346103  1.0000
  Sb  Sb6       1.0  0.6879679  0.8961502600000001  0.4319387094043326  1.0000
  Sb  Sb7       1.0  0.18796789999999997  0.64671764  0.47701440005893425  1.0000
  Sb  Sb8       1.0  0.9374005200000001  0.14671763999999998  0.4620119184198714  1.0000
  Pt  Pt1       1.0  0.56268421  0.5214339499999999  0.4845497637471722  1.0000
  Pt  Pt2       1.0  0.56268421  0.02143394999999997  0.45447655473163345  1.0000
  Pt  Pt3       1.0  0.06268420999999999  0.5214339499999999  0.45447655473163345  1.0000
  Pt  Pt4       1.0  0.06268420999999999  0.02143394999999997  0.4845497637471722  1.0000
  Sb  Sb9       1.0  0.18796789999999997  0.8961502600000001  0.507087609074473  1.0000
  Sb  Sb10      1.0  0.9374005200000001  0.39615026  0.4920851310441953  1.0000
  Sb  Sb11      1.0  0.47413656000000004  0.10188836999999996  0.5386223688890588  1.0000
  Sb  Sb12      1.0  0.68046999  0.65043559  0.5226527111566587  1.0000
  Sb  Sb13      1.0  0.43740052  0.39615026  0.507087609074473  1.0000
  Sb  Sb14      1.0  0.6879679  0.8961502600000001  0.4920851310441953  1.0000
  Sb  Sb15      1.0  0.17780615000000002  0.5911938  0.5378047083764289  1.0000
  Sb  Sb16      1.0  0.93974534  0.14874014  0.5221805016098083  1.0000
  Pt  Pt5       1.0  0.54695753  0.50374763  0.5443714849363062  1.0000
  Pt  Pt6       1.0  0.5621506  0.02294579999999997  0.514896118107698  1.0000
  Pt  Pt7       1.0  0.06025465999999998  0.52170695  0.5147942060129097  1.0000
  Pt  Pt8       1.0  0.10801116999999999  0.9785660500000001  0.5413221732924955  1.0000
