data_image0
_chemical_formula_structural       COCu3Rh6Sn3Cu3Rh6Sn3Cu3Rh6Sn3Cu3Rh6Sn3
_chemical_formula_sum              "C1 O1 Cu12 Rh24 Sn12"
_cell_length_a       8.84829456941573
_cell_length_b       8.84829456
_cell_length_c       102.51071017000001
_cell_angle_alpha    90.0
_cell_angle_beta     90.0
_cell_angle_gamma    119.99999996479889

_space_group_name_H-M_alt    "P 1"
_space_group_IT_number       1

loop_
  _space_group_symop_operation_xyz
  'x, y, z'

loop_
  _atom_site_type_symbol
  _atom_site_label
  _atom_site_symmetry_multiplicity
  _atom_site_fract_x
  _atom_site_fract_y
  _atom_site_fract_z
  _atom_site_occupancy
  C   C1        1.0  0.308475895  0.36560057500000004  0.5480932494137352  1.0000
  O   O1        1.0  0.296562455  0.3780907750000001  0.5597034473307442  1.0000
  Cu  Cu1       1.0  0.08467177500000002  0.08791812500000001  0.51120655381244  1.0000
  Cu  Cu2       1.0  0.25183452500000003  0.421336765  0.44029655266925577  1.0000
  Cu  Cu3       1.0  0.418501185  0.25467010500000004  0.4755348325317841  1.0000
  Rh  Rh1       1.0  0.25183452500000003  0.421336765  0.4667252617732907  1.0000
  Rh  Rh2       1.0  0.418501185  0.25467010500000004  0.5019635416358191  1.0000
  Rh  Rh3       1.0  0.13615797500000004  0.15418998500000003  0.5373833137939147  1.0000
  Rh  Rh4       1.0  0.08516785500000001  0.08800343500000003  0.48434440329027745  1.0000
  Rh  Rh5       1.0  0.25003814500000004  0.42338061500000007  0.5187553260383195  1.0000
  Rh  Rh6       1.0  0.418501185  0.25467010500000004  0.4491061202563039  1.0000
  Sn  Sn1       1.0  0.25183452500000003  0.421336765  0.4931539708773257  1.0000
  Sn  Sn2       1.0  0.4357730550000001  0.23757651500000002  0.5274598521882579  1.0000
  Sn  Sn3       1.0  0.08516785500000001  0.08800343500000003  0.45791569101479734  1.0000
  Cu  Cu4       1.0  0.08538644500000002  0.5880179849999999  0.510319139039835  1.0000
  Cu  Cu5       1.0  0.25183452500000003  0.9213367650000001  0.44029655266925577  1.0000
  Cu  Cu6       1.0  0.418501185  0.7546701050000001  0.4755348325317841  1.0000
  Rh  Rh7       1.0  0.25183452500000003  0.9213367650000001  0.4667252617732907  1.0000
  Rh  Rh8       1.0  0.418501185  0.7546701050000001  0.5019635416358191  1.0000
  Rh  Rh9       1.0  0.07955316500000002  0.5935209149999999  0.5352863161575431  1.0000
  Rh  Rh10      1.0  0.08516785500000001  0.5880034350000001  0.48434440329027745  1.0000
  Rh  Rh11      1.0  0.24235255500000005  0.9133825750000001  0.5193356148844381  1.0000
  Rh  Rh12      1.0  0.418501185  0.7546701050000001  0.4491061202563039  1.0000
  Sn  Sn4       1.0  0.25183452500000003  0.9213367650000001  0.4931539708773257  1.0000
  Sn  Sn5       1.0  0.41421430500000006  0.752823105  0.5288487580790617  1.0000
  Sn  Sn6       1.0  0.08516785500000001  0.5880034350000001  0.45791569101479734  1.0000
  Cu  Cu7       1.0  0.587063345  0.08619344500000008  0.5105844716612208  1.0000
  Cu  Cu8       1.0  0.7518345250000001  0.4213367650000001  0.44029655266925577  1.0000
  Cu  Cu9       1.0  0.9185011850000001  0.25467010500000004  0.4755348325317841  1.0000
  Rh  Rh13      1.0  0.7518345250000001  0.4213367650000001  0.4667252617732907  1.0000
  Rh  Rh14      1.0  0.9185011850000001  0.25467010500000004  0.5019635416358191  1.0000
  Rh  Rh15      1.0  0.5944967650000001  0.07866323500000004  0.5357618267965052  1.0000
  Rh  Rh16      1.0  0.5851678550000001  0.08800343500000006  0.48434440329027745  1.0000
  Rh  Rh17      1.0  0.7599716050000002  0.43093853500000007  0.5193326020114799  1.0000
  Rh  Rh18      1.0  0.9185011850000001  0.25467010500000004  0.4491061202563039  1.0000
  Sn  Sn7       1.0  0.7518345250000001  0.4213367650000001  0.4931539708773257  1.0000
  Sn  Sn8       1.0  0.920446835  0.258861085  0.5288418950716071  1.0000
  Sn  Sn9       1.0  0.5851678550000001  0.08800343500000006  0.45791569101479734  1.0000
  Cu  Cu10      1.0  0.585443055  0.5885076150000002  0.5111898054102366  1.0000
  Cu  Cu11      1.0  0.7518345250000001  0.9213367650000002  0.44029655266925577  1.0000
  Cu  Cu12      1.0  0.9185011850000001  0.754670105  0.4755348325317841  1.0000
  Rh  Rh19      1.0  0.7518345250000001  0.9213367650000002  0.4667252617732907  1.0000
  Rh  Rh20      1.0  0.9185011850000001  0.754670105  0.5019635416358191  1.0000
  Rh  Rh21      1.0  0.5199441250000001  0.5377459850000001  0.5373457226537297  1.0000
  Rh  Rh22      1.0  0.5851678550000001  0.588003435  0.48434440329027745  1.0000
  Rh  Rh23      1.0  0.7538203850000001  0.9192774650000001  0.5196952472579759  1.0000
  Rh  Rh24      1.0  0.9185011850000001  0.754670105  0.4491061202563039  1.0000
  Sn  Sn10      1.0  0.7518345250000001  0.9213367650000002  0.4931539708773257  1.0000
  Sn  Sn11      1.0  0.9120507050000001  0.7613381050000002  0.5296035271553676  1.0000
  Sn  Sn12      1.0  0.5851678550000001  0.588003435  0.45791569101479734  1.0000
