data_image0
_chemical_formula_structural       COMn6As6Mn6As6Mn6As6
_chemical_formula_sum              "C1 O1 Mn18 As18"
_cell_length_a       9.37923125095872
_cell_length_b       5.33302626
_cell_length_c       101.90514578
_cell_angle_alpha    90.0
_cell_angle_beta     100.89339465846135
_cell_angle_gamma    90.0

_space_group_name_H-M_alt    "P 1"
_space_group_IT_number       1

loop_
  _space_group_symop_operation_xyz
  'x, y, z'

loop_
  _atom_site_type_symbol
  _atom_site_label
  _atom_site_symmetry_multiplicity
  _atom_site_fract_x
  _atom_site_fract_y
  _atom_site_fract_z
  _atom_site_occupancy
  C   C1        1.0  0.41444838000000006  0.7538263999999999  0.5470966460205794  1.0000
  O   O1        1.0  0.39134733  0.8271208  0.5574435884987202  1.0000
  Mn  Mn1       1.0  0.8228198499999999  0.62440957  0.5258263527957193  1.0000
  Mn  Mn2       1.0  0.45527126999999995  0.6278551499999999  0.5318288165638264  1.0000
  Mn  Mn3       1.0  0.1566954  0.6142402299999999  0.5121312329726282  1.0000
  Mn  Mn4       1.0  0.83444577  0.12524632  0.5254236043268924  1.0000
  Mn  Mn5       1.0  0.45244378999999996  0.1247205  0.5301804370057014  1.0000
  Mn  Mn6       1.0  0.1566954  0.11424023  0.5121312329726282  1.0000
  As  As1       1.0  0.96601187  0.37373467  0.5422591653387813  1.0000
  As  As2       1.0  0.606738  0.36497704  0.5199131093444405  1.0000
  As  As3       1.0  0.24346967000000003  0.36601106  0.5326633522928822  1.0000
  As  As4       1.0  0.6787314099999999  0.88575977  0.5375306137815608  1.0000
  As  As5       1.0  0.36171087  0.86427569  0.5131481323116885  1.0000
  As  As6       1.0  0.03398813000000002  0.8590059299999999  0.5255592240926239  1.0000
  Mn  Mn7       1.0  0.8233620599999999  0.6142402299999999  0.4889396237282674  1.0000
  Mn  Mn8       1.0  0.49002873  0.6142402299999999  0.5005354283504478  1.0000
  Mn  Mn9       1.0  0.1566954  0.6142402299999999  0.47734382223695393  1.0000
  Mn  Mn10      1.0  0.8233620599999999  0.11424023  0.4889396237282674  1.0000
  Mn  Mn11      1.0  0.49002873  0.11424023  0.5005354283504478  1.0000
  Mn  Mn12      1.0  0.1566954  0.11424023  0.47734382223695393  1.0000
  As  As7       1.0  0.93447318  0.36424023  0.5082659647652348  1.0000
  As  As8       1.0  0.60113984  0.36424023  0.4850743586517409  1.0000
  As  As9       1.0  0.26780651000000005  0.36424023  0.4966701601430543  1.0000
  As  As10      1.0  0.7122509499999999  0.8642402299999999  0.5044006965578413  1.0000
  As  As11      1.0  0.37891762000000007  0.8642402299999999  0.48120909044434745  1.0000
  As  As12      1.0  0.04558429000000001  0.8642402299999999  0.49280489193566085  1.0000
  Mn  Mn13      1.0  0.8233620599999999  0.6142402299999999  0.45415221299259323  1.0000
  Mn  Mn14      1.0  0.49002873  0.6142402299999999  0.46574801761477364  1.0000
  Mn  Mn15      1.0  0.1566954  0.6142402299999999  0.4425564115012798  1.0000
  Mn  Mn16      1.0  0.8233620599999999  0.11424023  0.45415221299259323  1.0000
  Mn  Mn17      1.0  0.49002873  0.11424023  0.46574801761477364  1.0000
  Mn  Mn18      1.0  0.1566954  0.11424023  0.4425564115012798  1.0000
  As  As13      1.0  0.93447318  0.36424023  0.4734785540295605  1.0000
  As  As14      1.0  0.60113984  0.36424023  0.45028694478519976  1.0000
  As  As15      1.0  0.26780651000000005  0.36424023  0.46188274940738006  1.0000
  As  As16      1.0  0.7122509499999999  0.8642402299999999  0.46961328582216705  1.0000
  As  As17      1.0  0.37891762000000007  0.8642402299999999  0.4464216797086733  1.0000
  As  As18      1.0  0.04558429000000001  0.8642402299999999  0.4580174811999866  1.0000
