data_image0
_chemical_formula_structural       COSb32Rh16
_chemical_formula_sum              "C1 O1 Sb32 Rh16"
_cell_length_a       15.049843236759463
_cell_length_b       12.109228931024694
_cell_length_c       108.20465118
_cell_angle_alpha    92.81505272929711
_cell_angle_beta     91.53541614737213
_cell_angle_gamma    39.33619021247689

_space_group_name_H-M_alt    "P 1"
_space_group_IT_number       1

loop_
  _space_group_symop_operation_xyz
  'x, y, z'

loop_
  _atom_site_type_symbol
  _atom_site_label
  _atom_site_symmetry_multiplicity
  _atom_site_fract_x
  _atom_site_fract_y
  _atom_site_fract_z
  _atom_site_occupancy
  C   C1        1.0  0.9573531049999999  0.13832329000000002  0.5426813266647761  1.0000
  O   O1        1.0  0.9783059749999999  0.10622294000000004  0.5531578698607452  1.0000
  Sb  Sb1       1.0  0.05973219499999997  0.26061941000000005  0.48210523748274964  1.0000
  Sb  Sb2       1.0  0.809732195  0.010619410000000025  0.4600378801860852  1.0000
  Sb  Sb3       1.0  0.569184335  0.7342457600000001  0.5249341753485659  1.0000
  Sb  Sb4       1.0  0.3098456349999999  0.5145497500000001  0.505019370475156  1.0000
  Sb  Sb5       1.0  0.8225373349999999  0.34152346000000006  0.5044208472528356  1.0000
  Sb  Sb6       1.0  0.556730015  0.10832377000000004  0.4818402350024454  1.0000
  Sb  Sb7       1.0  0.30673001499999997  0.85832377  0.45977287770578096  1.0000
  Sb  Sb8       1.0  0.06324378499999993  0.6326656500000001  0.5264327642864166  1.0000
  Sb  Sb9       1.0  0.1694671249999999  0.98938059  0.5168020187609141  1.0000
  Sb  Sb10      1.0  0.918185835  0.7468679500000001  0.4940694524535676  1.0000
  Sb  Sb11      1.0  0.6681858350000001  0.49686795  0.4720020951569032  1.0000
  Sb  Sb12      1.0  0.41818583499999995  0.24686795000000006  0.4499347378602387  1.0000
  Sb  Sb13      1.0  0.4211880149999999  0.89916359  0.4943344549338718  1.0000
  Sb  Sb14      1.0  0.17118801499999994  0.64916359  0.4722670976372073  1.0000
  Sb  Sb15      1.0  0.9211880149999998  0.39916359000000007  0.450199740340543  1.0000
  Sb  Sb16      1.0  0.651115885  0.16973175000000004  0.5169757435898851  1.0000
  Sb  Sb17      1.0  0.07403964499999989  0.34716372000000006  0.5080689592071314  1.0000
  Sb  Sb18      1.0  0.8194529549999999  0.09789160000000004  0.4851978452037333  1.0000
  Sb  Sb19      1.0  0.5694529549999999  0.8478916000000001  0.46313048790706896  1.0000
  Sb  Sb20      1.0  0.3849175349999999  0.53446719  0.5296107285454239  1.0000
  Sb  Sb21      1.0  0.021694024999999943  0.04636681000000003  0.4589148317693205  1.0000
  Sb  Sb22      1.0  0.7928844249999998  0.7770697300000001  0.5239527287501025  1.0000
  Sb  Sb23      1.0  0.5345391249999999  0.53134684  0.5028367746689835  1.0000
  Sb  Sb24      1.0  0.2716940249999999  0.2963668100000001  0.48098218906598494  1.0000
  Sb  Sb25      1.0  0.15846507500000004  0.90959576  0.49097684473258385  1.0000
  Sb  Sb26      1.0  0.9084650749999998  0.6595957599999999  0.46890948743591937  1.0000
  Sb  Sb27      1.0  0.658465075  0.40959576000000003  0.44684213013925506  1.0000
  Sb  Sb28      1.0  0.40217238499999997  0.15267245000000004  0.5124253697766608  1.0000
  Sb  Sb29      1.0  0.2062240049999999  0.21112055000000005  0.45105778627700344  1.0000
  Sb  Sb30      1.0  0.9519834949999999  0.94809601  0.517153415827729  1.0000
  Sb  Sb31      1.0  0.7062240049999999  0.7111205500000001  0.49519250087033223  1.0000
  Sb  Sb32      1.0  0.45622400499999993  0.4611205500000001  0.47312514357366786  1.0000
  Rh  Rh1       1.0  0.814084025  0.54780861  0.5160323905462814  1.0000
  Rh  Rh2       1.0  0.5649939449999999  0.29195724  0.4947524636427282  1.0000
  Rh  Rh3       1.0  0.3149939449999999  0.04195724000000003  0.47268510634606364  1.0000
  Rh  Rh4       1.0  0.06499394499999996  0.79195724  0.4506177490493992  1.0000
  Rh  Rh5       1.0  0.913450235  0.21500397000000004  0.4813757859815054  1.0000
  Rh  Rh6       1.0  0.663450235  0.9650039700000002  0.459308428684841  1.0000
  Rh  Rh7       1.0  0.41543140499999986  0.70602877  0.5234369281060388  1.0000
  Rh  Rh8       1.0  0.16472605499999987  0.46940734000000006  0.5035629707936793  1.0000
  Rh  Rh9       1.0  0.412924085  0.71553012  0.48142222629358905  1.0000
  Rh  Rh10      1.0  0.16292408499999989  0.4655301200000001  0.4593548689969247  1.0000
  Rh  Rh11      1.0  0.919844665  0.18623076000000005  0.5255698600005737  1.0000
  Rh  Rh12      1.0  0.657975275  0.9700538000000001  0.5035162197732048  1.0000
  Rh  Rh13      1.0  0.32102551499999993  0.025787120000000028  0.5163761081727569  1.0000
  Rh  Rh14      1.0  0.06446779499999988  0.79248339  0.4947989039548118  1.0000
  Rh  Rh15      1.0  0.814467795  0.54248339  0.4727315466581474  1.0000
  Rh  Rh16      1.0  0.564467795  0.29248339  0.45066418936148295  1.0000
