data_image0
_chemical_formula_structural       COGaRuGaRuGaRuGaRuGaRuGaRuGaRuGaRuGaRuGaRuGaRuGaRu
_chemical_formula_sum              "C1 O1 Ga12 Ru12"
_cell_length_a       6.08525876
_cell_length_b       6.08525876
_cell_length_c       100.4262938
_cell_angle_alpha    90.0
_cell_angle_beta     90.0
_cell_angle_gamma    90.0

_space_group_name_H-M_alt    "P 1"
_space_group_IT_number       1

loop_
  _space_group_symop_operation_xyz
  'x, y, z'

loop_
  _atom_site_type_symbol
  _atom_site_label
  _atom_site_symmetry_multiplicity
  _atom_site_fract_x
  _atom_site_fract_y
  _atom_site_fract_z
  _atom_site_occupancy
  C   C1        1.0  0.37377809  0.37499652  0.5411860852379862  1.0000
  O   O1        1.0  0.37463861000000004  0.37499675000000005  0.5529225242804051  1.0000
  Ga  Ga1       1.0  0.12889319  0.12994965  0.507693610025596  1.0000
  Ru  Ru1       1.0  0.37317999  0.37500356  0.5225511391366607  1.0000
  Ga  Ga2       1.0  0.12402632999999998  0.12499836999999998  0.4773746146945671  1.0000
  Ru  Ru2       1.0  0.37436913  0.37499942  0.49218210202118695  1.0000
  Ga  Ga3       1.0  0.12402632999999998  0.12499836999999998  0.4470774757195949  1.0000
  Ru  Ru3       1.0  0.3740263300000001  0.37499837  0.462226045207081  1.0000
  Ga  Ga4       1.0  0.12885962  0.6200626  0.5076931161822307  1.0000
  Ru  Ru4       1.0  0.37143133000000006  0.87499786  0.5214767116971913  1.0000
  Ga  Ga5       1.0  0.12402632999999998  0.62499837  0.4773746146945671  1.0000
  Ru  Ru5       1.0  0.37431284000000004  0.8749988100000001  0.49262547035294674  1.0000
  Ga  Ga6       1.0  0.12402632999999998  0.62499837  0.4470774757195949  1.0000
  Ru  Ru6       1.0  0.3740263300000001  0.87499837  0.462226045207081  1.0000
  Ga  Ga7       1.0  0.6185766300000001  0.12911388999999998  0.5078634194301229  1.0000
  Ru  Ru7       1.0  0.87436641  0.37499942  0.5214213406460007  1.0000
  Ga  Ga8       1.0  0.62402633  0.12499836999999998  0.4773746146945671  1.0000
  Ru  Ru8       1.0  0.87337165  0.37499749000000004  0.49265644917754864  1.0000
  Ga  Ga9       1.0  0.62402633  0.12499836999999998  0.4470774757195949  1.0000
  Ru  Ru9       1.0  0.8740263299999999  0.37499837  0.462226045207081  1.0000
  Ga  Ga10      1.0  0.6185751800000001  0.6208779600000001  0.5078634194301229  1.0000
  Ru  Ru10      1.0  0.87597367  0.8750016300000001  0.5206752948067392  1.0000
  Ga  Ga11      1.0  0.62402633  0.62499837  0.4773746146945671  1.0000
  Ru  Ru11      1.0  0.8735298100000001  0.8750006100000002  0.4928617668289542  1.0000
  Ga  Ga12      1.0  0.62402633  0.62499837  0.4470774757195949  1.0000
  Ru  Ru12      1.0  0.8740263299999999  0.87499837  0.462226045207081  1.0000
