data_image0
_chemical_formula_structural       COGa4Ti12
_chemical_formula_sum              "C1 O1 Ga4 Ti12"
_cell_length_a       5.11923511
_cell_length_b       5.1192351073983335
_cell_length_c       103.45934921
_cell_angle_alpha    90.0
_cell_angle_beta     90.0
_cell_angle_gamma    113.99616103319707

_space_group_name_H-M_alt    "P 1"
_space_group_IT_number       1

loop_
  _space_group_symop_operation_xyz
  'x, y, z'

loop_
  _atom_site_type_symbol
  _atom_site_label
  _atom_site_symmetry_multiplicity
  _atom_site_fract_x
  _atom_site_fract_y
  _atom_site_fract_z
  _atom_site_occupancy
  C   C1        1.0  0.25000382000000004  0.7500020000000001  0.5449147387623385  1.0000
  O   O1        1.0  0.25000322  0.7500007000000001  0.5566566671774309  1.0000
  Ga  Ga1       1.0  0.75000035  0.74999834  0.4568185705656998  1.0000
  Ga  Ga2       1.0  0.25000035000000004  0.24999834000000004  0.48376905252007657  1.0000
  Ga  Ga3       1.0  0.74999996  0.74999781  0.5113456415530131  1.0000
  Ga  Ga4       1.0  0.24999956000000004  0.24999800000000005  0.536267735532078  1.0000
  Ti  Ti1       1.0  0.75000035  0.24999834000000004  0.44334333282256905  1.0000
  Ti  Ti2       1.0  0.25000035  0.74999834  0.4702938115428882  1.0000
  Ti  Ti3       1.0  0.25000035  0.74999834  0.44334333282256905  1.0000
  Ti  Ti4       1.0  0.75000035  0.24999834000000004  0.4702938115428882  1.0000
  Ti  Ti5       1.0  0.25000035000000004  0.24999834000000004  0.4568185705656998  1.0000
  Ti  Ti6       1.0  0.75000035  0.74999834  0.48376905252007657  1.0000
  Ti  Ti7       1.0  0.75000035  0.24999834000000004  0.4972442902632073  1.0000
  Ti  Ti8       1.0  0.25000077000000004  0.7499982600000001  0.5251669752016758  1.0000
  Ti  Ti9       1.0  0.25000035  0.74999834  0.4972442902632073  1.0000
  Ti  Ti10      1.0  0.75000025  0.24999833000000002  0.5244182197236111  1.0000
  Ti  Ti11      1.0  0.25000009  0.24999809000000006  0.5100161204836016  1.0000
  Ti  Ti12      1.0  0.75000044  0.74999809  0.5381170957821662  1.0000
