data_image0
_chemical_formula_structural       COMn4Ga4Ni8Mn4Ga4Ni8
_chemical_formula_sum              "C1 O1 Mn8 Ga8 Ni16"
_cell_length_a       5.39351554
_cell_length_b       7.584052327388212
_cell_length_c       107.75460877
_cell_angle_alpha    110.82916066596201
_cell_angle_beta     90.0
_cell_angle_gamma    69.17083933403799

_space_group_name_H-M_alt    "P 1"
_space_group_IT_number       1

loop_
  _space_group_symop_operation_xyz
  'x, y, z'

loop_
  _atom_site_type_symbol
  _atom_site_label
  _atom_site_symmetry_multiplicity
  _atom_site_fract_x
  _atom_site_fract_y
  _atom_site_fract_z
  _atom_site_occupancy
  C   C1        1.0  0.20654949499999994  0.56943621  0.5445480493641586  1.0000
  O   O1        1.0  0.17359837499999994  0.6220207400000001  0.5563843785444244  1.0000
  Mn  Mn1       1.0  0.0004945149999999616  0.004483519999999991  0.46238575485392136  1.0000
  Mn  Mn2       1.0  0.500494515  0.004483519999999991  0.48741259821712946  1.0000
  Mn  Mn3       1.0  0.750494515  0.50448352  0.44987233142043825  1.0000
  Mn  Mn4       1.0  0.25049451500000003  0.50448352  0.47489917478364635  1.0000
  Ga  Ga1       1.0  0.750494515  0.50448352  0.47489917478364635  1.0000
  Ga  Ga2       1.0  0.25049451500000003  0.50448352  0.44987233142043825  1.0000
  Ga  Ga3       1.0  0.0004945149999999616  0.004483519999999991  0.48741259821712946  1.0000
  Ga  Ga4       1.0  0.500494515  0.004483519999999991  0.46238575485392136  1.0000
  Ni  Ni1       1.0  0.375494515  0.7544835200000001  0.4686424648187838  1.0000
  Ni  Ni2       1.0  0.8754945149999999  0.7544835200000001  0.44361562145557576  1.0000
  Ni  Ni3       1.0  0.8754945149999999  0.7544835200000001  0.4686424648187838  1.0000
  Ni  Ni4       1.0  0.375494515  0.7544835200000001  0.44361562145557576  1.0000
  Ni  Ni5       1.0  0.12549451499999995  0.25448352  0.45612904138530075  1.0000
  Ni  Ni6       1.0  0.625494515  0.25448352  0.48115588825226696  1.0000
  Ni  Ni7       1.0  0.625494515  0.25448352  0.45612904138530075  1.0000
  Ni  Ni8       1.0  0.12549451499999995  0.25448352  0.48115588825226696  1.0000
  Mn  Mn5       1.0  0.9973626449999998  0.00970898999999999  0.5128570440018799  1.0000
  Mn  Mn6       1.0  0.503057605  0.99873057  0.535198120103502  1.0000
  Mn  Mn7       1.0  0.750494515  0.50448352  0.4999260181468544  1.0000
  Mn  Mn8       1.0  0.23839716499999997  0.52611652  0.5268751738877736  1.0000
  Ga  Ga5       1.0  0.7445001049999999  0.5156166299999999  0.5260365984293575  1.0000
  Ga  Ga6       1.0  0.25049451500000003  0.50448352  0.4999260181468544  1.0000
  Ga  Ga7       1.0  0.9995054850000001  0.004535409999999991  0.537129156838984  1.0000
  Ga  Ga8       1.0  0.5014977350000001  0.0012694300000000158  0.511866619169394  1.0000
  Ni  Ni9       1.0  0.37961881499999994  0.7487616899999999  0.5185826227739178  1.0000
  Ni  Ni10      1.0  0.8754945149999999  0.7544835200000001  0.49366930818199195  1.0000
  Ni  Ni11      1.0  0.8759315750000001  0.7490705700000001  0.5185239558476062  1.0000
  Ni  Ni12      1.0  0.375494515  0.7544835200000001  0.49366930818199195  1.0000
  Ni  Ni13      1.0  0.12549451499999995  0.25448352  0.5061827316154751  1.0000
  Ni  Ni14      1.0  0.612599425  0.25421287  0.5304293160707645  1.0000
  Ni  Ni15      1.0  0.625494515  0.25448352  0.5061827316154751  1.0000
  Ni  Ni16      1.0  0.13766439499999997  0.25363412  0.5304454123356638  1.0000
