data_image0
_chemical_formula_structural       COGa5Ni5Ga5Ni5Ga5Ni5Ga5Ni5
_chemical_formula_sum              "C1 O1 Ga20 Ni20"
_cell_length_a       6.580788059856121
_cell_length_b       8.32411162
_cell_length_c       105.68219558999999
_cell_angle_alpha    90.0
_cell_angle_beta     104.96321742685242
_cell_angle_gamma    71.56505114769705

_space_group_name_H-M_alt    "P 1"
_space_group_IT_number       1

loop_
  _space_group_symop_operation_xyz
  'x, y, z'

loop_
  _atom_site_type_symbol
  _atom_site_label
  _atom_site_symmetry_multiplicity
  _atom_site_fract_x
  _atom_site_fract_y
  _atom_site_fract_z
  _atom_site_occupancy
  C   C1        1.0  0.08398837999999999  0.30774676500000003  0.5444179611186711  1.0000
  O   O1        1.0  0.19668401999999996  0.278673585  0.5552574352298617  1.0000
  Ga  Ga1       1.0  0.7021229299999999  0.14887569500000006  0.5323659793301031  1.0000
  Ga  Ga2       1.0  0.11443288999999998  0.04588838499999999  0.523641158098256  1.0000
  Ga  Ga3       1.0  0.31601162  0.25035633500000004  0.49297639204134525  1.0000
  Ga  Ga4       1.0  0.51350889  0.45052519500000004  0.5112915157297149  1.0000
  Ga  Ga5       1.0  0.91601162  0.350356335  0.5026231574955865  1.0000
  Ni  Ni1       1.0  0.7160116199999998  0.15035633500000006  0.5074465385345234  1.0000
  Ni  Ni2       1.0  0.11601161999999997  0.050356334999999995  0.497799773080282  1.0000
  Ni  Ni3       1.0  0.29675638  0.256613455  0.5175584324086501  1.0000
  Ni  Ni4       1.0  0.5151304299999999  0.45299175500000005  0.5329240186374622  1.0000
  Ni  Ni5       1.0  0.91378491  0.35257910499999995  0.5279325822706263  1.0000
  Ga  Ga6       1.0  0.7160116199999998  0.15035633500000006  0.48332962658710377  1.0000
  Ga  Ga7       1.0  0.11601161999999997  0.050356334999999995  0.47368286113286245  1.0000
  Ga  Ga8       1.0  0.31601162  0.25035633500000004  0.4447425647701383  1.0000
  Ga  Ga9       1.0  0.51601162  0.45035633500000005  0.46403609567862103  1.0000
  Ga  Ga10      1.0  0.91601162  0.350356335  0.45438933022437966  1.0000
  Ni  Ni6       1.0  0.7160116199999998  0.15035633500000006  0.45921271463968416  1.0000
  Ni  Ni7       1.0  0.11601161999999997  0.050356334999999995  0.44956594918544285  1.0000
  Ni  Ni8       1.0  0.31601162  0.25035633500000004  0.4688594800939256  1.0000
  Ni  Ni9       1.0  0.51601162  0.45035633500000005  0.4881530076260407  1.0000
  Ni  Ni10      1.0  0.91601162  0.350356335  0.4785062421717992  1.0000
  Ga  Ga11      1.0  0.70937036  0.6587664449999999  0.5325602015079884  1.0000
  Ga  Ga12      1.0  0.11594125999999998  0.557054245  0.5235893882516961  1.0000
  Ga  Ga13      1.0  0.31601162  0.7503563349999999  0.49297639204134525  1.0000
  Ga  Ga14      1.0  0.50431763  0.9541116150000001  0.5112150308712969  1.0000
  Ga  Ga15      1.0  0.91601162  0.850356335  0.5026231574955865  1.0000
  Ni  Ni11      1.0  0.7160116199999998  0.650356335  0.5074465385345234  1.0000
  Ni  Ni12      1.0  0.11601161999999997  0.550356335  0.497799773080282  1.0000
  Ni  Ni13      1.0  0.30493999999999993  0.752799985  0.5176065929180959  1.0000
  Ni  Ni14      1.0  0.5114633799999999  0.9505588650000001  0.5331998374945242  1.0000
  Ni  Ni15      1.0  0.88957089  0.857767165  0.5253102722433426  1.0000
  Ga  Ga16      1.0  0.7160116199999998  0.650356335  0.48332962658710377  1.0000
  Ga  Ga17      1.0  0.11601161999999997  0.550356335  0.47368286113286245  1.0000
  Ga  Ga18      1.0  0.31601162  0.7503563349999999  0.4447425647701383  1.0000
  Ga  Ga19      1.0  0.51601162  0.950356335  0.46403609567862103  1.0000
  Ga  Ga20      1.0  0.91601162  0.850356335  0.45438933022437966  1.0000
  Ni  Ni16      1.0  0.7160116199999998  0.650356335  0.45921271463968416  1.0000
  Ni  Ni17      1.0  0.11601161999999997  0.550356335  0.44956594918544285  1.0000
  Ni  Ni18      1.0  0.31601162  0.7503563349999999  0.4688594800939256  1.0000
  Ni  Ni19      1.0  0.51601162  0.950356335  0.4881530076260407  1.0000
  Ni  Ni20      1.0  0.91601162  0.850356335  0.4785062421717992  1.0000
