data_image0
_chemical_formula_structural       COAl12Ru6Al12Ru6
_chemical_formula_sum              "C1 O1 Al24 Ru12"
_cell_length_a       7.08797060496153
_cell_length_b       9.069462521816233
_cell_length_c       101.37978355
_cell_angle_alpha    104.30824607638138
_cell_angle_beta     71.56505117707799
_cell_angle_gamma    81.0075627521199

_space_group_name_H-M_alt    "P 1"
_space_group_IT_number       1

loop_
  _space_group_symop_operation_xyz
  'x, y, z'

loop_
  _atom_site_type_symbol
  _atom_site_label
  _atom_site_symmetry_multiplicity
  _atom_site_fract_x
  _atom_site_fract_y
  _atom_site_fract_z
  _atom_site_occupancy
  C   C1        1.0  0.694737345  0.0033812750000000356  0.5406009285839145  1.0000
  O   O1        1.0  0.6958174049999999  0.011194665000000034  0.5523276604485122  1.0000
  Al  Al1       1.0  0.9733513050000001  0.16195929500000003  0.4744948378840187  1.0000
  Al  Al2       1.0  0.3066846449999999  0.16195929500000003  0.48923421802208955  1.0000
  Al  Al3       1.0  0.6400179750000001  0.16195929500000003  0.45975545465067746  1.0000
  Al  Al4       1.0  0.9132794150000001  0.342174975  0.45769829775467463  1.0000
  Al  Al5       1.0  0.24661274499999997  0.342174975  0.4724376809880158  1.0000
  Al  Al6       1.0  0.579946085  0.342174975  0.487177064221357  1.0000
  Al  Al7       1.0  0.8066846449999999  0.6619592950000001  0.46712514471971295  1.0000
  Al  Al8       1.0  0.14001797499999993  0.6619592950000001  0.4818645279530541  1.0000
  Al  Al9       1.0  0.47335130500000006  0.6619592950000001  0.45238576458164215  1.0000
  Al  Al10      1.0  0.7466127450000001  0.842174975  0.4503286076856392  1.0000
  Al  Al11      1.0  0.079946085  0.842174975  0.4650679909189803  1.0000
  Al  Al12      1.0  0.41327941500000004  0.842174975  0.47980737415232144  1.0000
  Ru  Ru1       1.0  0.02664869499999996  0.0020671350000000355  0.4476723395514877  1.0000
  Ru  Ru2       1.0  0.35998202499999993  0.0020671350000000355  0.4624117227848289  1.0000
  Ru  Ru3       1.0  0.693315365  0.0020671350000000355  0.4771511060181701  1.0000
  Ru  Ru4       1.0  0.8599820250000001  0.502067135  0.48452079608720555  1.0000
  Ru  Ru5       1.0  0.19331536499999993  0.502067135  0.45504202962052315  1.0000
  Ru  Ru6       1.0  0.5266486950000001  0.502067135  0.4697814128538643  1.0000
  Al  Al13      1.0  0.9583045550000001  0.168782005  0.519747269067616  1.0000
  Al  Al14      1.0  0.32464954499999993  0.16003450500000002  0.5323915783434825  1.0000
  Al  Al15      1.0  0.638019605  0.16105615500000003  0.5040146414446597  1.0000
  Al  Al16      1.0  0.9132794150000001  0.342174975  0.5019164474546982  1.0000
  Al  Al17      1.0  0.24352016499999998  0.340293675  0.516759881295259  1.0000
  Al  Al18      1.0  0.5551166150000001  0.36427539500000006  0.5322049768767154  1.0000
  Al  Al19      1.0  0.805925545  0.6609148150000002  0.512775157185918  1.0000
  Al  Al20      1.0  0.1372471149999999  0.6425659750000001  0.5266362234167831  1.0000
  Al  Al21      1.0  0.47335130500000006  0.6619592950000001  0.4966039111863953  1.0000
  Al  Al22      1.0  0.7466127450000001  0.842174975  0.4945467542903924  1.0000
  Al  Al23      1.0  0.07742590499999995  0.844512345  0.5096214512532287  1.0000
  Al  Al24      1.0  0.41192479499999995  0.8245042050000001  0.5236623403088506  1.0000
  Ru  Ru7       1.0  0.02664869499999996  0.0020671350000000355  0.4918904861562409  1.0000
  Ru  Ru8       1.0  0.35679222499999996  0.9979328650000001  0.506833528891106  1.0000
  Ru  Ru9       1.0  0.6879783149999998  0.991451525  0.5219106215931731  1.0000
  Ru  Ru10      1.0  0.8671847050000001  0.47713395500000005  0.5273810909345  1.0000
  Ru  Ru11      1.0  0.19331536499999993  0.502067135  0.4992601793205466  1.0000
  Ru  Ru12      1.0  0.5260533650000001  0.500040045  0.5135101322196788  1.0000
