data_image0
_chemical_formula_structural       COAl12Pd20Al12Pd20
_chemical_formula_sum              "C1 O1 Al24 Pd40"
_cell_length_a       10.67962189
_cell_length_b       6.839540552279903
_cell_length_c       111.03724331000001
_cell_angle_alpha    73.79282864526594
_cell_angle_beta     90.0
_cell_angle_gamma    90.0

_space_group_name_H-M_alt    "P 1"
_space_group_IT_number       1

loop_
  _space_group_symop_operation_xyz
  'x, y, z'

loop_
  _atom_site_type_symbol
  _atom_site_label
  _atom_site_symmetry_multiplicity
  _atom_site_fract_x
  _atom_site_fract_y
  _atom_site_fract_z
  _atom_site_occupancy
  C   C1        1.0  0.5836304800000001  0.9390891750000001  0.5629274609720087  1.0000
  O   O1        1.0  0.5987251400000001  0.904416735  0.5736900963174335  1.0000
  Al  Al1       1.0  0.05275614000000004  0.502457335  0.45413867952472364  1.0000
  Al  Al2       1.0  0.05275614000000004  0.002457335000000002  0.48493708956690607  1.0000
  Al  Al3       1.0  0.5527561400000001  0.252457335  0.4387394781994414  1.0000
  Al  Al4       1.0  0.5527561400000001  0.7524573350000001  0.4695378845458149  1.0000
  Al  Al5       1.0  0.69568331  0.671977105  0.4337821492685284  1.0000
  Al  Al6       1.0  0.69568331  0.17197710500000002  0.46458055931071085  1.0000
  Al  Al7       1.0  0.4098289700000001  0.33293756500000005  0.47449520978091897  1.0000
  Al  Al8       1.0  0.4098289700000001  0.8329375650000002  0.4436968034345455  1.0000
  Al  Al9       1.0  0.9098289700000002  0.421977105  0.47997976063599307  1.0000
  Al  Al10      1.0  0.9098289700000002  0.9219771050000001  0.4491813542896195  1.0000
  Al  Al11      1.0  0.19568331000000005  0.5829375650000002  0.42829759841345433  1.0000
  Al  Al12      1.0  0.19568331000000005  0.082937565  0.4590960084556367  1.0000
  Pd  Pd1       1.0  0.94724386  0.6592406550000001  0.43299762512809503  1.0000
  Pd  Pd2       1.0  0.94724386  0.15924065500000004  0.46379603517027745  1.0000
  Pd  Pd3       1.0  0.15826842000000005  0.34567401500000006  0.47527973392135237  1.0000
  Pd  Pd4       1.0  0.15826842000000005  0.8456740150000001  0.4444813275749788  1.0000
  Pd  Pd5       1.0  0.6582684200000001  0.409240655  0.4791952364955597  1.0000
  Pd  Pd6       1.0  0.6582684200000001  0.909240655  0.4483968301491862  1.0000
  Pd  Pd7       1.0  0.44724386000000005  0.5956740150000001  0.4290821225538876  1.0000
  Pd  Pd8       1.0  0.44724386000000005  0.095674015  0.45988053259607004  1.0000
  Pd  Pd9       1.0  0.5527561400000001  0.502457335  0.45413867952472364  1.0000
  Pd  Pd10      1.0  0.5527561400000001  0.002457335000000002  0.48493708956690607  1.0000
  Pd  Pd11      1.0  0.05275614000000004  0.252457335  0.4387394781994414  1.0000
  Pd  Pd12      1.0  0.05275614000000004  0.7524573350000001  0.4695378845458149  1.0000
  Pd  Pd13      1.0  0.8201598000000001  0.050668135  0.42630990368256666  1.0000
  Pd  Pd14      1.0  0.8201598000000001  0.550668135  0.457108313724749  1.0000
  Pd  Pd15      1.0  0.2853524800000001  0.45424653500000006  0.4511690490205072  1.0000
  Pd  Pd16      1.0  0.2853524800000001  0.954246535  0.48196745536688074  1.0000
  Pd  Pd17      1.0  0.7853524800000001  0.300668135  0.4417091087036578  1.0000
  Pd  Pd18      1.0  0.7853524800000001  0.8006681350000001  0.4725075150500313  1.0000
  Pd  Pd19      1.0  0.32015980000000005  0.20424653500000003  0.4357698439994161  1.0000
  Pd  Pd20      1.0  0.32015980000000005  0.7042465350000001  0.46656825404159846  1.0000
  Al  Al13      1.0  0.05275614000000004  0.502457335  0.5157354959132796  1.0000
  Al  Al14      1.0  0.054005410000000045  0.9975426650000001  0.5446391645144546  1.0000
  Al  Al15      1.0  0.5527561400000001  0.252457335  0.5003362908921883  1.0000
  Al  Al16      1.0  0.55840529  0.7329387350000001  0.5322267718131997  1.0000
  Al  Al17      1.0  0.69568331  0.671977105  0.49537896565708434  1.0000
  Al  Al18      1.0  0.6921691200000001  0.16128626500000004  0.5256666112121792  1.0000
  Al  Al19      1.0  0.39948742000000004  0.321401645  0.535678195358463  1.0000
  Al  Al20      1.0  0.4098289700000001  0.8329375650000002  0.5052936198231014  1.0000
  Al  Al21      1.0  0.9137716300000002  0.4478855950000001  0.5398211010548656  1.0000
  Al  Al22      1.0  0.9098289700000002  0.9219771050000001  0.5107781706781755  1.0000
  Al  Al23      1.0  0.19568331000000005  0.5829375650000002  0.4898944148020102  1.0000
  Al  Al24      1.0  0.19855539000000005  0.08379428500000001  0.5204323848861563  1.0000
  Pd  Pd21      1.0  0.94724386  0.6592406550000001  0.49459444151665094  1.0000
  Pd  Pd22      1.0  0.9356413  0.16713256500000004  0.5255087077765251  1.0000
  Pd  Pd23      1.0  0.14652484000000005  0.35361191500000005  0.5372393087376012  1.0000
  Pd  Pd24      1.0  0.15826842000000005  0.8456740150000001  0.5060781439635348  1.0000
  Pd  Pd25      1.0  0.67263642  0.393937305  0.5401217033683202  1.0000
  Pd  Pd26      1.0  0.6582684200000001  0.909240655  0.5099936465377422  1.0000
  Pd  Pd27      1.0  0.44724386000000005  0.5956740150000001  0.4906789389424435  1.0000
  Pd  Pd28      1.0  0.4506866  0.08617083500000002  0.5212142406525571  1.0000
  Pd  Pd29      1.0  0.5527561400000001  0.502457335  0.5157354959132796  1.0000
  Pd  Pd30      1.0  0.5473348900000001  0.005309015000000002  0.5451464918992566  1.0000
  Pd  Pd31      1.0  0.05275614000000004  0.252457335  0.5003362908921883  1.0000
  Pd  Pd32      1.0  0.054357710000000045  0.763079975  0.5308064096205669  1.0000
  Pd  Pd33      1.0  0.8201598000000001  0.050668135  0.48790672007112257  1.0000
  Pd  Pd34      1.0  0.8160428000000001  0.5605191350000002  0.5181857322166049  1.0000
  Pd  Pd35      1.0  0.2853524800000001  0.45424653500000006  0.5127658654090631  1.0000
  Pd  Pd36      1.0  0.28182128000000006  0.9757596050000001  0.5423218110204665  1.0000
  Pd  Pd37      1.0  0.7853524800000001  0.300668135  0.5033059250922137  1.0000
  Pd  Pd38      1.0  0.79036815  0.802051835  0.5351055075930983  1.0000
  Pd  Pd39      1.0  0.32015980000000005  0.20424653500000003  0.49736666038797195  1.0000
  Pd  Pd40      1.0  0.3279043100000001  0.693855665  0.528748561044961  1.0000
