data_image0
_chemical_formula_structural       COCu40Sn32
_chemical_formula_sum              "C1 O1 Cu40 Sn32"
_cell_length_a       9.988122759000007
_cell_length_b       12.422857554379897
_cell_length_c       107.26857268
_cell_angle_alpha    72.25818409711201
_cell_angle_beta     112.29853273562902
_cell_angle_gamma    112.29853273256339

_space_group_name_H-M_alt    "P 1"
_space_group_IT_number       1

loop_
  _space_group_symop_operation_xyz
  'x, y, z'

loop_
  _atom_site_type_symbol
  _atom_site_label
  _atom_site_symmetry_multiplicity
  _atom_site_fract_x
  _atom_site_fract_y
  _atom_site_fract_z
  _atom_site_occupancy
  C   C1        1.0  0.7996421700000002  0.23235579999999997  0.5576028910331498  1.0000
  O   O1        1.0  0.7882053500000001  0.23439365999999998  0.5679157186382032  1.0000
  Cu  Cu1       1.0  0.94314437  0.41346394  0.5030393938189974  1.0000
  Cu  Cu2       1.0  0.94314437  0.9134639399999999  0.44513400385848606  1.0000
  Cu  Cu3       1.0  0.55685563  0.60785989  0.4676471513420001  1.0000
  Cu  Cu4       1.0  0.56763307  0.09592653999999998  0.5255579786188461  1.0000
  Cu  Cu5       1.0  0.05685563000000008  0.58115848  0.4707394625827835  1.0000
  Cu  Cu6       1.0  0.06134628000000003  0.08517668999999997  0.5282917118760638  1.0000
  Cu  Cu7       1.0  0.44314437  0.38676252999999994  0.5061317050597808  1.0000
  Cu  Cu8       1.0  0.44314437  0.8867625299999999  0.4482263150992695  1.0000
  Cu  Cu9       1.0  0.80714246  0.22444514999999998  0.5409127480145423  1.0000
  Cu  Cu10      1.0  0.81340404  0.72019396  0.4830584062897543  1.0000
  Cu  Cu11      1.0  0.68659596  0.78039122  0.43212450707970346  1.0000
  Cu  Cu12      1.0  0.68659596  0.28039122  0.4900298970402147  1.0000
  Cu  Cu13      1.0  0.18659596000000003  0.7744284599999999  0.4328150566771918  1.0000
  Cu  Cu14      1.0  0.18659596000000003  0.27442845999999993  0.49072045011202653  1.0000
  Cu  Cu15      1.0  0.3043528200000001  0.24161039  0.5380424460477479  1.0000
  Cu  Cu16      1.0  0.31340404  0.7142311999999998  0.48374895936156614  1.0000
  Cu  Cu17      1.0  0.68545838  0.51985844  0.5211966394374065  1.0000
  Cu  Cu18      1.0  0.6836506600000001  0.017049179999999973  0.4633241999613163  1.0000
  Cu  Cu19      1.0  0.81634934  0.45079162999999994  0.45565086111322656  1.0000
  Cu  Cu20      1.0  0.81634934  0.9507916299999999  0.5135562545480614  1.0000
  Cu  Cu21      1.0  0.31634934000000003  0.47757324  0.45254926300562975  1.0000
  Cu  Cu22      1.0  0.31634934000000003  0.97757324  0.5104546564404646  1.0000
  Cu  Cu23      1.0  0.17984121000000003  0.53047439  0.5186643439845176  1.0000
  Cu  Cu24      1.0  0.18365066000000005  0.043830789999999974  0.46022260185371944  1.0000
  Cu  Cu25      1.0  0.5685797  0.33352513999999994  0.43979790846561684  1.0000
  Cu  Cu26      1.0  0.5685797000000001  0.83352514  0.49770330190045164  1.0000
  Cu  Cu27      1.0  0.9291954700000001  0.6679625599999999  0.5338518073303086  1.0000
  Cu  Cu28      1.0  0.9314203  0.15393585999999998  0.4769049276443696  1.0000
  Cu  Cu29      1.0  0.42008855  0.6576733599999999  0.5334301495286121  1.0000
  Cu  Cu30      1.0  0.4314203  0.16109727999999998  0.4760755545013292  1.0000
  Cu  Cu31      1.0  0.06857970000000001  0.34068655999999997  0.43896853879689995  1.0000
  Cu  Cu32      1.0  0.06857970000000001  0.8406865599999999  0.4968739287574113  1.0000
  Cu  Cu33      1.0  0.06215697000000003  0.13746283999999995  0.43488153567623405  1.0000
  Cu  Cu34      1.0  0.06215697000000002  0.6374628399999999  0.49278692911106886  1.0000
  Cu  Cu35      1.0  0.4378430300000001  0.69638764  0.4417056629938894  1.0000
  Cu  Cu36      1.0  0.4378430300000001  0.19638764  0.49961105642872433  1.0000
  Cu  Cu37      1.0  0.9405671400000001  0.8663608499999998  0.5380510033066186  1.0000
  Cu  Cu38      1.0  0.93784303  0.3571595799999999  0.48099192729071205  1.0000
  Cu  Cu39      1.0  0.56248652  0.29427625999999996  0.5322152515486561  1.0000
  Cu  Cu40      1.0  0.5621569700000001  0.79823478  0.47416779997305664  1.0000
  Sn  Sn1       1.0  0.7196792700000001  0.3341293699999999  0.5148082270344765  1.0000
  Sn  Sn2       1.0  0.71562163  0.8324247599999999  0.4562736440301334  1.0000
  Sn  Sn3       1.0  0.78437837  0.51167159  0.4770323623573687  1.0000
  Sn  Sn4       1.0  0.8172383700000001  0.019603399999999972  0.5377041198960769  1.0000
  Sn  Sn5       1.0  0.28437837  0.66219766  0.4595998189368126  1.0000
  Sn  Sn6       1.0  0.29973295000000005  0.15320920999999998  0.5188378794965237  1.0000
  Sn  Sn7       1.0  0.21562163  0.48295081999999995  0.49674649404441223  1.0000
  Sn  Sn8       1.0  0.2156216300000001  0.98295082  0.4388411040839009  1.0000
  Sn  Sn9       1.0  0.5646829700000001  0.11474925999999996  0.43661978143347924  1.0000
  Sn  Sn10      1.0  0.56468297  0.6147492599999999  0.494525174868314  1.0000
  Sn  Sn11      1.0  0.9353170300000002  0.68137827  0.44433613935559924  1.0000
  Sn  Sn12      1.0  0.9353170300000001  0.18137826999999998  0.502241532790434  1.0000
  Sn  Sn13      1.0  0.44885500000000017  0.86420399  0.5372241247278774  1.0000
  Sn  Sn14      1.0  0.43531702999999994  0.37987316  0.4792536815334667  1.0000
  Sn  Sn15      1.0  0.05734169000000001  0.30423276999999993  0.5320543938432349  1.0000
  Sn  Sn16      1.0  0.06468297000000005  0.81324415  0.47153732361134687  1.0000
  Sn  Sn17      1.0  0.44744103  0.46234739999999996  0.5311310610944706  1.0000
  Sn  Sn18      1.0  0.42266526000000004  0.9525109  0.4716448573991282  1.0000
  Sn  Sn19      1.0  0.07733474000000004  0.37894463  0.463125089953757  1.0000
  Sn  Sn20      1.0  0.10598181000000005  0.87429381  0.5235481380420975  1.0000
  Sn  Sn21      1.0  0.57733474  0.54211152  0.4442286055678178  1.0000
  Sn  Sn22      1.0  0.5773347400000001  0.04211151999999997  0.5021339990026527  1.0000
  Sn  Sn23      1.0  0.92266526  0.6156777899999999  0.5106537664480237  1.0000
  Sn  Sn24      1.0  0.92266526  0.11567778999999996  0.45274837301318904  1.0000
  Sn  Sn25      1.0  0.33125359  0.27408113999999995  0.44973535625848143  1.0000
  Sn  Sn26      1.0  0.33125359000000004  0.7740811400000001  0.5076407496933163  1.0000
  Sn  Sn27      1.0  0.16911812  0.59358299  0.5409194291387032  1.0000
  Sn  Sn28      1.0  0.16874641000000004  0.06812822999999996  0.4837891816051494  1.0000
  Sn  Sn29      1.0  0.67417093  0.7239180099999999  0.5266464702855699  1.0000
  Sn  Sn30      1.0  0.66874641  0.22054127999999998  0.46613810670846456  1.0000
  Sn  Sn31      1.0  0.8312535900000002  0.42649418999999994  0.4320842813617967  1.0000
  Sn  Sn32      1.0  0.8312535900000001  0.9264941899999999  0.48998967479663147  1.0000
