data_image0
_chemical_formula_structural       COTi2Ir2Ti2Ir2Ti2Ir2Ti2Ir2Ti2Ir2Ti2Ir2Ti2Ir2Ti2Ir2
_chemical_formula_sum              "C1 O1 Ti16 Ir16"
_cell_length_a       6.262596
_cell_length_b       8.8566482
_cell_length_c       100.9982687
_cell_angle_alpha    90.0
_cell_angle_beta     90.0
_cell_angle_gamma    90.0

_space_group_name_H-M_alt    "P 1"
_space_group_IT_number       1

loop_
  _space_group_symop_operation_xyz
  'x, y, z'

loop_
  _atom_site_type_symbol
  _atom_site_label
  _atom_site_symmetry_multiplicity
  _atom_site_fract_x
  _atom_site_fract_y
  _atom_site_fract_z
  _atom_site_occupancy
  C   C1        1.0  0.62139244  0.622241055  0.5366679450277483  1.0000
  O   O1        1.0  0.62139256  0.622243525  0.5483459234803412  1.0000
  Ti  Ti1       1.0  0.37139236999999997  0.372236035  0.4735768484069036  1.0000
  Ti  Ti2       1.0  0.37139236999999997  0.12223603500000003  0.4516540765196588  1.0000
  Ir  Ir1       1.0  0.12139237000000001  0.372236035  0.4516540765196588  1.0000
  Ir  Ir2       1.0  0.12139237000000001  0.12223603500000003  0.4735768484069036  1.0000
  Ti  Ti3       1.0  0.36417682999999995  0.366707055  0.5182432772374657  1.0000
  Ti  Ti4       1.0  0.37733641999999995  0.12223606500000003  0.49549399754150225  1.0000
  Ir  Ir3       1.0  0.12139237000000001  0.36671396500000003  0.4953236944307891  1.0000
  Ir  Ir4       1.0  0.12139212  0.12223601500000002  0.5154581608880204  1.0000
  Ti  Ti5       1.0  0.37139236999999997  0.872236035  0.4735768484069036  1.0000
  Ti  Ti6       1.0  0.37139236999999997  0.622236035  0.4516540765196588  1.0000
  Ir  Ir5       1.0  0.12139237000000001  0.872236035  0.4516540765196588  1.0000
  Ir  Ir6       1.0  0.12139237000000001  0.622236035  0.4735768484069036  1.0000
  Ti  Ti7       1.0  0.36417442  0.877763985  0.5182429212116432  1.0000
  Ti  Ti8       1.0  0.36628208999999995  0.622235655  0.4957105686632089  1.0000
  Ir  Ir7       1.0  0.12139231000000002  0.8777613550000001  0.4953242745073449  1.0000
  Ir  Ir8       1.0  0.12139227000000002  0.6222331950000001  0.5156208554813704  1.0000
  Ti  Ti9       1.0  0.8713923699999999  0.372236035  0.4735768484069036  1.0000
  Ti  Ti10      1.0  0.8713923699999999  0.12223603500000003  0.4516540765196588  1.0000
  Ir  Ir9       1.0  0.62139237  0.372236035  0.4516540765196588  1.0000
  Ir  Ir10      1.0  0.62139237  0.12223603500000003  0.4735768484069036  1.0000
  Ti  Ti11      1.0  0.8786077600000001  0.36670714500000007  0.5182432833758419  1.0000
  Ti  Ti12      1.0  0.86544822  0.12223602500000004  0.49549399447231424  1.0000
  Ir  Ir11      1.0  0.62139235  0.38718422500000005  0.4972953777129308  1.0000
  Ir  Ir12      1.0  0.62139237  0.12223758500000004  0.5158492276314199  1.0000
  Ti  Ti13      1.0  0.8713923699999999  0.872236035  0.4735768484069036  1.0000
  Ti  Ti14      1.0  0.8713923699999999  0.622236035  0.4516540765196588  1.0000
  Ir  Ir13      1.0  0.62139237  0.872236035  0.4516540765196588  1.0000
  Ir  Ir14      1.0  0.62139237  0.622236035  0.4735768484069036  1.0000
  Ti  Ti15      1.0  0.87860788  0.8777628350000001  0.5182430132872868  1.0000
  Ti  Ti16      1.0  0.8765026300000001  0.6222356250000001  0.4957105655940207  1.0000
  Ir  Ir15      1.0  0.62139235  0.8572943650000001  0.4972950308946726  1.0000
  Ir  Ir16      1.0  0.6213923  0.622238205  0.5181142792605468  1.0000
