data_image0
_chemical_formula_structural       CONb2Ge2Sb2Nb2Ge2Sb2Nb2Ge2Sb2Nb2Ge2Sb2
_chemical_formula_sum              "C1 O1 Nb8 Ge8 Sb8"
_cell_length_a       7.54962632
_cell_length_b       8.35189422
_cell_length_c       100.19850528
_cell_angle_alpha    90.0
_cell_angle_beta     90.0
_cell_angle_gamma    90.0

_space_group_name_H-M_alt    "P 1"
_space_group_IT_number       1

loop_
  _space_group_symop_operation_xyz
  'x, y, z'

loop_
  _atom_site_type_symbol
  _atom_site_label
  _atom_site_symmetry_multiplicity
  _atom_site_fract_x
  _atom_site_fract_y
  _atom_site_fract_z
  _atom_site_occupancy
  C   C1        1.0  0.25094546  0.76560734  0.5327243931738437  1.0000
  O   O1        1.0  0.25094532  0.7636910000000001  0.5444072992377297  1.0000
  Nb  Nb1       1.0  0.25094571000000004  0.7574632699999999  0.47442937476978897  1.0000
  Nb  Nb2       1.0  0.000945710000000007  0.24773876999999997  0.4555927007622702  1.0000
  Ge  Ge1       1.0  0.000945710000000007  0.002601019999999988  0.47442937476978897  1.0000
  Ge  Ge2       1.0  0.25094571000000004  0.002601019999999988  0.4555927007622702  1.0000
  Sb  Sb1       1.0  0.25094571000000004  0.38858242  0.47442937476978897  1.0000
  Sb  Sb2       1.0  0.000945710000000007  0.6166196199999999  0.4555927007622702  1.0000
  Nb  Nb3       1.0  0.25094569000000005  0.7651167  0.5113641352900576  1.0000
  Nb  Nb4       1.0  0.001248610000000007  0.25431539000000003  0.4938998591565769  1.0000
  Ge  Ge3       1.0  0.9990542900000001  0.99739898  0.5126285070990634  1.0000
  Ge  Ge4       1.0  0.25094590000000006  0.008158219999999989  0.49378035628280537  1.0000
  Sb  Sb3       1.0  0.25094594  0.39793284999999995  0.5125090162807632  1.0000
  Sb  Sb4       1.0  0.0024319700000000073  0.6130212199999999  0.4940069479087106  1.0000
  Nb  Nb5       1.0  0.7509457099999999  0.7574632699999999  0.47442937476978897  1.0000
  Nb  Nb6       1.0  0.50094571  0.24773876999999997  0.4555927007622702  1.0000
  Ge  Ge5       1.0  0.50094571  0.002601019999999988  0.47442937476978897  1.0000
  Ge  Ge6       1.0  0.7509457099999999  0.002601019999999988  0.4555927007622702  1.0000
  Sb  Sb5       1.0  0.7509457099999999  0.38858242  0.47442937476978897  1.0000
  Sb  Sb6       1.0  0.50094571  0.6166196199999999  0.4555927007622702  1.0000
  Nb  Nb7       1.0  0.7509457200000001  0.76300576  0.5106205055943904  1.0000
  Nb  Nb8       1.0  0.50064273  0.25431555999999994  0.49389987422591614  1.0000
  Ge  Ge7       1.0  0.5028371100000001  0.9973989600000001  0.5126284860019885  1.0000
  Ge  Ge8       1.0  0.75094561  0.006927189999999988  0.49367248995276874  1.0000
  Sb  Sb7       1.0  0.75094567  0.40528730999999996  0.5126361713649835  1.0000
  Sb  Sb8       1.0  0.49945950000000006  0.6130210199999999  0.49400695092257835  1.0000
