data_image0
_chemical_formula_structural       COAl5Ni15Al5Ni15
_chemical_formula_sum              "C1 O1 Al10 Ni30"
_cell_length_a       5.08674224
_cell_length_b       8.04284567895047
_cell_length_c       107.37976884
_cell_angle_alpha    75.03678260144412
_cell_angle_beta     90.0
_cell_angle_gamma    71.56505118813662

_space_group_name_H-M_alt    "P 1"
_space_group_IT_number       1

loop_
  _space_group_symop_operation_xyz
  'x, y, z'

loop_
  _atom_site_type_symbol
  _atom_site_label
  _atom_site_symmetry_multiplicity
  _atom_site_fract_x
  _atom_site_fract_y
  _atom_site_fract_z
  _atom_site_occupancy
  C   C1        1.0  0.623557645  0.81708839  0.5483983588005248  1.0000
  O   O1        1.0  0.6474170549999999  0.7697055  0.5603919608933793  1.0000
  Al  Al1       1.0  0.8070244649999999  0.45  0.4454098386901453  1.0000
  Al  Al2       1.0  0.607024465  0.85  0.45701344481935663  1.0000
  Al  Al3       1.0  0.007024464999999993  0.04999999999999999  0.4918242562448285  1.0000
  Al  Al4       1.0  0.40702446499999995  0.25  0.46861704746748695  1.0000
  Al  Al5       1.0  0.2070244649999999  0.65  0.4802206501156172  1.0000
  Ni  Ni1       1.0  0.007024465000000047  0.5499999999999999  0.46281524440288124  1.0000
  Ni  Ni2       1.0  0.8070244650000001  0.9500000000000001  0.47441885053209254  1.0000
  Ni  Ni3       1.0  0.207024465  0.15  0.451211641754751  1.0000
  Ni  Ni4       1.0  0.607024465  0.35  0.4860224531802229  1.0000
  Ni  Ni5       1.0  0.40702446500000006  0.7499999999999999  0.4396080391066208  1.0000
  Ni  Ni6       1.0  0.507024465  0.5499999999999999  0.46281524440288124  1.0000
  Ni  Ni7       1.0  0.30702446499999997  0.9500000000000001  0.47441885053209254  1.0000
  Ni  Ni8       1.0  0.7070244649999999  0.15  0.451211641754751  1.0000
  Ni  Ni9       1.0  0.107024465  0.35  0.4860224531802229  1.0000
  Ni  Ni10      1.0  0.9070244649999999  0.7499999999999999  0.4396080391066208  1.0000
  Ni  Ni11      1.0  0.9070244649999999  0.25  0.46861704746748695  1.0000
  Ni  Ni12      1.0  0.7070244649999999  0.65  0.4802206501156172  1.0000
  Ni  Ni13      1.0  0.10702446499999994  0.85  0.45701344481935663  1.0000
  Ni  Ni14      1.0  0.507024465  0.04999999999999999  0.4918242562448285  1.0000
  Ni  Ni15      1.0  0.3070244649999999  0.45  0.4454098386901453  1.0000
  Al  Al6       1.0  0.8070244649999999  0.45  0.5034278588929588  1.0000
  Al  Al7       1.0  0.607024465  0.85  0.515031461541089  1.0000
  Al  Al8       1.0  0.992975535  0.07808735999999998  0.5492325790098495  1.0000
  Al  Al9       1.0  0.4077505449999999  0.24886137  0.5264475418291514  1.0000
  Al  Al10      1.0  0.20720592499999999  0.6495411899999999  0.5378128992838856  1.0000
  Ni  Ni16      1.0  0.007024465000000047  0.5499999999999999  0.5208332646056947  1.0000
  Ni  Ni17      1.0  0.8149766650000001  0.941051  0.5339410702641688  1.0000
  Ni  Ni18      1.0  0.207024465  0.15  0.5092296619575645  1.0000
  Ni  Ni19      1.0  0.6029964049999998  0.36003415000000005  0.543202817346624  1.0000
  Ni  Ni20      1.0  0.40702446500000006  0.7499999999999999  0.49762605582835306  1.0000
  Ni  Ni21      1.0  0.507024465  0.5499999999999999  0.5208332646056947  1.0000
  Ni  Ni22      1.0  0.30800165499999993  0.94093335  0.5339471343075191  1.0000
  Ni  Ni23      1.0  0.7070244649999999  0.15  0.5092296619575645  1.0000
  Ni  Ni24      1.0  0.101071655  0.36002099  0.5432071791412957  1.0000
  Ni  Ni25      1.0  0.9070244649999999  0.7499999999999999  0.49762605582835306  1.0000
  Ni  Ni26      1.0  0.9083472649999998  0.24793553  0.5263966240552793  1.0000
  Ni  Ni27      1.0  0.7071470149999999  0.6495728500000001  0.5381026958079216  1.0000
  Ni  Ni28      1.0  0.10702446499999994  0.85  0.515031461541089  1.0000
  Ni  Ni29      1.0  0.4949121649999999  0.07432662999999998  0.5497000673208067  1.0000
  Ni  Ni30      1.0  0.3070244649999999  0.45  0.5034278588929588  1.0000
