data_image0
_chemical_formula_structural       COGa54Rh12
_chemical_formula_sum              "C1 O1 Ga54 Rh12"
_cell_length_a       14.600743840956435
_cell_length_b       8.966681284480343
_cell_length_c       106.86894918
_cell_angle_alpha    87.82266626112293
_cell_angle_beta     71.24642726843089
_cell_angle_gamma    87.25056824354394

_space_group_name_H-M_alt    "P 1"
_space_group_IT_number       1

loop_
  _space_group_symop_operation_xyz
  'x, y, z'

loop_
  _atom_site_type_symbol
  _atom_site_label
  _atom_site_symmetry_multiplicity
  _atom_site_fract_x
  _atom_site_fract_y
  _atom_site_fract_z
  _atom_site_occupancy
  C   C1        1.0  0.90549275  0.37418475500000004  0.5412051282714545  1.0000
  O   O1        1.0  0.8691323499999999  0.368836285  0.5527117620458082  1.0000
  Ga  Ga1       1.0  0.41364823000000006  0.5827875549999999  0.46480578390879357  1.0000
  Ga  Ga2       1.0  0.07834215000000004  0.5767523850000001  0.5257870631310826  1.0000
  Ga  Ga3       1.0  0.7469815599999999  0.5827875549999999  0.4935551290866459  1.0000
  Ga  Ga4       1.0  0.5909356600000001  0.10476620500000007  0.5204770611642807  1.0000
  Ga  Ga5       1.0  0.2545177  0.08278755500000003  0.4922551744936359  1.0000
  Ga  Ga6       1.0  0.92118437  0.08278755500000004  0.46350582931578366  1.0000
  Ga  Ga7       1.0  0.21589100000000003  0.9916526649999999  0.5203356040305832  1.0000
  Ga  Ga8       1.0  0.8664514899999999  0.008347335000000044  0.4929245386243436  1.0000
  Ga  Ga9       1.0  0.53311816  0.008347335000000025  0.46417518999656987  1.0000
  Ga  Ga10      1.0  0.27377537  0.5016913350000001  0.5052597573092116  1.0000
  Ga  Ga11      1.0  0.9561334199999999  0.5083473350000002  0.47745475570987567  1.0000
  Ga  Ga12      1.0  0.62280009  0.5083473350000002  0.44870541053202345  1.0000
  Ga  Ga13      1.0  0.29179613000000004  0.8195954049999999  0.45424682633718255  1.0000
  Ga  Ga14      1.0  0.9653972700000001  0.8248305550000001  0.5107876252724072  1.0000
  Ga  Ga15      1.0  0.62512947  0.819595405  0.4829961715150348  1.0000
  Ga  Ga16      1.0  0.46606485000000003  0.325832455  0.5107718246316654  1.0000
  Ga  Ga17      1.0  0.13228334000000003  0.319595405  0.4817621552727886  1.0000
  Ga  Ga18      1.0  0.79895001  0.31959540500000005  0.4530128100949363  1.0000
  Ga  Ga19      1.0  0.23177270000000003  0.277961725  0.44728823795419187  1.0000
  Ga  Ga20      1.0  0.90629142  0.27854916500000004  0.5042648654800078  1.0000
  Ga  Ga21      1.0  0.56510603  0.277961725  0.4760375865819656  1.0000
  Ga  Ga22      1.0  0.3976970700000001  0.7779053049999999  0.5053415066504817  1.0000
  Ga  Ga23      1.0  0.05848813000000003  0.7779617249999999  0.4771791483763432  1.0000
  Ga  Ga24      1.0  0.7251547999999999  0.777961725  0.44842979974856934  1.0000
  Ga  Ga25      1.0  0.35829379000000006  0.541607665  0.5257019052673119  1.0000
  Ga  Ga26      1.0  0.026899880000000036  0.543747025  0.49970170943221487  1.0000
  Ga  Ga27      1.0  0.6935665499999999  0.543747025  0.47095236080444114  1.0000
  Ga  Ga28      1.0  0.40619361000000004  0.054248305000000024  0.5218466489740444  1.0000
  Ga  Ga29      1.0  0.06200133000000003  0.04374702500000003  0.4936468452513009  1.0000
  Ga  Ga30      1.0  0.728668  0.043747025000000044  0.4648975000734487  1.0000
  Ga  Ga31      1.0  0.15878492000000005  0.5539090750000001  0.4587129429913544  1.0000
  Ga  Ga32      1.0  0.82407843  0.5467352950000001  0.518085199497897  1.0000
  Ga  Ga33      1.0  0.49211825000000003  0.553909075  0.48746229161912813  1.0000
  Ga  Ga34      1.0  0.45580112  0.053909075000000035  0.49372685238218356  1.0000
  Ga  Ga35      1.0  0.12246778000000003  0.05390907500000002  0.46497750720433123  1.0000
  Ga  Ga36      1.0  0.78599457  0.03460540500000003  0.5208198936693186  1.0000
  Ga  Ga37      1.0  0.31892491000000006  0.8273538450000001  0.5357016823029774  1.0000
  Ga  Ga38      1.0  0.16408376000000002  0.7847359650000002  0.5028765031971183  1.0000
  Ga  Ga39      1.0  0.8307504199999999  0.7847359650000002  0.4741271580192661  1.0000
  Ga  Ga40      1.0  0.46560266000000006  0.284735965  0.45086567551420736  1.0000
  Ga  Ga41      1.0  0.13204736000000003  0.265955745  0.513724719441872  1.0000
  Ga  Ga42      1.0  0.798936  0.284735965  0.4796150206920596  1.0000
  Ga  Ga43      1.0  0.3711987000000001  0.33542167500000003  0.4841337003511095  1.0000
  Ga  Ga44      1.0  0.03786537000000004  0.33542167500000003  0.4553843551732572  1.0000
  Ga  Ga45      1.0  0.7131449599999999  0.32690937500000006  0.5116002887949251  1.0000
  Ga  Ga46      1.0  0.05643244000000004  0.8354216750000001  0.4521816066939585  1.0000
  Ga  Ga47      1.0  0.7159114900000001  0.813651765  0.511148635414141  1.0000
  Ga  Ga48      1.0  0.38976578000000006  0.8354216750000001  0.4809309518718108  1.0000
  Ga  Ga49      1.0  0.55251773  0.602447485  0.5104693286094995  1.0000
  Ga  Ga50      1.0  0.22014975  0.591102015  0.48222109488790593  1.0000
  Ga  Ga51      1.0  0.88681642  0.591102015  0.45347174971005366  1.0000
  Ga  Ga52      1.0  0.32463237000000006  0.09110201500000004  0.464198252722194  1.0000
  Ga  Ga53      1.0  0.9730427700000001  0.08872393500000005  0.522162668688723  1.0000
  Ga  Ga54      1.0  0.6579657000000001  0.09110201500000004  0.4929476013499678  1.0000
  Rh  Rh1       1.0  0.22968692000000002  0.712704385  0.5213736405788082  1.0000
  Rh  Rh2       1.0  0.8909257899999999  0.7206479250000001  0.4940641236136675  1.0000
  Rh  Rh3       1.0  0.55759245  0.720647925  0.46531477843581537  1.0000
  Rh  Rh4       1.0  0.31224003000000006  0.217004525  0.5081381510633444  1.0000
  Rh  Rh5       1.0  0.9731001199999999  0.22064792500000005  0.479889375704066  1.0000
  Rh  Rh6       1.0  0.63976679  0.22064792500000008  0.45114002707629214  1.0000
  Rh  Rh7       1.0  0.29881665  0.383533865  0.4650696753087106  1.0000
  Rh  Rh8       1.0  0.96702174  0.38954403499999996  0.522649356022942  1.0000
  Rh  Rh9       1.0  0.6321499799999999  0.38353386500000003  0.4938190204865628  1.0000
  Rh  Rh10      1.0  0.55601645  0.883737005  0.507199617152734  1.0000
  Rh  Rh11      1.0  0.21828029000000002  0.883533865  0.47896188154244546  1.0000
  Rh  Rh12      1.0  0.88494696  0.883533865  0.45021253291467167  1.0000
