data_image0
_chemical_formula_structural       COAs4Ru4As4Ru4As4Ru4
_chemical_formula_sum              "C1 O1 As12 Ru12"
_cell_length_a       7.272288914927926
_cell_length_b       5.78527035
_cell_length_c       103.63751160000001
_cell_angle_alpha    90.0
_cell_angle_beta     62.448632319701694
_cell_angle_gamma    90.0

_space_group_name_H-M_alt    "P 1"
_space_group_IT_number       1

loop_
  _space_group_symop_operation_xyz
  'x, y, z'

loop_
  _atom_site_type_symbol
  _atom_site_label
  _atom_site_symmetry_multiplicity
  _atom_site_fract_x
  _atom_site_fract_y
  _atom_site_fract_z
  _atom_site_occupancy
  C   C1        1.0  0.67343471  0.511323705  0.5527589773763046  1.0000
  O   O1        1.0  0.6078594899999998  0.5781871350000001  0.5644861672613948  1.0000
  As  As1       1.0  0.19233407  0.751890405  0.5229737386909135  1.0000
  As  As2       1.0  0.9290955599999999  0.305433365  0.5121477110697603  1.0000
  As  As3       1.0  0.42134544999999995  0.202329225  0.5144542533607196  1.0000
  As  As4       1.0  0.55288386  0.806245235  0.5231407228909466  1.0000
  Ru  Ru1       1.0  0.6943166699999999  0.503697325  0.5029689094890231  1.0000
  Ru  Ru2       1.0  0.28388391  0.503699775  0.501357194530332  1.0000
  Ru  Ru3       1.0  0.8007460799999999  0.0037081549999999994  0.499225357933184  1.0000
  Ru  Ru4       1.0  0.20418331  0.998503235  0.5028603152314287  1.0000
  As  As5       1.0  0.06817237000000001  0.699608065  0.4916021793164056  1.0000
  As  As6       1.0  0.9318276299999999  0.3067145050000001  0.4797990630320116  1.0000
  As  As7       1.0  0.43182763  0.199608065  0.4797990630320116  1.0000
  As  As8       1.0  0.5681723699999999  0.8067145049999999  0.49160217931640554  1.0000
  Ru  Ru5       1.0  0.70374001  0.504825805  0.4709736325792952  1.0000
  Ru  Ru6       1.0  0.29625999  0.5014967650000001  0.4679707212538636  1.0000
  Ru  Ru7       1.0  0.7962599899999999  0.004825804999999999  0.4679707212538635  1.0000
  Ru  Ru8       1.0  0.20374001  0.0014967649999999555  0.4709736325792953  1.0000
  As  As9       1.0  0.06817237000000001  0.699608065  0.4591452908011472  1.0000
  As  As10      1.0  0.9318276299999999  0.3067145050000001  0.4473421745167531  1.0000
  As  As11      1.0  0.43182763  0.199608065  0.4473421745167531  1.0000
  As  As12      1.0  0.5681723699999999  0.8067145049999999  0.4591452908011472  1.0000
  Ru  Ru9       1.0  0.70374001  0.504825805  0.43851674406403673  1.0000
  Ru  Ru10      1.0  0.29625999  0.5014967650000001  0.4355138327386051  1.0000
  Ru  Ru11      1.0  0.7962599899999999  0.004825804999999999  0.4355138327386051  1.0000
  Ru  Ru12      1.0  0.20374001  0.0014967649999999555  0.4385167440640368  1.0000
