data_image0
_chemical_formula_structural       COSn2Ir2Sn2Ir2Sn2Ir2Sn2Ir2
_chemical_formula_sum              "C1 O1 Sn8 Ir8"
_cell_length_a       8.092313033057874
_cell_length_b       5.69371498
_cell_length_c       102.36925215
_cell_angle_alpha    90.0
_cell_angle_beta     120.000000028378
_cell_angle_gamma    90.0

_space_group_name_H-M_alt    "P 1"
_space_group_IT_number       1

loop_
  _space_group_symop_operation_xyz
  'x, y, z'

loop_
  _atom_site_type_symbol
  _atom_site_label
  _atom_site_symmetry_multiplicity
  _atom_site_fract_x
  _atom_site_fract_y
  _atom_site_fract_z
  _atom_site_occupancy
  C   C1        1.0  0.34634328500000006  0.21900667  0.5332025341849781  1.0000
  O   O1        1.0  0.429003275  0.2704184  0.5463590728355102  1.0000
  Sn  Sn1       1.0  0.175646675  0.84671221  0.46681596356909355  1.0000
  Sn  Sn2       1.0  0.34231333500000005  0.34671221  0.4536409271644897  1.0000
  Ir  Ir1       1.0  0.008980005000000027  0.59671221  0.4799910031357066  1.0000
  Ir  Ir2       1.0  0.008980005000000027  0.09671221  0.4799910031357066  1.0000
  Sn  Sn3       1.0  0.17918344500000002  0.8001676  0.5066774852702891  1.0000
  Sn  Sn4       1.0  0.345735405  0.34793270000000004  0.49368932677395744  1.0000
  Ir  Ir3       1.0  0.991019995  0.60027538  0.5183180966115387  1.0000
  Ir  Ir4       1.0  0.06901168500000003  0.11767232000000001  0.519548247849455  1.0000
  Sn  Sn5       1.0  0.6756466750000002  0.84671221  0.46681596356909355  1.0000
  Sn  Sn6       1.0  0.842313335  0.34671221  0.4536409271644897  1.0000
  Ir  Ir5       1.0  0.5089800050000001  0.59671221  0.4799910031357066  1.0000
  Ir  Ir6       1.0  0.5089800050000001  0.09671221  0.4799910031357066  1.0000
  Sn  Sn7       1.0  0.7072432550000001  0.9032877899999999  0.5111353965714313  1.0000
  Sn  Sn8       1.0  0.844742425  0.34880969  0.4936750439782066  1.0000
  Ir  Ir7       1.0  0.514008965  0.6002232  0.5182921143815888  1.0000
  Ir  Ir8       1.0  0.451904805  0.11698390000000002  0.519638545347408  1.0000
