data_image0
_chemical_formula_structural       COPt4Sn16
_chemical_formula_sum              "C1 O1 Pt4 Sn16"
_cell_length_a       6.58558482
_cell_length_b       6.699884763400447
_cell_length_c       30.578161719999997
_cell_angle_alpha    90.0
_cell_angle_beta     90.0
_cell_angle_gamma    119.43724672491045

_space_group_name_H-M_alt    "P 1"
_space_group_IT_number       1

loop_
  _space_group_symop_operation_xyz
  'x, y, z'

loop_
  _atom_site_type_symbol
  _atom_site_label
  _atom_site_symmetry_multiplicity
  _atom_site_fract_x
  _atom_site_fract_y
  _atom_site_fract_z
  _atom_site_occupancy
  C   C1        1.0  0.48712222999999993  0.10380295499999997  0.703763536723919  1.0000
  O   O1        1.0  0.46235330999999996  0.10509596499999997  0.7419538110589535  1.0000
  Pt  Pt1       1.0  0.020441699999999983  0.10840693499999998  0.47291542069379683  1.0000
  Pt  Pt2       1.0  0.52300107  0.10898271499999998  0.5780285334314548  1.0000
  Pt  Pt3       1.0  0.020441699999999983  0.10840693499999998  0.2580461889410468  1.0000
  Pt  Pt4       1.0  0.5204417  0.10840693499999998  0.36548080481742196  1.0000
  Sn  Sn1       1.0  0.7562790500000001  0.389370665  0.649224772936421  1.0000
  Sn  Sn2       1.0  0.2825123199999999  0.8097780349999999  0.6456351459202513  1.0000
  Sn  Sn3       1.0  0.061325100000000014  0.857601775  0.5445472860966437  1.0000
  Sn  Sn4       1.0  0.9795583  0.35921209499999995  0.5445472860966437  1.0000
  Sn  Sn5       1.0  0.2783767999999999  0.32296923499999997  0.619912319762982  1.0000
  Sn  Sn6       1.0  0.77386016  0.896197045  0.6217546473061849  1.0000
  Sn  Sn7       1.0  0.4795582999999999  0.35921209499999995  0.5087181840594793  1.0000
  Sn  Sn8       1.0  0.5613251  0.857601775  0.5087181840594793  1.0000
  Sn  Sn9       1.0  0.81213026  0.35921209499999995  0.4371126702202687  1.0000
  Sn  Sn10      1.0  0.22875313999999997  0.857601775  0.4371126702202687  1.0000
  Sn  Sn11      1.0  0.061325100000000014  0.857601775  0.3296780414517393  1.0000
  Sn  Sn12      1.0  0.9795583  0.35921209499999995  0.3296780414517393  1.0000
  Sn  Sn13      1.0  0.3121302599999999  0.35921209499999995  0.40128356818310434  1.0000
  Sn  Sn14      1.0  0.7287531399999999  0.857601775  0.40128356818310434  1.0000
  Sn  Sn15      1.0  0.4795582999999999  0.35921209499999995  0.29384893941457496  1.0000
  Sn  Sn16      1.0  0.5613251  0.857601775  0.29384893941457496  1.0000
