data_image0
_chemical_formula_structural       COIn3Ag9
_chemical_formula_sum              "C1 O1 In3 Ag9"
_cell_length_a       6.07915207
_cell_length_b       6.079152062226982
_cell_length_c       99.78164126
_cell_angle_alpha    90.0
_cell_angle_beta     90.0
_cell_angle_gamma    60.000000012118136

_space_group_name_H-M_alt    "P 1"
_space_group_IT_number       1

loop_
  _space_group_symop_operation_xyz
  'x, y, z'

loop_
  _atom_site_type_symbol
  _atom_site_label
  _atom_site_symmetry_multiplicity
  _atom_site_fract_x
  _atom_site_fract_y
  _atom_site_fract_z
  _atom_site_occupancy
  C   C1        1.0  0.43542474999999997  0.466884345  0.5355632240211152  1.0000
  O   O1        1.0  0.3133117900000001  0.42366657499999993  0.5427776348221433  1.0000
  In  In1       1.0  0.6778273699999999  0.681351425  0.45722236517785675  1.0000
  In  In2       1.0  0.00024980000000003773  0.0014149049999999592  0.5082380714711094  1.0000
  In  In3       1.0  0.3435889399999999  0.345310725  0.48280405785093783  1.0000
  Ag  Ag1       1.0  0.8429969900000001  0.842486715  0.4819811543161325  1.0000
  Ag  Ag2       1.0  0.17782737  0.18135142499999998  0.45722236517785675  1.0000
  Ag  Ag3       1.0  0.5001164299999998  0.504336355  0.5102232636824426  1.0000
  Ag  Ag4       1.0  0.8391097900000001  0.3421004449999999  0.48270474257606233  1.0000
  Ag  Ag5       1.0  0.17782737  0.681351425  0.45722236517785675  1.0000
  Ag  Ag6       1.0  0.5063730699999999  0.9985850950000001  0.5068590352284972  1.0000
  Ag  Ag7       1.0  0.33952446999999986  0.8435297250000001  0.48255729334362363  1.0000
  Ag  Ag8       1.0  0.6778273699999999  0.18135142499999998  0.45722236517785675  1.0000
  Ag  Ag9       1.0  0.9997502  0.5029667649999999  0.5068532240537358  1.0000
