data_image0
_chemical_formula_structural       COSi20Pd20
_chemical_formula_sum              "C1 O1 Si20 Pd20"
_cell_length_a       8.986422146976608
_cell_length_b       9.34415382901125
_cell_length_c       106.37453595
_cell_angle_alpha    80.42456909926169
_cell_angle_beta     84.67963817078129
_cell_angle_gamma    54.48014694064798

_space_group_name_H-M_alt    "P 1"
_space_group_IT_number       1

loop_
  _space_group_symop_operation_xyz
  'x, y, z'

loop_
  _atom_site_type_symbol
  _atom_site_label
  _atom_site_symmetry_multiplicity
  _atom_site_fract_x
  _atom_site_fract_y
  _atom_site_fract_z
  _atom_site_occupancy
  C   C1        1.0  0.16047404499999998  0.11658175500000001  0.5437878026849916  1.0000
  O   O1        1.0  0.171727655  0.03153202500000001  0.5536571301600425  1.0000
  Si  Si1       1.0  0.12349681500000001  0.525087965  0.4824231816307973  1.0000
  Si  Si2       1.0  0.923496815  0.325087965  0.49952057041146253  1.0000
  Si  Si3       1.0  0.7334634449999999  0.127575785  0.5168706380814395  1.0000
  Si  Si4       1.0  0.32349681499999994  0.725087965  0.465325792850132  1.0000
  Si  Si5       1.0  0.5234968149999999  0.925087965  0.4482284040694668  1.0000
  Si  Si6       1.0  0.4712838649999999  0.079725285  0.5093802891540188  1.0000
  Si  Si7       1.0  0.27106723499999996  0.8804242950000001  0.5241424516049433  1.0000
  Si  Si8       1.0  0.06923299499999992  0.679172865  0.456746507811793  1.0000
  Si  Si9       1.0  0.669232995  0.279172865  0.4909412853731235  1.0000
  Si  Si10      1.0  0.869232995  0.479172865  0.4738438965924583  1.0000
  Si  Si11      1.0  0.682006005  0.937324195  0.4774214123520466  1.0000
  Si  Si12      1.0  0.4820060049999999  0.7373241950000001  0.4945188011327118  1.0000
  Si  Si13      1.0  0.285794345  0.552171805  0.512692552604586  1.0000
  Si  Si14      1.0  0.8820060049999999  0.13732419500000004  0.4603240235713813  1.0000
  Si  Si15      1.0  0.138617585  0.307974275  0.5328228369226202  1.0000
  Si  Si16      1.0  0.9226472149999999  0.675075585  0.5127826113902493  1.0000
  Si  Si17      1.0  0.8303506849999999  0.48869936500000005  0.524654747503934  1.0000
  Si  Si18      1.0  0.5107238049999998  0.266936635  0.4617482770905438  1.0000
  Si  Si19      1.0  0.11072380499999988  0.8669366350000001  0.4959430546518743  1.0000
  Si  Si20      1.0  0.31072380499999996  0.06693663500000001  0.478845665871209  1.0000
  Pd  Pd1       1.0  0.772473415  0.9650831550000001  0.4976350361819531  1.0000
  Pd  Pd2       1.0  0.5667041650000001  0.771345565  0.514651636381152  1.0000
  Pd  Pd3       1.0  0.372473415  0.565083155  0.44634286983995747  1.0000
  Pd  Pd4       1.0  0.9724734149999997  0.16508315500000004  0.48053764740128796  1.0000
  Pd  Pd5       1.0  0.172473415  0.365083155  0.46344025862062277  1.0000
  Pd  Pd6       1.0  0.8202563949999998  0.639177675  0.49282681960263286  1.0000
  Pd  Pd7       1.0  0.6225862449999999  0.439701375  0.5100533517997139  1.0000
  Pd  Pd8       1.0  0.42605825499999994  0.261376955  0.5248683588598818  1.0000
  Pd  Pd9       1.0  0.020256394999999996  0.839177675  0.47572943082196756  1.0000
  Pd  Pd10      1.0  0.22025639500000002  0.039177675  0.45863204204130237  1.0000
  Pd  Pd11      1.0  0.425333615  0.23579285500000002  0.48456748483950196  1.0000
  Pd  Pd12      1.0  0.22953937500000005  0.03932927500000001  0.500851297794517  1.0000
  Pd  Pd13      1.0  0.03605695499999998  0.847965775  0.5181500903955407  1.0000
  Pd  Pd14      1.0  0.6253336149999998  0.43579285500000003  0.46747009605883677  1.0000
  Pd  Pd15      1.0  0.825333615  0.6357928550000002  0.4503727072781715  1.0000
  Pd  Pd16      1.0  0.156937775  0.37276784500000004  0.5056586697628316  1.0000
  Pd  Pd17      1.0  0.979743605  0.17534309500000003  0.5219232720918127  1.0000
  Pd  Pd18      1.0  0.7673961950000001  0.968467975  0.45460220460308837  1.0000
  Pd  Pd19      1.0  0.36739619499999987  0.5684679750000001  0.4887969821644188  1.0000
  Pd  Pd20      1.0  0.5673961949999999  0.768467975  0.4716995933837536  1.0000
