data_image0
_chemical_formula_structural       COMo3Zn21
_chemical_formula_sum              "C1 O1 Mo3 Zn21"
_cell_length_a       5.58416259093881
_cell_length_b       5.58416259
_cell_length_c       111.03504698
_cell_angle_alpha    90.0
_cell_angle_beta     90.0
_cell_angle_gamma    120.00000005367711

_space_group_name_H-M_alt    "P 1"
_space_group_IT_number       1

loop_
  _space_group_symop_operation_xyz
  'x, y, z'

loop_
  _atom_site_type_symbol
  _atom_site_label
  _atom_site_symmetry_multiplicity
  _atom_site_fract_x
  _atom_site_fract_y
  _atom_site_fract_z
  _atom_site_occupancy
  C   C1        1.0  0.24778574000000003  0.583481225  0.5547837934702278  1.0000
  O   O1        1.0  0.24811990000000003  0.583940025  0.5654270018158848  1.0000
  Mo  Mo1       1.0  0.24804039  0.583333335  0.49616773254156155  1.0000
  Mo  Mo2       1.0  0.5816882099999999  0.24881996499999992  0.5355402475306426  1.0000
  Mo  Mo3       1.0  0.9147070500000001  0.9166666650000002  0.45510457507136914  1.0000
  Zn  Zn1       1.0  0.9147070500000001  0.41666666500000005  0.45510457507136914  1.0000
  Zn  Zn2       1.0  0.24804039  0.083333335  0.49616773254156155  1.0000
  Zn  Zn3       1.0  0.58537129  0.751089265  0.5400003877142892  1.0000
  Zn  Zn4       1.0  0.41470705  0.9166666650000002  0.45510457507136914  1.0000
  Zn  Zn5       1.0  0.7480403900000001  0.583333335  0.49616773254156155  1.0000
  Zn  Zn6       1.0  0.07950451000000001  0.245487425  0.540024472488281  1.0000
  Zn  Zn7       1.0  0.7480403900000001  0.08333333500000001  0.4345729981841151  1.0000
  Zn  Zn8       1.0  0.08137372000000001  0.749999995  0.4756361556543075  1.0000
  Zn  Zn9       1.0  0.41228543  0.41937546500000006  0.5166708822258779  1.0000
  Zn  Zn10      1.0  0.24804039  0.083333335  0.4345729981841151  1.0000
  Zn  Zn11      1.0  0.58137372  0.749999995  0.4756361556543075  1.0000
  Zn  Zn12      1.0  0.9206544500000001  0.41990335500000003  0.516672545283772  1.0000
  Zn  Zn13      1.0  0.7480403900000001  0.583333335  0.4345729981841151  1.0000
  Zn  Zn14      1.0  0.08137372000000001  0.24999999499999997  0.4756361556543075  1.0000
  Zn  Zn15      1.0  0.41151611000000005  0.9104969049999999  0.5166724048477721  1.0000
  Zn  Zn16      1.0  0.41470705  0.416666665  0.45510457507136914  1.0000
  Zn  Zn17      1.0  0.7480403900000001  0.08333333500000001  0.49616773254156155  1.0000
  Zn  Zn18      1.0  0.07934555000000001  0.750897965  0.5399566899441988  1.0000
  Zn  Zn19      1.0  0.58137372  0.24999999499999997  0.4756361556543075  1.0000
  Zn  Zn20      1.0  0.9156509400000002  0.9166156750000001  0.520311907265697  1.0000
  Zn  Zn21      1.0  0.24804039  0.583333335  0.4345729981841151  1.0000
