data_image0
_chemical_formula_structural       COFe2As4Fe2As4Fe2As4Fe2As4
_chemical_formula_sum              "C1 O1 Fe8 As16"
_cell_length_a       5.81176974
_cell_length_b       6.02902119
_cell_length_c       102.06938410000001
_cell_angle_alpha    90.0
_cell_angle_beta     90.0
_cell_angle_gamma    90.0

_space_group_name_H-M_alt    "P 1"
_space_group_IT_number       1

loop_
  _space_group_symop_operation_xyz
  'x, y, z'

loop_
  _atom_site_type_symbol
  _atom_site_label
  _atom_site_symmetry_multiplicity
  _atom_site_fract_x
  _atom_site_fract_y
  _atom_site_fract_z
  _atom_site_occupancy
  C   C1        1.0  0.62496911  0.187331735  0.5495686912302421  1.0000
  O   O1        1.0  0.62495987  0.30980041500000005  0.5585495899672087  1.0000
  Fe  Fe1       1.0  0.12499999999999997  0.015857485000000015  0.48443412233459127  1.0000
  Fe  Fe2       1.0  0.375  0.5158574850000001  0.4582514565757405  1.0000
  As  As1       1.0  0.12499999999999997  0.655117115  0.47505249997676974  1.0000
  As  As2       1.0  0.12499999999999997  0.3765978550000001  0.4414504100327913  1.0000
  As  As3       1.0  0.375  0.8765978550000001  0.44886983421791904  1.0000
  As  As4       1.0  0.375  0.155117115  0.46763307893356204  1.0000
  Fe  Fe3       1.0  0.12510696  0.00022476500000001565  0.535271227098071  1.0000
  Fe  Fe4       1.0  0.37542689  0.510926085  0.510760370696287  1.0000
  As  As5       1.0  0.12501390999999998  0.6658712250000001  0.5268086886093059  1.0000
  As  As6       1.0  0.12499999999999997  0.3765978550000001  0.49381574469241274  1.0000
  As  As7       1.0  0.375  0.8765978550000001  0.5012351657356204  1.0000
  As  As8       1.0  0.37958305999999997  0.15009378500000004  0.5204502248335106  1.0000
  Fe  Fe5       1.0  0.625  0.015857485000000015  0.48443412233459127  1.0000
  Fe  Fe6       1.0  0.8750000000000001  0.5158574850000001  0.4582514565757405  1.0000
  As  As9       1.0  0.625  0.655117115  0.47505249997676974  1.0000
  As  As10      1.0  0.625  0.3765978550000001  0.4414504100327913  1.0000
  As  As11      1.0  0.8750000000000001  0.8765978550000001  0.44886983421791904  1.0000
  As  As12      1.0  0.8750000000000001  0.155117115  0.46763307893356204  1.0000
  Fe  Fe7       1.0  0.6249821999999999  0.999775235  0.5359405063323566  1.0000
  Fe  Fe8       1.0  0.8745941399999999  0.5109293450000001  0.5107610682025306  1.0000
  As  As13      1.0  0.62503662  0.661473285  0.5267329651949825  1.0000
  As  As14      1.0  0.625  0.3765978550000001  0.49381574469241274  1.0000
  As  As15      1.0  0.8750000000000001  0.8765978550000001  0.5012351657356204  1.0000
  As  As16      1.0  0.8704587399999999  0.15006497500000002  0.5204565746538644  1.0000
