data_image0
_chemical_formula_structural       COAs8Pd4As8Pd4
_chemical_formula_sum              "C1 O1 As16 Pd8"
_cell_length_a       6.12062467
_cell_length_b       6.12062467
_cell_length_c       106.72374802
_cell_angle_alpha    90.0
_cell_angle_beta     90.0
_cell_angle_gamma    90.0

_space_group_name_H-M_alt    "P 1"
_space_group_IT_number       1

loop_
  _space_group_symop_operation_xyz
  'x, y, z'

loop_
  _atom_site_type_symbol
  _atom_site_label
  _atom_site_symmetry_multiplicity
  _atom_site_fract_x
  _atom_site_fract_y
  _atom_site_fract_z
  _atom_site_occupancy
  C   C1        1.0  0.91353267  0.31847844000000003  0.561276805171318  1.0000
  O   O1        1.0  0.8137617400000001  0.3916886400000001  0.5693661997905534  1.0000
  As  As1       1.0  0.09444189000000001  0.10010958000000002  0.5243926950827035  1.0000
  As  As2       1.0  0.71409521  0.75096411  0.5367403911460049  1.0000
  As  As3       1.0  0.31997431000000004  0.38694349  0.49467979771991105  1.0000
  As  As4       1.0  0.83092577  0.61633747  0.5097821908678906  1.0000
  As  As5       1.0  0.59826267  0.40921820000000003  0.5242624907067226  1.0000
  As  As6       1.0  0.12740216000000001  0.74691367  0.5369792350885301  1.0000
  As  As7       1.0  0.81997431  0.12045047000000002  0.49467979771991105  1.0000
  As  As8       1.0  0.32838684000000007  0.89602004  0.510061119135472  1.0000
  Pd  Pd1       1.0  0.70322082  0.5036969800000001  0.48798396740246436  1.0000
  Pd  Pd2       1.0  0.21688259000000001  0.52034546  0.5173386693921732  1.0000
  Pd  Pd3       1.0  0.7174566  0.99630302  0.517181236304357  1.0000
  Pd  Pd4       1.0  0.20322082  0.00369698000000001  0.48798396740246436  1.0000
  As  As9       1.0  0.08646733000000001  0.12045047000000002  0.4660047158439072  1.0000
  As  As10      1.0  0.5864673300000001  0.8869434900000001  0.4812881336440077  1.0000
  As  As11      1.0  0.31997431000000004  0.38694349  0.43732963396790325  1.0000
  As  As12      1.0  0.81997431  0.6204504700000001  0.45261305176800376  1.0000
  As  As13      1.0  0.5864673300000001  0.38694349  0.4660047158439072  1.0000
  As  As14      1.0  0.08646733000000001  0.6204504700000001  0.4812881336440077  1.0000
  As  As15      1.0  0.81997431  0.12045047000000002  0.43732963396790325  1.0000
  As  As16      1.0  0.31997431000000004  0.8869434900000001  0.45261305176800376  1.0000
  Pd  Pd5       1.0  0.70322082  0.5036969800000001  0.43063380020944664  1.0000
  Pd  Pd6       1.0  0.20322082  0.5036969800000001  0.45930888552646043  1.0000
  Pd  Pd7       1.0  0.70322082  0.00369698000000001  0.45930888552646043  1.0000
  Pd  Pd8       1.0  0.20322082  0.00369698000000001  0.43063380020944664  1.0000
