data_image0
_chemical_formula_structural       COSb2Pt2Sb2Pt2Sb2Pt2Sb2Pt2
_chemical_formula_sum              "C1 O1 Sb8 Pt8"
_cell_length_a       8.464450081433078
_cell_length_b       5.62140658
_cell_length_c       103.85780034
_cell_angle_alpha    90.0
_cell_angle_beta     119.99999999439942
_cell_angle_gamma    90.0

_space_group_name_H-M_alt    "P 1"
_space_group_IT_number       1

loop_
  _space_group_symop_operation_xyz
  'x, y, z'

loop_
  _atom_site_type_symbol
  _atom_site_label
  _atom_site_symmetry_multiplicity
  _atom_site_fract_x
  _atom_site_fract_y
  _atom_site_fract_z
  _atom_site_occupancy
  C   C1        1.0  0.5657977800000001  0.37845023  0.5342781775537947  1.0000
  O   O1        1.0  0.6216313200000001  0.37844387999999995  0.5472864595586132  1.0000
  Sb  Sb1       1.0  0.17685569  0.8784532599999999  0.46629693476031425  1.0000
  Sb  Sb2       1.0  0.34352235000000003  0.37845325999999996  0.4527135404413868  1.0000
  Pt  Pt1       1.0  0.010189020000000019  0.62845326  0.4798803323392569  1.0000
  Pt  Pt2       1.0  0.010189020000000019  0.12845325999999996  0.4798803323392569  1.0000
  Sb  Sb3       1.0  0.17213804000000002  0.8784509999999999  0.5075145549905474  1.0000
  Sb  Sb4       1.0  0.3351638900000001  0.3784537299999999  0.4920007655158305  1.0000
  Pt  Pt3       1.0  0.9898090500000001  0.6196032599999999  0.5172605202665193  1.0000
  Pt  Pt4       1.0  0.98981098  0.13729682999999995  0.5172605822068073  1.0000
  Sb  Sb5       1.0  0.67685569  0.8784532599999999  0.46629693476031425  1.0000
  Sb  Sb6       1.0  0.8435223500000001  0.37845325999999996  0.4527135404413868  1.0000
  Pt  Pt5       1.0  0.5101890200000001  0.62845326  0.479880332339257  1.0000
  Pt  Pt6       1.0  0.5101890200000001  0.12845325999999996  0.479880332339257  1.0000
  Sb  Sb7       1.0  0.6880838400000001  0.8784512099999999  0.5074646115583247  1.0000
  Sb  Sb8       1.0  0.8357410500000001  0.37845365999999997  0.4921040656161466  1.0000
  Pt  Pt7       1.0  0.49736820000000004  0.6353603  0.5185705769179108  1.0000
  Pt  Pt8       1.0  0.49736718000000013  0.12154673999999996  0.5185700455354401  1.0000
