data_image0
_chemical_formula_structural       COIn24Ir8
_chemical_formula_sum              "C1 O1 In24 Ir8"
_cell_length_a       7.62495002
_cell_length_b       10.078630739998786
_cell_length_c       29.685477040000002
_cell_angle_alpha    113.70726749661404
_cell_angle_beta     90.0
_cell_angle_gamma    90.0

_space_group_name_H-M_alt    "P 1"
_space_group_IT_number       1

loop_
  _space_group_symop_operation_xyz
  'x, y, z'

loop_
  _atom_site_type_symbol
  _atom_site_label
  _atom_site_symmetry_multiplicity
  _atom_site_fract_x
  _atom_site_fract_y
  _atom_site_fract_z
  _atom_site_occupancy
  C   C1        1.0  0.9188386700000001  0.17545334999999998  0.6667994832997096  1.0000
  O   O1        1.0  0.9349394599999999  0.22902781999999997  0.7097872201468827  1.0000
  In  In1       1.0  0.33097202000000003  0.9596294300000001  0.45996970722907726  1.0000
  In  In2       1.0  0.33097202000000003  0.45962943  0.2902127798531176  1.0000
  In  In3       1.0  0.48323307000000004  0.3339893  0.5207238510010092  1.0000
  In  In4       1.0  0.48129724000000007  0.8273867  0.34918626852075496  1.0000
  In  In5       1.0  0.8309720200000001  0.04037056999999996  0.35561202996077745  1.0000
  In  In6       1.0  0.8633982600000001  0.55628931  0.5278680780799037  1.0000
  In  In7       1.0  0.5218420200000001  0.6726133  0.4663954686690998  1.0000
  In  In8       1.0  0.5218420200000001  0.17261329999999994  0.29663854129314016  1.0000
  In  In9       1.0  0.17216724000000003  0.9596294300000001  0.2902127798531176  1.0000
  In  In10      1.0  0.17216724000000003  0.45962943  0.45996970722907726  1.0000
  In  In11      1.0  0.9812972400000001  0.17261329999999994  0.4663954686690998  1.0000
  In  In12      1.0  0.9812972400000001  0.6726133  0.29663854129314016  1.0000
  In  In13      1.0  0.6506203500000001  0.048301169999999956  0.5273195594961665  1.0000
  In  In14      1.0  0.67216724  0.54037057  0.35561202996077745  1.0000
  In  In15      1.0  0.018702760000000016  0.83899389  0.521416798778558  1.0000
  In  In16      1.0  0.021842020000000018  0.3273866999999999  0.34918626852075496  1.0000
  In  In17      1.0  0.8309720200000001  0.84631309  0.421497233039021  1.0000
  In  In18      1.0  0.84276074  0.36129726999999995  0.5927533042114692  1.0000
  In  In19      1.0  0.33097202000000003  0.15368690999999995  0.3940845041508338  1.0000
  In  In20      1.0  0.30063535  0.66800773  0.5719387690598559  1.0000
  In  In21      1.0  0.20593350000000002  0.17033513999999997  0.5725256119675175  1.0000
  In  In22      1.0  0.17216724000000003  0.65368691  0.3940845041508338  1.0000
  In  In23      1.0  0.65658446  0.86211614  0.5950274359133684  1.0000
  In  In24      1.0  0.67216724  0.34631308999999993  0.4214972330390211  1.0000
  Ir  Ir1       1.0  0.36548979000000004  0.89678531  0.5404876586749363  1.0000
  Ir  Ir2       1.0  0.37483047  0.4048063599999999  0.37547130893066083  1.0000
  Ir  Ir3       1.0  0.62830879  0.09519363999999995  0.44011042825919394  1.0000
  Ir  Ir4       1.0  0.6205510900000001  0.57805305  0.5903340507074948  1.0000
  Ir  Ir5       1.0  0.12830879  0.90480636  0.3754713089306609  1.0000
  Ir  Ir6       1.0  0.13781717000000002  0.39604470999999997  0.5409703794736226  1.0000
  Ir  Ir7       1.0  0.8865914200000001  0.09105361999999996  0.5986746295466554  1.0000
  Ir  Ir8       1.0  0.8748304700000001  0.59519364  0.440110428259194  1.0000
