data_image0
_chemical_formula_structural       COAs36
_chemical_formula_sum              "C1 O1 As36"
_cell_length_a       10.69744317
_cell_length_b       10.204611780703827
_cell_length_c       100.85584569
_cell_angle_alpha    79.10660533359435
_cell_angle_beta     90.0
_cell_angle_gamma    90.0

_space_group_name_H-M_alt    "P 1"
_space_group_IT_number       1

loop_
  _space_group_symop_operation_xyz
  'x, y, z'

loop_
  _atom_site_type_symbol
  _atom_site_label
  _atom_site_symmetry_multiplicity
  _atom_site_fract_x
  _atom_site_fract_y
  _atom_site_fract_z
  _atom_site_occupancy
  C   C1        1.0  0.8516924300000001  0.185712385  0.5453770864861983  1.0000
  O   O1        1.0  0.85115249  0.25113689499999997  0.553469694215856  1.0000
  As  As1       1.0  0.22168779  0.7221014050000001  0.4677761465043055  1.0000
  As  As2       1.0  0.22168779  0.388768065  0.4550286420722086  1.0000
  As  As3       1.0  0.22168779  0.05543473499999999  0.4805236509364023  1.0000
  As  As4       1.0  0.10038154000000002  0.6109902949999999  0.45077947392817636  1.0000
  As  As5       1.0  0.10038154000000002  0.277656955  0.4762744827923701  1.0000
  As  As6       1.0  0.10038154000000002  0.944323625  0.46352697836027323  1.0000
  As  As7       1.0  0.8883544600000001  0.8332125149999999  0.44653030578414404  1.0000
  As  As8       1.0  0.8883544600000001  0.49987917499999995  0.4720253146483378  1.0000
  As  As9       1.0  0.8883544600000001  0.166545845  0.459277810216241  1.0000
  As  As10      1.0  0.7670482099999999  0.7221014050000001  0.4677761465043055  1.0000
  As  As11      1.0  0.7670482099999999  0.388768065  0.4550286420722086  1.0000
  As  As12      1.0  0.7670482099999999  0.05543473499999999  0.4805236509364023  1.0000
  As  As13      1.0  0.55502112  0.6109902949999999  0.45077947392817636  1.0000
  As  As14      1.0  0.55502112  0.277656955  0.4762744827923701  1.0000
  As  As15      1.0  0.55502112  0.944323625  0.46352697836027323  1.0000
  As  As16      1.0  0.43371488  0.8332125149999999  0.44653030578414404  1.0000
  As  As17      1.0  0.43371488  0.49987917499999995  0.4720253146483378  1.0000
  As  As18      1.0  0.43371488  0.166545845  0.459277810216241  1.0000
  As  As19      1.0  0.23745811  0.731245505  0.5065318865255783  1.0000
  As  As20      1.0  0.22949927999999997  0.39632443500000003  0.49701266183763876  1.0000
  As  As21      1.0  0.25749689000000003  0.06919478499999998  0.517606421867249  1.0000
  As  As22      1.0  0.09770673000000003  0.608574205  0.49331988856414427  1.0000
  As  As23      1.0  0.11753680000000001  0.26065440500000003  0.5158526172883844  1.0000
  As  As24      1.0  0.12674286  0.944565265  0.5030512521048699  1.0000
  As  As25      1.0  0.8883544600000001  0.8332125149999999  0.48477281602103384  1.0000
  As  As26      1.0  0.90229327  0.512941765  0.5108445158207983  1.0000
  As  As27      1.0  0.8691676100000001  0.13085271499999998  0.500629231555535  1.0000
  As  As28      1.0  0.7590335899999999  0.714988225  0.5041313582669966  1.0000
  As  As29      1.0  0.7666649400000001  0.370658505  0.4975023617703234  1.0000
  As  As30      1.0  0.73570293  0.9346837849999999  0.5145920187155429  1.0000
  As  As31      1.0  0.54820822  0.6089420050000001  0.4901724106550163  1.0000
  As  As32      1.0  0.5758048100000001  0.28916964500000003  0.5141225781350814  1.0000
  As  As33      1.0  0.51508219  0.913492605  0.5070012322646145  1.0000
  As  As34      1.0  0.43371488  0.8332125149999999  0.48477281602103384  1.0000
  As  As35      1.0  0.4306985200000001  0.48515417499999997  0.509771669616815  1.0000
  As  As36      1.0  0.44236894000000004  0.15297088499999997  0.5008554252956833  1.0000
