data_image0
_chemical_formula_structural       COSb4Ru2Sb4Ru2Sb4Ru2
_chemical_formula_sum              "C1 O1 Sb12 Ru6"
_cell_length_a       6.78165222
_cell_length_b       6.865583586631447
_cell_length_c       105.64653675
_cell_angle_alpha    118.16456663026977
_cell_angle_beta     90.0
_cell_angle_gamma    90.0

_space_group_name_H-M_alt    "P 1"
_space_group_IT_number       1

loop_
  _space_group_symop_operation_xyz
  'x, y, z'

loop_
  _atom_site_type_symbol
  _atom_site_label
  _atom_site_symmetry_multiplicity
  _atom_site_fract_x
  _atom_site_fract_y
  _atom_site_fract_z
  _atom_site_occupancy
  C   C1        1.0  0.019966920000000023  0.10053755  0.5454506639814944  1.0000
  O   O1        1.0  0.040743850000000026  0.11341145999999999  0.5568964082784079  1.0000
  Sb  Sb1       1.0  0.6542128700000001  0.9065287500000001  0.4625759474482325  1.0000
  Sb  Sb2       1.0  0.36907903000000003  0.27171097  0.4431035917215921  1.0000
  Sb  Sb3       1.0  0.8690790299999999  0.40652875  0.4625759474482326  1.0000
  Sb  Sb4       1.0  0.15421287000000006  0.7717109700000001  0.4431035917215921  1.0000
  Ru  Ru1       1.0  0.011645950000000025  0.08911986  0.46817673337608007  1.0000
  Ru  Ru2       1.0  0.51164595  0.58911986  0.4681767333760801  1.0000
  Sb  Sb5       1.0  0.6542128700000001  0.9065287500000001  0.4932498750305682  1.0000
  Sb  Sb6       1.0  0.36907903000000003  0.27171097  0.4737775193039277  1.0000
  Sb  Sb7       1.0  0.8690790299999999  0.40652875  0.4932498750305681  1.0000
  Sb  Sb8       1.0  0.15421287000000006  0.7717109700000001  0.4737775193039277  1.0000
  Ru  Ru3       1.0  0.008606930000000025  0.09668986999999998  0.49899279289763965  1.0000
  Ru  Ru4       1.0  0.51240041  0.59497699  0.4988660368782486  1.0000
  Sb  Sb9       1.0  0.65230281  0.9119563100000001  0.5244038606269817  1.0000
  Sb  Sb10      1.0  0.37262568999999995  0.27219551000000003  0.5046980689473628  1.0000
  Sb  Sb11      1.0  0.84164953  0.40119592  0.5240169961406164  1.0000
  Sb  Sb12      1.0  0.1517379  0.7741634500000001  0.5049656814840561  1.0000
  Ru  Ru5       1.0  0.99139307  0.08804369000000001  0.5273994791852824  1.0000
  Ru  Ru6       1.0  0.52073486  0.58900213  0.5270836604237364  1.0000
