data_image0
_chemical_formula_structural       COSb4Os2Sb4Os2Sb4Os2
_chemical_formula_sum              "C1 O1 Sb12 Os6"
_cell_length_a       6.79375845
_cell_length_b       6.869961141909768
_cell_length_c       37.3087844
_cell_angle_alpha    61.58481277675934
_cell_angle_beta     90.0
_cell_angle_gamma    90.0

_space_group_name_H-M_alt    "P 1"
_space_group_IT_number       1

loop_
  _space_group_symop_operation_xyz
  'x, y, z'

loop_
  _atom_site_type_symbol
  _atom_site_label
  _atom_site_symmetry_multiplicity
  _atom_site_fract_x
  _atom_site_fract_y
  _atom_site_fract_z
  _atom_site_occupancy
  C   C1        1.0  0.7206423649999999  0.06439052500000002  0.6315314244447915  1.0000
  O   O1        1.0  0.793168755  0.07680279500000002  0.6584366457615778  1.0000
  Sb  Sb1       1.0  0.29464960500000004  0.8137614650000001  0.5837670384123225  1.0000
  Sb  Sb2       1.0  0.934510905  0.30624822500000004  0.5359237738187951  1.0000
  Sb  Sb3       1.0  0.7024923150000001  0.8003453750000001  0.5365875909737234  1.0000
  Sb  Sb4       1.0  0.37633556500000004  0.24049332500000004  0.5853668484457516  1.0000
  Os  Os1       1.0  0.569443435  0.495936105  0.5152436411803782  1.0000
  Os  Os2       1.0  0.06548909500000002  0.996204485  0.5158375962194082  1.0000
  Sb  Sb5       1.0  0.21227318500000003  0.6856622550000001  0.5008743191668801  1.0000
  Sb  Sb6       1.0  0.927558645  0.32192877499999994  0.4451225018266255  1.0000
  Sb  Sb7       1.0  0.712273185  0.8219287750000001  0.4451225018266255  1.0000
  Sb  Sb8       1.0  0.42755864500000007  0.18566225500000003  0.5008743191668802  1.0000
  Os  Os3       1.0  0.569915915  0.503795515  0.4291867279980884  1.0000
  Os  Os4       1.0  0.06991591500000004  0.003795515000000026  0.4291867279980884  1.0000
  Sb  Sb9       1.0  0.21227318500000003  0.6856622550000001  0.413250945407214  1.0000
  Sb  Sb10      1.0  0.927558645  0.32192877499999994  0.35749912806695944  1.0000
  Sb  Sb11      1.0  0.712273185  0.8219287750000001  0.35749912806695944  1.0000
  Sb  Sb12      1.0  0.42755864500000007  0.18566225500000003  0.4132509454072141  1.0000
  Os  Os5       1.0  0.569915915  0.503795515  0.3415633542384223  1.0000
  Os  Os6       1.0  0.06991591500000004  0.003795515000000026  0.34156335423842227  1.0000
