data_image0
_chemical_formula_structural       COFe8W4Fe8W4
_chemical_formula_sum              "C1 O1 Fe16 W8"
_cell_length_a       4.663096756133277
_cell_length_b       7.76735677
_cell_length_c       102.64167731
_cell_angle_alpha    90.0
_cell_angle_beta     120.00000002743032
_cell_angle_gamma    90.0

_space_group_name_H-M_alt    "P 1"
_space_group_IT_number       1

loop_
  _space_group_symop_operation_xyz
  'x, y, z'

loop_
  _atom_site_type_symbol
  _atom_site_label
  _atom_site_symmetry_multiplicity
  _atom_site_fract_x
  _atom_site_fract_y
  _atom_site_fract_z
  _atom_site_occupancy
  C   C1        1.0  0.417740725  0.06964895499999996  0.5359379678060716  1.0000
  O   O1        1.0  0.29586555499999995  0.015644814999999958  0.545172002399851  1.0000
  Fe  Fe1       1.0  0.09891884499999996  0.04683131499999996  0.47031678644833086  1.0000
  Fe  Fe2       1.0  0.09891884499999996  0.5468313149999999  0.47031678644833086  1.0000
  Fe  Fe3       1.0  0.928453225  0.29683131499999993  0.4780611808724218  1.0000
  Fe  Fe4       1.0  0.26938446499999996  0.7968313149999999  0.4858055752965127  1.0000
  Fe  Fe5       1.0  0.7579876050000001  0.7968313149999999  0.46257239202424  1.0000
  Fe  Fe6       1.0  0.439850085  0.29683131499999993  0.4780611808724218  1.0000
  Fe  Fe7       1.0  0.928453225  0.29683131499999993  0.4548279976001491  1.0000
  Fe  Fe8       1.0  0.26938446499999996  0.7968313149999999  0.46257239202424  1.0000
  W   W1        1.0  0.765585515  0.9780846849999998  0.4854603977439086  1.0000
  W   W2        1.0  0.43225217499999996  0.478084685  0.45517317515275324  1.0000
  W   W3        1.0  0.43225217499999996  0.11557794499999996  0.45517317515275324  1.0000
  W   W4        1.0  0.765585515  0.615577945  0.4854603977439086  1.0000
  Fe  Fe9       1.0  0.07154677499999998  0.04593590499999996  0.5142449224357526  1.0000
  Fe  Fe10      1.0  0.11499252499999997  0.5405944049999999  0.5167380901509971  1.0000
  Fe  Fe11      1.0  0.8748693550000001  0.306746535  0.5225749684360448  1.0000
  Fe  Fe12      1.0  0.30030683499999994  0.810480115  0.532253881722566  1.0000
  Fe  Fe13      1.0  0.762884655  0.7879095849999999  0.5089897332497728  1.0000
  Fe  Fe14      1.0  0.428753775  0.2811236349999999  0.5252036331522734  1.0000
  Fe  Fe15      1.0  0.928453225  0.29683131499999993  0.500258828306724  1.0000
  Fe  Fe16      1.0  0.24746875499999998  0.7978726749999999  0.5076938792009555  1.0000
  W   W5        1.0  0.776269815  0.984355185  0.5300382432344174  1.0000
  W   W6        1.0  0.43225217499999996  0.478084685  0.5006040058593281  1.0000
  W   W7        1.0  0.43225217499999996  0.11557794499999996  0.5006040058593281  1.0000
  W   W8        1.0  0.7168862650000001  0.622113945  0.5278161744663618  1.0000
