data_image0
_chemical_formula_structural       COAg6Sn2Ag6Sn2
_chemical_formula_sum              "C1 O1 Ag12 Sn4"
_cell_length_a       5.28331235
_cell_length_b       6.18133666
_cell_length_c       104.67981125
_cell_angle_alpha    90.0
_cell_angle_beta     90.0
_cell_angle_gamma    90.0

_space_group_name_H-M_alt    "P 1"
_space_group_IT_number       1

loop_
  _space_group_symop_operation_xyz
  'x, y, z'

loop_
  _atom_site_type_symbol
  _atom_site_label
  _atom_site_symmetry_multiplicity
  _atom_site_fract_x
  _atom_site_fract_y
  _atom_site_fract_z
  _atom_site_occupancy
  C   C1        1.0  0.4144245649999999  0.6570114450000001  0.545100216756574  1.0000
  O   O1        1.0  0.560904565  0.720314695  0.5523402102344929  1.0000
  Ag  Ag1       1.0  0.667287655  0.118548225  0.44765978976550697  1.0000
  Ag  Ag2       1.0  0.318444395  0.6185482250000001  0.47132365862309833  1.0000
  Ag  Ag3       1.0  0.8282173450000001  0.369043595  0.47132365862309833  1.0000
  Ag  Ag4       1.0  0.15751470499999995  0.36805285499999996  0.44765978976550697  1.0000
  Ag  Ag5       1.0  0.8282173450000001  0.8680528550000001  0.47132365862309833  1.0000
  Ag  Ag6       1.0  0.15751470499999995  0.8690435950000001  0.44765978976550697  1.0000
  Sn  Sn1       1.0  0.323486065  0.118548225  0.47132365862309833  1.0000
  Sn  Sn2       1.0  0.662245985  0.6185482250000001  0.44765978976550697  1.0000
  Ag  Ag7       1.0  0.673698805  0.12404722499999998  0.4946567832583807  1.0000
  Ag  Ag8       1.0  0.3395193349999999  0.6280411250000001  0.520772275359834  1.0000
  Ag  Ag9       1.0  0.8388084849999999  0.36938186500000003  0.5186620540717501  1.0000
  Ag  Ag10      1.0  0.173870155  0.369457235  0.4952348915861338  1.0000
  Ag  Ag11      1.0  0.8424852950000001  0.881451775  0.5184905662702058  1.0000
  Ag  Ag12      1.0  0.17405325499999996  0.8731054850000001  0.4950590041980035  1.0000
  Sn  Sn3       1.0  0.333420765  0.126859635  0.5188640838828851  1.0000
  Sn  Sn4       1.0  0.6737591749999999  0.6221400950000001  0.4961268448205519  1.0000
