data_image0
_chemical_formula_structural       COV2Ni4V2Ni4V2Ni4V2Ni4
_chemical_formula_sum              "C1 O1 V8 Ni16"
_cell_length_a       5.08168934
_cell_length_b       7.2058558
_cell_length_c       100.60576215
_cell_angle_alpha    90.0
_cell_angle_beta     90.0
_cell_angle_gamma    90.0

_space_group_name_H-M_alt    "P 1"
_space_group_IT_number       1

loop_
  _space_group_symop_operation_xyz
  'x, y, z'

loop_
  _atom_site_type_symbol
  _atom_site_label
  _atom_site_symmetry_multiplicity
  _atom_site_fract_x
  _atom_site_fract_y
  _atom_site_fract_z
  _atom_site_occupancy
  C   C1        1.0  0.13049947499999998  0.2736252  0.5320618263303651  1.0000
  O   O1        1.0  0.132118975  0.22512891000000002  0.5433805305267125  1.0000
  V   V1        1.0  0.12543535499999997  0.12817771  0.5076061625637255  1.0000
  V   V2        1.0  0.370759005  0.37702810000000003  0.4693880948861077  1.0000
  Ni  Ni1       1.0  0.37679912499999996  0.37520431  0.519681065665393  1.0000
  Ni  Ni2       1.0  0.12075900499999999  0.1270281  0.4566194694732873  1.0000
  Ni  Ni3       1.0  0.12075900499999999  0.1270281  0.4821567202989282  1.0000
  Ni  Ni4       1.0  0.37294298499999995  0.3759365300000001  0.4944301387705326  1.0000
  V   V3        1.0  0.125713215  0.62667197  0.5067695992337998  1.0000
  V   V4        1.0  0.370759005  0.8770281  0.4693880948861077  1.0000
  Ni  Ni5       1.0  0.378557245  0.8673089900000001  0.5193629664984009  1.0000
  Ni  Ni6       1.0  0.12075900499999999  0.6270281  0.4566194694732873  1.0000
  Ni  Ni7       1.0  0.12075900499999999  0.6270281  0.4821567202989282  1.0000
  Ni  Ni8       1.0  0.372910615  0.8778937800000001  0.4941779203613575  1.0000
  V   V5        1.0  0.625402585  0.12206347000000001  0.5067120387508549  1.0000
  V   V6        1.0  0.870759005  0.37702810000000003  0.4693880948861077  1.0000
  Ni  Ni9       1.0  0.879240995  0.37467633  0.5197778850687125  1.0000
  Ni  Ni10      1.0  0.6207590049999999  0.1270281  0.4566194694732873  1.0000
  Ni  Ni11      1.0  0.6207590049999999  0.1270281  0.4821567202989282  1.0000
  Ni  Ni12      1.0  0.8725272550000001  0.37598418000000006  0.4944491826172233  1.0000
  V   V7        1.0  0.6256744750000001  0.6311344500000001  0.5064287721788482  1.0000
  V   V8        1.0  0.870759005  0.8770281  0.4693880948861077  1.0000
  Ni  Ni13      1.0  0.8743289949999999  0.8674509899999999  0.5193746909369226  1.0000
  Ni  Ni14      1.0  0.6207590049999999  0.6270281  0.4566194694732873  1.0000
  Ni  Ni15      1.0  0.6207590049999999  0.6270281  0.4821567202989282  1.0000
  Ni  Ni16      1.0  0.8733660050000001  0.87793653  0.4941715227240427  1.0000
