data_image0
_chemical_formula_structural       COFe2As4Fe2As4Fe2As4
_chemical_formula_sum              "C1 O1 Fe6 As12"
_cell_length_a       6.02902119
_cell_length_b       6.083756615754114
_cell_length_c       101.96473356999999
_cell_angle_alpha    118.5318017305078
_cell_angle_beta     90.0
_cell_angle_gamma    90.0

_space_group_name_H-M_alt    "P 1"
_space_group_IT_number       1

loop_
  _space_group_symop_operation_xyz
  'x, y, z'

loop_
  _atom_site_type_symbol
  _atom_site_label
  _atom_site_symmetry_multiplicity
  _atom_site_fract_x
  _atom_site_fract_y
  _atom_site_fract_z
  _atom_site_occupancy
  C   C1        1.0  0.04192445499999997  0.12236783999999998  0.542268051178986  1.0000
  O   O1        1.0  0.07347200499999998  0.14516580999999995  0.5542406236602211  1.0000
  Fe  Fe1       1.0  0.0078047349999999785  0.08957855999999997  0.46915251259508717  1.0000
  Fe  Fe2       1.0  0.507804735  0.58957856  0.46915251259508717  1.0000
  As  As1       1.0  0.647064365  0.9104214399999999  0.4640467283001229  1.0000
  As  As2       1.0  0.368545105  0.26873568  0.4457593763397788  1.0000
  As  As3       1.0  0.868545105  0.41042143999999997  0.46404672830012283  1.0000
  As  As4       1.0  0.14706436499999997  0.7687356799999998  0.4457593763397788  1.0000
  Fe  Fe3       1.0  0.004011344999999979  0.09966953999999996  0.49778552142285737  1.0000
  Fe  Fe4       1.0  0.510640835  0.59795966  0.4976362759943136  1.0000
  As  As5       1.0  0.647064365  0.9104214399999999  0.49254564885039553  1.0000
  As  As6       1.0  0.368545105  0.26873568  0.47425829689005145  1.0000
  As  As7       1.0  0.868545105  0.41042143999999997  0.49254564885039553  1.0000
  As  As8       1.0  0.14706436499999997  0.7687356799999998  0.47425829689005145  1.0000
  Fe  Fe5       1.0  0.9959886550000001  0.09137145999999997  0.5242087022698816  1.0000
  Fe  Fe6       1.0  0.518971605  0.5892499  0.5238549465904995  1.0000
  As  As9       1.0  0.668428035  0.8993805399999999  0.5213725438163058  1.0000
  As  As10      1.0  0.37160803499999995  0.26979930999999996  0.5030599153081055  1.0000
  As  As11      1.0  0.8330758050000001  0.39259527999999994  0.5211714913395326  1.0000
  As  As12      1.0  0.14640516499999998  0.7717947  0.5031866930424302  1.0000
