data_image0
_chemical_formula_structural       CONi2As2Ni2As2Ni2As2Ni2As2Ni2As2Ni2As2
_chemical_formula_sum              "C1 O1 Ni12 As12"
_cell_length_a       7.359626852285616
_cell_length_b       5.08537011
_cell_length_c       106.79813423
_cell_angle_alpha    90.0
_cell_angle_beta     119.99999994477915
_cell_angle_gamma    90.0

_space_group_name_H-M_alt    "P 1"
_space_group_IT_number       1

loop_
  _space_group_symop_operation_xyz
  'x, y, z'

loop_
  _atom_site_type_symbol
  _atom_site_label
  _atom_site_symmetry_multiplicity
  _atom_site_fract_x
  _atom_site_fract_y
  _atom_site_fract_z
  _atom_site_occupancy
  C   C1        1.0  0.589649195  0.374891105  0.5465589584362623  1.0000
  O   O1        1.0  0.6641724849999999  0.374935675  0.5592713199465588  1.0000
  Ni  Ni1       1.0  0.015327914999999996  0.12493660499999998  0.4636992037336013  1.0000
  Ni  Ni2       1.0  0.015327914999999996  0.624936605  0.4636992037336013  1.0000
  As  As1       1.0  0.348661245  0.374936605  0.4407286800534414  1.0000
  As  As2       1.0  0.181994585  0.8749366049999999  0.45221394361631057  1.0000
  Ni  Ni3       1.0  0.015327914999999996  0.12493660499999998  0.4981549875310521  1.0000
  Ni  Ni4       1.0  0.015327914999999996  0.624936605  0.4981549875310521  1.0000
  As  As3       1.0  0.348661245  0.374936605  0.47518446385089214  1.0000
  As  As4       1.0  0.181994585  0.8749366049999999  0.48666972741376124  1.0000
  Ni  Ni5       1.0  0.984672085  0.125668345  0.528897912542684  1.0000
  Ni  Ni6       1.0  0.9845343650000001  0.624122785  0.5289028569476589  1.0000
  As  As5       1.0  0.340223555  0.37495961499999997  0.5084441461240197  1.0000
  As  As6       1.0  0.19222527499999997  0.8745488349999999  0.5226155240169057  1.0000
  Ni  Ni7       1.0  0.515327915  0.12493660499999998  0.4636992037336013  1.0000
  Ni  Ni8       1.0  0.515327915  0.624936605  0.4636992037336013  1.0000
  As  As7       1.0  0.848661245  0.374936605  0.4407286800534414  1.0000
  As  As8       1.0  0.6819945850000001  0.8749366049999999  0.45221394361631057  1.0000
  Ni  Ni9       1.0  0.515327915  0.12493660499999998  0.4981549875310521  1.0000
  Ni  Ni10      1.0  0.515327915  0.624936605  0.4981549875310521  1.0000
  As  As9       1.0  0.848661245  0.374936605  0.47518446385089214  1.0000
  As  As10      1.0  0.6819945850000001  0.8749366049999999  0.48666972741376124  1.0000
  Ni  Ni11      1.0  0.49729469499999995  0.135234265  0.530746806455677  1.0000
  Ni  Ni12      1.0  0.49752138500000004  0.614487235  0.5307500728639809  1.0000
  As  As11      1.0  0.839077325  0.37493578499999997  0.5083495718886525  1.0000
  As  As12      1.0  0.6871280350000001  0.8750633950000002  0.5227545220943229  1.0000
