data_image0
_chemical_formula_structural       COSb12Os6
_chemical_formula_sum              "C1 O1 Sb12 Os6"
_cell_length_a       6.869961136944426
_cell_length_b       7.539383906601968
_cell_length_c       31.352563869999997
_cell_angle_alpha    119.13705595024676
_cell_angle_beta     112.89375121414294
_cell_angle_gamma    78.0923652062823

_space_group_name_H-M_alt    "P 1"
_space_group_IT_number       1

loop_
  _space_group_symop_operation_xyz
  'x, y, z'

loop_
  _atom_site_type_symbol
  _atom_site_label
  _atom_site_symmetry_multiplicity
  _atom_site_fract_x
  _atom_site_fract_y
  _atom_site_fract_z
  _atom_site_occupancy
  C   C1        1.0  0.6895428949999999  0.9412414450000002  0.6602096878793086  1.0000
  O   O1        1.0  0.7921391249999999  0.9982686050000001  0.7033817290992882  1.0000
  Sb  Sb1       1.0  0.427223055  0.967448795  0.3299234362285689  1.0000
  Sb  Sb2       1.0  0.760556385  0.300782125  0.4326461337567049  1.0000
  Sb  Sb3       1.0  0.09275798500000004  0.6308528450000002  0.5366399629314424  1.0000
  Sb  Sb4       1.0  0.908140525  0.369347325  0.3660358031009908  1.0000
  Sb  Sb5       1.0  0.24147386500000004  0.702680665  0.4687584883024041  1.0000
  Sb  Sb6       1.0  0.627816165  0.05045356500000003  0.5658707765995706  1.0000
  Sb  Sb7       1.0  0.6697120449999999  0.8462043050000002  0.4466437930451559  1.0000
  Sb  Sb8       1.0  0.016385225000000052  0.20232047500000003  0.5532757504356689  1.0000
  Sb  Sb9       1.0  0.33637870500000006  0.5128709650000001  0.34392110784374263  1.0000
  Sb  Sb10      1.0  0.9989848749999998  0.8239251550000001  0.35203814381253984  1.0000
  Sb  Sb11      1.0  0.332318205  0.15725848500000006  0.45476082901395304  1.0000
  Sb  Sb12      1.0  0.6633921049999999  0.5082692750000001  0.5611369452744697  1.0000
  Os  Os1       1.0  0.6676817950000001  0.6683980650000001  0.3479796196647798  1.0000
  Os  Os2       1.0  0.0010151250000000518  0.0017313950000000223  0.4507023048661931  1.0000
  Os  Os3       1.0  0.342526065  0.32085365500000007  0.5484127966901047  1.0000
  Os  Os4       1.0  0.6594413349999999  0.6645847250000002  0.5016592754915221  1.0000
  Os  Os5       1.0  0.0010151250000000518  0.0017313950000000223  0.2966182709007119  1.0000
  Os  Os6       1.0  0.334348455  0.335064725  0.3993409684288478  1.0000
