data_image0
_chemical_formula_structural       Fe9Co3Fe9Co3CO
_chemical_formula_sum              "Fe18 Co6 C1 O1"
_cell_length_a       5.5619996
_cell_length_b       4.811351688104574
_cell_length_c       107.28555878
_cell_angle_alpha    105.09585771088642
_cell_angle_beta     90.0
_cell_angle_gamma    54.68944191649316

_space_group_name_H-M_alt    "P 1"
_space_group_IT_number       1

loop_
  _space_group_symop_operation_xyz
  'x, y, z'

loop_
  _atom_site_type_symbol
  _atom_site_label
  _atom_site_symmetry_multiplicity
  _atom_site_fract_x
  _atom_site_fract_y
  _atom_site_fract_z
  _atom_site_occupancy
  Fe  Fe1       1.0  0.7017917600000001  0.6964135  0.4393293649176953  1.0000
  Fe  Fe2       1.0  0.035125090000000046  0.029746829999999985  0.4779444392121898  1.0000
  Fe  Fe3       1.0  0.3684584200000002  0.36308015999999993  0.4586369038026209  1.0000
  Fe  Fe4       1.0  0.3684584200000002  0.86308016  0.4586369038026209  1.0000
  Fe  Fe5       1.0  0.7017917600000001  0.19641349999999996  0.43932936491769536  1.0000
  Fe  Fe6       1.0  0.03512509000000011  0.5297468299999999  0.4779444392121898  1.0000
  Fe  Fe7       1.0  0.8684584200000002  0.86308016  0.4586369038026209  1.0000
  Fe  Fe8       1.0  0.20179176000000004  0.19641349999999996  0.43932936491769536  1.0000
  Fe  Fe9       1.0  0.5351250900000002  0.5297468299999999  0.4779444392121898  1.0000
  Co  Co1       1.0  0.8684584200000002  0.36308015999999993  0.4586369038026209  1.0000
  Co  Co2       1.0  0.20179176000000004  0.6964135  0.4393293649176953  1.0000
  Co  Co3       1.0  0.5351250900000001  0.029746829999999985  0.4779444392121898  1.0000
  Fe  Fe10      1.0  0.7017917600000001  0.6964135  0.49725197809711524  1.0000
  Fe  Fe11      1.0  0.09060338000000007  0.014128079999999986  0.5357295568536465  1.0000
  Fe  Fe12      1.0  0.4240912300000001  0.19718037999999996  0.5159423666108365  1.0000
  Fe  Fe13      1.0  0.43991065000000007  0.68795436  0.5161745829962376  1.0000
  Fe  Fe14      1.0  0.7017917600000001  0.19641349999999996  0.49725197809711535  1.0000
  Fe  Fe15      1.0  0.07670459000000009  0.5228191699999999  0.5351818371590196  1.0000
  Fe  Fe16      1.0  0.9436823300000001  0.75465407  0.5172017941823398  1.0000
  Fe  Fe17      1.0  0.20179176000000004  0.19641349999999996  0.49725197809711535  1.0000
  Fe  Fe18      1.0  0.56547851  0.44004456  0.5337284464535462  1.0000
  Co  Co4       1.0  0.9648749100000001  0.23905113999999994  0.5167128531959395  1.0000
  Co  Co5       1.0  0.20179176000000004  0.6964135  0.49725197809711524  1.0000
  Co  Co6       1.0  0.5446226900000001  0.96010608  0.5346516436883378  1.0000
  C   C1        1.0  0.3178173000000001  0.94649749  0.5492763235852745  1.0000
  O   O1        1.0  0.33158818000000007  0.98587192  0.5606706350823045  1.0000
