data_image0
_chemical_formula_structural       COAl8Pb4Se16Al8Pb4Se16
_chemical_formula_sum              "C1 O1 Al16 Pb8 Se32"
_cell_length_a       11.13778246
_cell_length_b       11.10055347
_cell_length_c       107.97447120999999
_cell_angle_alpha    90.0
_cell_angle_beta     90.0
_cell_angle_gamma    90.0

_space_group_name_H-M_alt    "P 1"
_space_group_IT_number       1

loop_
  _space_group_symop_operation_xyz
  'x, y, z'

loop_
  _atom_site_type_symbol
  _atom_site_label
  _atom_site_symmetry_multiplicity
  _atom_site_fract_x
  _atom_site_fract_y
  _atom_site_fract_z
  _atom_site_occupancy
  C   C1        1.0  0.7925921  7.139499999998763e-05  0.5545447612451734  1.0000
  O   O1        1.0  0.79956003  0.999993485  0.5654048027688117  1.0000
  Al  Al1       1.0  0.80100526  7.904999999987628e-06  0.47954113981341817  1.0000
  Al  Al2       1.0  0.80100526  0.500007905  0.4794264438634198  1.0000
  Al  Al3       1.0  0.7825373599999998  0.500007905  0.4502329201463043  1.0000
  Al  Al4       1.0  0.7825373599999998  7.904999999987628e-06  0.45011822419630587  1.0000
  Al  Al5       1.0  0.30100526  7.904999999987628e-06  0.4502329201463043  1.0000
  Al  Al6       1.0  0.30100526  0.500007905  0.45011822419630587  1.0000
  Al  Al7       1.0  0.28253735999999996  0.500007905  0.47954113981341817  1.0000
  Al  Al8       1.0  0.28253735999999996  7.904999999987628e-06  0.4794264438634198  1.0000
  Pb  Pb1       1.0  0.54177131  0.7500079049999999  0.47948379183841894  1.0000
  Pb  Pb2       1.0  0.54177131  0.25000790500000003  0.47948379183841894  1.0000
  Pb  Pb3       1.0  0.04177130999999999  0.7500079049999999  0.4501755721713051  1.0000
  Pb  Pb4       1.0  0.04177130999999999  0.25000790500000003  0.4501755721713051  1.0000
  Se  Se1       1.0  0.79177131  0.8319901249999999  0.4355214658547342  1.0000
  Se  Se2       1.0  0.6253139299999999  0.500007905  0.4345951972311884  1.0000
  Se  Se3       1.0  0.79177131  0.668025685  0.464829682004862  1.0000
  Se  Se4       1.0  0.95822869  7.904999999987628e-06  0.4639034133813162  1.0000
  Se  Se5       1.0  0.6253139299999999  7.904999999987628e-06  0.46575595062840786  1.0000
  Se  Se6       1.0  0.79177131  0.331990125  0.464829682004862  1.0000
  Se  Se7       1.0  0.95822869  0.500007905  0.43644773447828006  1.0000
  Se  Se8       1.0  0.79177131  0.168025685  0.4355214658547342  1.0000
  Se  Se9       1.0  0.29177130999999995  0.8319901249999999  0.464829682004862  1.0000
  Se  Se10      1.0  0.12531393  0.500007905  0.4639034133813162  1.0000
  Se  Se11      1.0  0.29177130999999995  0.668025685  0.4355214658547342  1.0000
  Se  Se12      1.0  0.45822869  7.904999999987628e-06  0.4345951972311884  1.0000
  Se  Se13      1.0  0.12531393  7.904999999987628e-06  0.43644773447828006  1.0000
  Se  Se14      1.0  0.29177130999999995  0.331990125  0.4355214658547342  1.0000
  Se  Se15      1.0  0.45822869  0.500007905  0.46575595062840786  1.0000
  Se  Se16      1.0  0.29177130999999995  0.168025685  0.464829682004862  1.0000
  Al  Al9       1.0  0.79094027  0.9998900549999999  0.53660410529477  1.0000
  Al  Al10      1.0  0.7118881299999998  0.500008215  0.5381586483114138  1.0000
  Al  Al11      1.0  0.7825373599999998  0.500007905  0.508849355963546  1.0000
  Al  Al12      1.0  0.7825373599999998  7.904999999987628e-06  0.5087346600135475  1.0000
  Al  Al13      1.0  0.30100526  7.904999999987628e-06  0.508849355963546  1.0000
  Al  Al14      1.0  0.30100526  0.500007905  0.5087346600135475  1.0000
  Al  Al15      1.0  0.27145778  0.500006515  0.541047690593702  1.0000
  Al  Al16      1.0  0.36171587  6.514999999987628e-06  0.5388550221059536  1.0000
  Pb  Pb5       1.0  0.53708694  0.735266685  0.5344650813956799  1.0000
  Pb  Pb6       1.0  0.53708287  0.264762425  0.5344649758860976  1.0000
  Pb  Pb7       1.0  0.04177130999999999  0.7500079049999999  0.5087920079885467  1.0000
  Pb  Pb8       1.0  0.04177130999999999  0.25000790500000003  0.5087920079885467  1.0000
  Se  Se17      1.0  0.79177131  0.8319901249999999  0.49413789815498976  1.0000
  Se  Se18      1.0  0.6253139299999999  0.500007905  0.49321162953144393  1.0000
  Se  Se19      1.0  0.7851705499999999  0.666034005  0.5242573810008762  1.0000
  Se  Se20      1.0  0.9571323999999999  1.1904999999987627e-05  0.523759421492952  1.0000
  Se  Se21      1.0  0.61670088  3.4224999999987625e-05  0.5246036036614211  1.0000
  Se  Se22      1.0  0.7851700399999999  0.333986645  0.5242571840496558  1.0000
  Se  Se23      1.0  0.95822869  0.500007905  0.49506416677853565  1.0000
  Se  Se24      1.0  0.79177131  0.168025685  0.49413789815498976  1.0000
  Se  Se25      1.0  0.29443414  0.8342548249999999  0.5240919314247762  1.0000
  Se  Se26      1.0  0.12885703999999998  0.500007435  0.5226893925464534  1.0000
  Se  Se27      1.0  0.29177130999999995  0.668025685  0.49413789815498976  1.0000
  Se  Se28      1.0  0.45822869  7.904999999987628e-06  0.49321162953144393  1.0000
  Se  Se29      1.0  0.12531393  7.904999999987628e-06  0.49506416677853565  1.0000
  Se  Se30      1.0  0.29177130999999995  0.331990125  0.49413789815498976  1.0000
  Se  Se31      1.0  0.46069266  0.500009465  0.5241940189796824  1.0000
  Se  Se32      1.0  0.29443516000000003  0.165760405  0.5240920545192889  1.0000
