data_image0
_chemical_formula_structural       COCo2As2Co2As2Co2As2Co2As2Co2As2Co2As2
_chemical_formula_sum              "C1 O1 Co12 As12"
_cell_length_a       7.16647965390494
_cell_length_b       5.06688839
_cell_length_c       105.83239824
_cell_angle_alpha    90.0
_cell_angle_beta     119.99999993581622
_cell_angle_gamma    90.0

_space_group_name_H-M_alt    "P 1"
_space_group_IT_number       1

loop_
  _space_group_symop_operation_xyz
  'x, y, z'

loop_
  _atom_site_type_symbol
  _atom_site_label
  _atom_site_symmetry_multiplicity
  _atom_site_fract_x
  _atom_site_fract_y
  _atom_site_fract_z
  _atom_site_occupancy
  C   C1        1.0  0.63948482  0.74578525  0.5433070292291067  1.0000
  O   O1        1.0  0.7332749  0.8060670500000001  0.5556385459866348  1.0000
  Co  Co1       1.0  0.026396469999999974  0.60766084  0.45564734732286694  1.0000
  Co  Co2       1.0  0.026396469999999974  0.10766084  0.45564734732286694  1.0000
  As  As1       1.0  0.19306313999999997  0.85766084  0.44436145401336524  1.0000
  As  As2       1.0  0.35972979999999993  0.35766084  0.4669332406323687  1.0000
  Co  Co3       1.0  0.026396469999999974  0.60766084  0.4895050306371405  1.0000
  Co  Co4       1.0  0.026396469999999974  0.10766084  0.4895050306371405  1.0000
  As  As3       1.0  0.19306313999999997  0.85766084  0.47821913732763877  1.0000
  As  As4       1.0  0.35972979999999993  0.35766084  0.5007909239466423  1.0000
  Co  Co5       1.0  0.04738428999999998  0.59320646  0.5221639962167456  1.0000
  Co  Co6       1.0  0.9736035300000001  0.10422411999999999  0.52147225327472  1.0000
  As  As5       1.0  0.19596739  0.8957758799999999  0.5128629825053965  1.0000
  As  As6       1.0  0.34210841  0.28552871  0.5341043822450906  1.0000
  Co  Co7       1.0  0.52639647  0.60766084  0.45564734732286705  1.0000
  Co  Co8       1.0  0.52639647  0.10766084  0.45564734732286705  1.0000
  As  As7       1.0  0.69306314  0.85766084  0.44436145401336524  1.0000
  As  As8       1.0  0.8597298  0.35766084  0.4669332406323687  1.0000
  Co  Co9       1.0  0.52639647  0.60766084  0.4895050306371405  1.0000
  Co  Co10      1.0  0.52639647  0.10766084  0.4895050306371405  1.0000
  As  As9       1.0  0.69306314  0.85766084  0.4782191373276388  1.0000
  As  As10      1.0  0.8597298  0.35766084  0.5007909239466423  1.0000
  Co  Co11      1.0  0.50501821  0.60861679  0.5254989441655181  1.0000
  Co  Co12      1.0  0.55000505  0.11435943  0.5223676806537959  1.0000
  As  As11      1.0  0.69442412  0.80283568  0.5130133681773734  1.0000
  As  As12      1.0  0.8687136  0.39098088999999997  0.5343665659873712  1.0000
