data_image0
_chemical_formula_structural       COAl4Mn8Re4Al4Mn8Re4Al4Mn8Re4Al4Mn8Re4
_chemical_formula_sum              "C1 O1 Al16 Mn32 Re16"
_cell_length_a       8.28707624
_cell_length_b       8.28707624
_cell_length_c       105.1590868
_cell_angle_alpha    90.0
_cell_angle_beta     90.0
_cell_angle_gamma    90.0

_space_group_name_H-M_alt    "P 1"
_space_group_IT_number       1

loop_
  _space_group_symop_operation_xyz
  'x, y, z'

loop_
  _atom_site_type_symbol
  _atom_site_label
  _atom_site_symmetry_multiplicity
  _atom_site_fract_x
  _atom_site_fract_y
  _atom_site_fract_z
  _atom_site_occupancy
  C   C1        1.0  0.25097587999999993  0.37619125999999997  0.5479194613779396  1.0000
  O   O1        1.0  0.25132052999999993  0.37624797  0.55974752088136  1.0000
  Al  Al1       1.0  0.25124435999999994  0.37620236  0.49597612358838344  1.0000
  Al  Al2       1.0  0.0013067599999999516  0.12636423  0.5237977913634441  1.0000
  Al  Al3       1.0  0.25124435999999994  0.37620236  0.44025247911864  1.0000
  Al  Al4       1.0  0.0012443599999999516  0.12620236  0.46811430135351173  1.0000
  Mn  Mn1       1.0  0.25125897999999997  0.12376055000000001  0.5095826679156227  1.0000
  Mn  Mn2       1.0  0.25144054999999993  0.15909837000000002  0.5373150730955096  1.0000
  Mn  Mn3       1.0  0.03412879999999995  0.37617848  0.5373321646524251  1.0000
  Mn  Mn4       1.0  0.9987556400000002  0.37621681  0.5095787494287868  1.0000
  Mn  Mn5       1.0  0.25124435999999994  0.12620236  0.45418338856436646  1.0000
  Mn  Mn6       1.0  0.25124435999999994  0.12620236  0.48204521414265694  1.0000
  Mn  Mn7       1.0  0.0012443599999999516  0.37620236  0.48204521414265694  1.0000
  Mn  Mn8       1.0  0.0012443599999999516  0.37620236  0.45418338856436646  1.0000
  Re  Re1       1.0  0.0012443599999999516  0.12620236  0.49597612358838344  1.0000
  Re  Re2       1.0  0.25109807999999995  0.37620441  0.5221538590858897  1.0000
  Re  Re3       1.0  0.0012443599999999516  0.12620236  0.44025247911864  1.0000
  Re  Re4       1.0  0.25124435999999994  0.37620236  0.46811430135351173  1.0000
  Al  Al5       1.0  0.25124435999999994  0.8762023600000001  0.49597612358838344  1.0000
  Al  Al6       1.0  0.0013773599999999516  0.62607051  0.5238032010150656  1.0000
  Al  Al7       1.0  0.25124435999999994  0.8762023600000001  0.44025247911864  1.0000
  Al  Al8       1.0  0.0012443599999999516  0.62620236  0.46811430135351173  1.0000
  Mn  Mn9       1.0  0.25126252999999993  0.6286451500000001  0.509581481001948  1.0000
  Mn  Mn10      1.0  0.25146274999999996  0.59327979  0.5373242273761892  1.0000
  Mn  Mn11      1.0  0.011573189999999952  0.8762342799999999  0.5365882038177154  1.0000
  Mn  Mn12      1.0  0.0016249799999999517  0.87618659  0.5098490113442213  1.0000
  Mn  Mn13      1.0  0.25124435999999994  0.62620236  0.45418338856436646  1.0000
  Mn  Mn14      1.0  0.25124435999999994  0.62620236  0.48204521414265694  1.0000
  Mn  Mn15      1.0  0.0012443599999999516  0.8762023600000001  0.48204521414265694  1.0000
  Mn  Mn16      1.0  0.0012443599999999516  0.8762023600000001  0.45418338856436646  1.0000
  Re  Re5       1.0  0.0012443599999999516  0.62620236  0.49597612358838344  1.0000
  Re  Re6       1.0  0.25125837999999995  0.8762165599999999  0.5250938542883337  1.0000
  Re  Re7       1.0  0.0012443599999999516  0.62620236  0.44025247911864  1.0000
  Re  Re8       1.0  0.25124435999999994  0.8762023600000001  0.46811430135351173  1.0000
  Al  Al9       1.0  0.7512443599999999  0.37620236  0.49597612358838344  1.0000
  Al  Al10      1.0  0.5012791799999998  0.12629440000000003  0.5237906631945584  1.0000
  Al  Al11      1.0  0.7512443599999999  0.37620236  0.44025247911864  1.0000
  Al  Al12      1.0  0.5012443599999999  0.12620236  0.46811430135351173  1.0000
  Mn  Mn17      1.0  0.75129419  0.12657687  0.5098425418288396  1.0000
  Mn  Mn18      1.0  0.7512729699999999  0.13647183  0.5365977760257454  1.0000
  Mn  Mn19      1.0  0.4682110199999999  0.37620934  0.5373205763628576  1.0000
  Mn  Mn20      1.0  0.50368313  0.37622244  0.5095811834376747  1.0000
  Mn  Mn21      1.0  0.7512443599999999  0.12620236  0.45418338856436646  1.0000
  Mn  Mn22      1.0  0.7512443599999999  0.12620236  0.48204521414265694  1.0000
  Mn  Mn23      1.0  0.5012443599999999  0.37620236  0.48204521414265694  1.0000
  Mn  Mn24      1.0  0.5012443599999999  0.37620236  0.45418338856436646  1.0000
  Re  Re9       1.0  0.5012443599999999  0.12620236  0.49597612358838344  1.0000
  Re  Re10      1.0  0.75117519  0.37619505  0.525102948387475  1.0000
  Re  Re11      1.0  0.5012443599999999  0.12620236  0.44025247911864  1.0000
  Re  Re12      1.0  0.7512443599999999  0.37620236  0.46811430135351173  1.0000
  Al  Al13      1.0  0.7512443599999999  0.8762023600000001  0.49597612358838344  1.0000
  Al  Al14      1.0  0.50120976  0.6261544  0.5237946251458386  1.0000
  Al  Al15      1.0  0.7512443599999999  0.8762023600000001  0.44025247911864  1.0000
  Al  Al16      1.0  0.5012443599999999  0.62620236  0.46811430135351173  1.0000
  Mn  Mn25      1.0  0.75130515  0.62583841  0.5098468548390941  1.0000
  Mn  Mn26      1.0  0.75128515  0.61593014  0.536598341063523  1.0000
  Mn  Mn27      1.0  0.49087482999999993  0.8762394499999999  0.5365843321387428  1.0000
  Mn  Mn28      1.0  0.5008986799999999  0.8761933199999999  0.5098421138712329  1.0000
  Mn  Mn29      1.0  0.7512443599999999  0.62620236  0.45418338856436646  1.0000
  Mn  Mn30      1.0  0.7512443599999999  0.62620236  0.48204521414265694  1.0000
  Mn  Mn31      1.0  0.5012443599999999  0.8762023600000001  0.48204521414265694  1.0000
  Mn  Mn32      1.0  0.5012443599999999  0.8762023600000001  0.45418338856436646  1.0000
  Re  Re13      1.0  0.5012443599999999  0.62620236  0.49597612358838344  1.0000
  Re  Re14      1.0  0.75121434  0.87617985  0.5253905593030725  1.0000
  Re  Re15      1.0  0.5012443599999999  0.62620236  0.44025247911864  1.0000
  Re  Re16      1.0  0.7512443599999999  0.8762023600000001  0.46811430135351173  1.0000
