data_image0
_chemical_formula_structural       COAs24Rh12
_chemical_formula_sum              "C1 O1 As24 Rh12"
_cell_length_a       8.80373766733503
_cell_length_b       9.154830555753747
_cell_length_c       103.24593124
_cell_angle_alpha    83.50465010720937
_cell_angle_beta     89.43142329405694
_cell_angle_gamma    79.31960805819502

_space_group_name_H-M_alt    "P 1"
_space_group_IT_number       1

loop_
  _space_group_symop_operation_xyz
  'x, y, z'

loop_
  _atom_site_type_symbol
  _atom_site_label
  _atom_site_symmetry_multiplicity
  _atom_site_fract_x
  _atom_site_fract_y
  _atom_site_fract_z
  _atom_site_occupancy
  C   C1        1.0  0.9919127699999999  0.23795083499999997  0.5391873932046881  1.0000
  O   O1        1.0  0.99853216  0.232393845  0.5505093524431712  1.0000
  As  As1       1.0  0.78002186  0.654685825  0.4545680889832311  1.0000
  As  As2       1.0  0.94335194  0.829685395  0.5068808056112312  1.0000
  As  As3       1.0  0.36335520000000004  0.23801916500000003  0.48140202285709377  1.0000
  As  As4       1.0  0.2433049400000001  0.877373385  0.48451002972531537  1.0000
  As  As5       1.0  0.6599716099999999  0.294040055  0.4576760990715244  1.0000
  As  As6       1.0  0.80374495  0.497247995  0.5124507344800507  1.0000
  As  As7       1.0  0.6360921399999999  0.7701605850000001  0.49141468801845867  1.0000
  As  As8       1.0  0.05275881000000002  0.18682725499999997  0.4645807573646678  1.0000
  As  As9       1.0  0.22211051000000004  0.35545221499999996  0.518493299048596  1.0000
  As  As10      1.0  0.17280906000000004  0.547473025  0.46147274727637444  1.0000
  As  As11      1.0  0.3622153699999999  0.715488535  0.5149200111246566  1.0000
  As  As12      1.0  0.7561424  0.13080636499999995  0.4883066811502372  1.0000
  As  As13      1.0  0.42036204999999993  0.6072894349999999  0.46936369424364993  1.0000
  As  As14      1.0  0.62773434  0.7268329749999999  0.5234259080852514  1.0000
  As  As15      1.0  0.00383703000000001  0.191575595  0.4973874575305818  1.0000
  As  As16      1.0  0.18618305000000004  0.508426775  0.4970729563372387  1.0000
  As  As17      1.0  0.60383782  0.925642845  0.46965819879106996  1.0000
  As  As18      1.0  0.7539015899999999  0.11663125499999995  0.5222170351675142  1.0000
  As  As19      1.0  0.99575196  0.817556985  0.4766190827580398  1.0000
  As  As20      1.0  0.41241862999999995  0.23422365499999998  0.44978515210424885  1.0000
  As  As21      1.0  0.5758665900000001  0.40491610499999997  0.5037306963041297  1.0000
  As  As22      1.0  0.22894286000000003  0.9158702449999999  0.4494906475568289  1.0000
  As  As23      1.0  0.39287165000000007  0.07513701499999996  0.502850199869153  1.0000
  As  As24      1.0  0.81227619  0.49920357499999995  0.4763245782106198  1.0000
  Rh  Rh1       1.0  0.0014678400000000071  0.795221635  0.452985188624722  1.0000
  Rh  Rh2       1.0  0.16939667  0.949482795  0.5060707031660331  1.0000
  Rh  Rh3       1.0  0.58480117  0.37855496499999997  0.4798191192785128  1.0000
  Rh  Rh4       1.0  0.9150366799999999  0.6300152949999999  0.492972442836225  1.0000
  Rh  Rh5       1.0  0.33170335000000006  0.04668196499999998  0.46613850896236225  1.0000
  Rh  Rh6       1.0  0.48370902999999993  0.21444203499999998  0.5179947836317553  1.0000
  Rh  Rh7       1.0  0.4146461699999999  0.6296247850000001  0.49299759159703965  1.0000
  Rh  Rh8       1.0  0.8313128300000001  0.04629144499999998  0.4661636609432488  1.0000
  Rh  Rh9       1.0  0.97548382  0.245780295  0.520634150909364  1.0000
  Rh  Rh10      1.0  0.50107732  0.7948311149999999  0.45301033738553653  1.0000
  Rh  Rh11      1.0  0.67016129  0.9537085550000001  0.5071908953061982  1.0000
  Rh  Rh12      1.0  0.08441066000000001  0.37816445499999995  0.4798442680393275  1.0000
