data_image0
_chemical_formula_structural       COSi8W4Si8W4
_chemical_formula_sum              "C1 O1 Si16 W8"
_cell_length_a       4.58030956
_cell_length_b       8.519773457875514
_cell_length_c       37.93783308
_cell_angle_alpha    74.40685065333798
_cell_angle_beta     90.0
_cell_angle_gamma    74.40685065333798

_space_group_name_H-M_alt    "P 1"
_space_group_IT_number       1

loop_
  _space_group_symop_operation_xyz
  'x, y, z'

loop_
  _atom_site_type_symbol
  _atom_site_label
  _atom_site_symmetry_multiplicity
  _atom_site_fract_x
  _atom_site_fract_y
  _atom_site_fract_z
  _atom_site_occupancy
  C   C1        1.0  0.7056642800000001  0.7482365299999999  0.6128283503295168  1.0000
  O   O1        1.0  0.7096928000000002  0.7394217799999999  0.6441373064813372  1.0000
  Si  Si1       1.0  0.86775219  0.42529043999999994  0.5759139582309856  1.0000
  Si  Si2       1.0  0.37262099000000004  0.41535335999999995  0.5151630089875072  1.0000
  Si  Si3       1.0  0.9609230499999999  0.23875773999999994  0.532680161120126  1.0000
  Si  Si4       1.0  0.45488866000000017  0.25246667999999994  0.5812903064602013  1.0000
  Si  Si5       1.0  0.62161235  0.9174646  0.4865593280310616  1.0000
  Si  Si6       1.0  0.12382153000000017  0.9128838899999998  0.5478964889702763  1.0000
  Si  Si7       1.0  0.7082913800000002  0.7440320499999998  0.5635124336250068  1.0000
  Si  Si8       1.0  0.20654155000000024  0.7476061999999998  0.49681299576840093  1.0000
  W   W1        1.0  0.0390769500000001  0.08253539999999995  0.47659466729099886  1.0000
  W   W2        1.0  0.5384314200000001  0.08353817999999996  0.5351371051283214  1.0000
  W   W3        1.0  0.78918894  0.58216795  0.5051943930679047  1.0000
  W   W4        1.0  0.29103084000000023  0.5784274199999998  0.5630241041716444  1.0000
  Si  Si9       1.0  0.8716123500000001  0.41746459999999985  0.4563763388135969  1.0000
  Si  Si10      1.0  0.3716123500000002  0.41746459999999985  0.39601035192742906  1.0000
  Si  Si11      1.0  0.9565415500000002  0.24760619999999994  0.4062640196647683  1.0000
  Si  Si12      1.0  0.45654155000000013  0.24760619999999994  0.4666300065509363  1.0000
  Si  Si13      1.0  0.62161235  0.9174646  0.3658273542587259  1.0000
  Si  Si14      1.0  0.12161235000000009  0.9174646  0.42619334114489377  1.0000
  Si  Si15      1.0  0.7065415500000002  0.7476061999999998  0.43644700888223315  1.0000
  Si  Si16      1.0  0.20654155000000024  0.7476061999999998  0.37608102199606525  1.0000
  W   W5        1.0  0.0390769500000001  0.08253539999999995  0.3558626935186633  1.0000
  W   W6        1.0  0.5390769500000001  0.08253539999999995  0.41622868040483113  1.0000
  W   W7        1.0  0.7890769500000002  0.5825353999999999  0.38604568273612805  1.0000
  W   W8        1.0  0.28907695000000017  0.5825353999999999  0.4464116780735342  1.0000
