data_image0
_chemical_formula_structural       COSe4Sn4Se4Sn4
_chemical_formula_sum              "C1 O1 Se8 Sn8"
_cell_length_a       8.68348708
_cell_length_b       6.437916890284581
_cell_length_c       98.67113735
_cell_angle_alpha    95.36823159124229
_cell_angle_beta     90.0
_cell_angle_gamma    90.0

_space_group_name_H-M_alt    "P 1"
_space_group_IT_number       1

loop_
  _space_group_symop_operation_xyz
  'x, y, z'

loop_
  _atom_site_type_symbol
  _atom_site_label
  _atom_site_symmetry_multiplicity
  _atom_site_fract_x
  _atom_site_fract_y
  _atom_site_fract_z
  _atom_site_occupancy
  C   C1        1.0  0.12502414999999997  0.738120125  0.5496681775229241  1.0000
  O   O1        1.0  0.12491615999999998  0.5783529749999999  0.5539891618867894  1.0000
  Se  Se1       1.0  0.12495353  0.6241003649999999  0.45801459043025533  1.0000
  Se  Se2       1.0  0.37495353  0.11982835499999998  0.4460108381132104  1.0000
  Se  Se3       1.0  0.12478220999999998  0.906289565  0.5082479681478432  1.0000
  Se  Se4       1.0  0.37495353  0.405542645  0.4875212209097473  1.0000
  Sn  Sn1       1.0  0.12495353  0.232867915  0.46748804452012904  1.0000
  Sn  Sn2       1.0  0.37495353  0.796775095  0.47804776681987365  1.0000
  Sn  Sn3       1.0  0.12528704000000002  0.448190685  0.5066574110424827  1.0000
  Sn  Sn4       1.0  0.37468155  0.093710435  0.5225603553190118  1.0000
  Se  Se5       1.0  0.6249535299999999  0.6241003649999999  0.45801459043025533  1.0000
  Se  Se6       1.0  0.87495353  0.11982835499999998  0.4460108381132104  1.0000
  Se  Se7       1.0  0.6250526499999999  0.906099635  0.5083052225897721  1.0000
  Se  Se8       1.0  0.87495353  0.405542645  0.4875212209097473  1.0000
  Sn  Sn5       1.0  0.6249535299999999  0.232867915  0.46748804452012904  1.0000
  Sn  Sn6       1.0  0.87495353  0.796775095  0.47804776681987365  1.0000
  Sn  Sn7       1.0  0.62484053  0.451331595  0.5068183214784697  1.0000
  Sn  Sn8       1.0  0.87521779  0.093715785  0.5225842636395656  1.0000
