data_image0
_chemical_formula_structural       COCa10As30
_chemical_formula_sum              "C1 O1 Ca10 As30"
_cell_length_a       14.573218080589612
_cell_length_b       15.003438326441673
_cell_length_c       105.42963119000001
_cell_angle_alpha    90.85858581394146
_cell_angle_beta     91.86893851663737
_cell_angle_gamma    30.29701013571843

_space_group_name_H-M_alt    "P 1"
_space_group_IT_number       1

loop_
  _space_group_symop_operation_xyz
  'x, y, z'

loop_
  _atom_site_type_symbol
  _atom_site_label
  _atom_site_symmetry_multiplicity
  _atom_site_fract_x
  _atom_site_fract_y
  _atom_site_fract_z
  _atom_site_occupancy
  C   C1        1.0  0.8786208549999999  0.4551042900000001  0.5450129578095972  1.0000
  O   O1        1.0  0.9921457949999999  0.3382910600000001  0.5521813755137658  1.0000
  Ca  Ca1       1.0  0.30623924499999994  0.25114867  0.49406180434332714  1.0000
  Ca  Ca2       1.0  0.4992132449999999  0.46242874000000006  0.50953297664284  1.0000
  Ca  Ca3       1.0  0.6606650649999999  0.6914434000000002  0.5258897382375523  1.0000
  Ca  Ca4       1.0  0.9062392449999999  0.8511486700000002  0.46045680090159974  1.0000
  Ca  Ca5       1.0  0.10623924499999994  0.051148670000000014  0.4772593026224636  1.0000
  Ca  Ca6       1.0  0.12281671499999995  0.18069384000000002  0.5100670038340335  1.0000
  Ca  Ca7       1.0  0.32275481499999986  0.33188320000000004  0.5234497226241529  1.0000
  Ca  Ca8       1.0  0.527034885  0.5754318100000001  0.45949499881909484  1.0000
  Ca  Ca9       1.0  0.7270348849999997  0.7754318100000002  0.47629750053995856  1.0000
  Ca  Ca10      1.0  0.9270348849999999  0.9754318100000001  0.4931000022608222  1.0000
  As  As1       1.0  0.173288275  0.17384347  0.45533067351359663  1.0000
  As  As2       1.0  0.3732882749999999  0.37384347000000007  0.47213317187396003  1.0000
  As  As3       1.0  0.5732882749999999  0.5738434700000001  0.4889356735948236  1.0000
  As  As4       1.0  0.7608582749999998  0.7832299100000001  0.5079371724839022  1.0000
  As  As5       1.0  0.026670014999999932  0.03282541000000002  0.5270867652626483  1.0000
  As  As6       1.0  0.259985855  0.25273701  0.4646211295675984  1.0000
  As  As7       1.0  0.4599858549999999  0.45273701000000005  0.4814236312884621  1.0000
  As  As8       1.0  0.6599858549999997  0.6527370100000002  0.4982261296488253  1.0000
  As  As9       1.0  0.8634048949999998  0.8464579500000001  0.5170593582041701  1.0000
  As  As10      1.0  0.059985854999999935  0.052737010000000015  0.44781862448623433  1.0000
  As  As11      1.0  0.4043130649999998  0.9541483400000002  0.487918678654666  1.0000
  As  As12      1.0  0.6194495449999999  0.14377920000000002  0.5058908193228208  1.0000
  As  As13      1.0  0.8051800550000002  0.3411845400000001  0.5228425138169643  1.0000
  As  As14      1.0  0.004313064999999838  0.55414834  0.45431367521293864  1.0000
  As  As15      1.0  0.2043130649999999  0.7541483400000001  0.4711161769338023  1.0000
  As  As16      1.0  0.007854204999999892  0.4824515300000001  0.5184847849956583  1.0000
  As  As17      1.0  0.22896106499999996  0.67243214  0.4488356227868924  1.0000
  As  As18      1.0  0.428961065  0.8724321400000001  0.465638124507756  1.0000
  As  As19      1.0  0.6289610650000002  0.07243214000000002  0.48244062622861966  1.0000
  As  As20      1.0  0.828755225  0.2723986200000001  0.5003071463709571  1.0000
  As  As21      1.0  0.466221025  0.024568190000000014  0.519370522152873  1.0000
  As  As22      1.0  0.686187235  0.19309295  0.44992739558070854  1.0000
  As  As23      1.0  0.8861872349999997  0.39309295000000005  0.46672989394107184  1.0000
  As  As24      1.0  0.08618723499999988  0.5930929500000002  0.48353239902243594  1.0000
  As  As25      1.0  0.284280785  0.80457571  0.5007140794391339  1.0000
  As  As26      1.0  0.9470868949999999  0.43348753000000007  0.4868269092213502  1.0000
  As  As27      1.0  0.14758285499999999  0.6259429600000002  0.5051205926439363  1.0000
  As  As28      1.0  0.32242065499999994  0.8435885500000001  0.5216999773049491  1.0000
  As  As29      1.0  0.547086895  0.033487530000000015  0.45322190577962274  1.0000
  As  As30      1.0  0.7470868949999999  0.23348753  0.47002440413998614  1.0000
