data_image0
_chemical_formula_structural       COAu12Se12
_chemical_formula_sum              "C1 O1 Au12 Se12"
_cell_length_a       5.147601957822347
_cell_length_b       13.537432235309405
_cell_length_c       102.98635466
_cell_angle_alpha    92.16508269098641
_cell_angle_beta     90.08110887497803
_cell_angle_gamma    96.49770169573256

_space_group_name_H-M_alt    "P 1"
_space_group_IT_number       1

loop_
  _space_group_symop_operation_xyz
  'x, y, z'

loop_
  _atom_site_type_symbol
  _atom_site_label
  _atom_site_symmetry_multiplicity
  _atom_site_fract_x
  _atom_site_fract_y
  _atom_site_fract_z
  _atom_site_occupancy
  C   C1        1.0  0.14234637999999988  0.38429983999999995  0.5478220404822817  1.0000
  O   O1        1.0  0.23162129999999992  0.37193177000000005  0.5578930519134238  1.0000
  Au  Au1       1.0  0.9958284399999999  0.38985132  0.5305260345998796  1.0000
  Au  Au2       1.0  0.8032898899999998  0.8753783499999999  0.5147275065629343  1.0000
  Au  Au3       1.0  0.7620031199999999  0.11527488  0.5269189856483887  1.0000
  Au  Au4       1.0  0.7461637099999999  0.58576445  0.5069682577447635  1.0000
  Au  Au5       1.0  0.6531474199999998  0.30250339  0.49819755172655367  1.0000
  Au  Au6       1.0  0.5031474199999999  0.7525033899999999  0.48218263656186927  1.0000
  Au  Au7       1.0  0.57814742  0.027503390000000003  0.49019009414421144  1.0000
  Au  Au8       1.0  0.42814741999999995  0.47750338999999997  0.4741751789795271  1.0000
  Au  Au9       1.0  0.35314741999999993  0.20250339  0.46616772139718493  1.0000
  Au  Au10      1.0  0.20314741999999988  0.6525033899999999  0.4501528062325005  1.0000
  Au  Au11      1.0  0.2781474199999999  0.9275033899999999  0.45816026381484265  1.0000
  Au  Au12      1.0  0.12814741999999993  0.37750339  0.44214534865015825  1.0000
  Se  Se1       1.0  0.9884282899999999  0.44027666  0.5070846605541465  1.0000
  Se  Se2       1.0  0.9685568699999998  0.9724966099999999  0.5332674229360078  1.0000
  Se  Se3       1.0  0.57647863  0.26663414999999996  0.521797364530994  1.0000
  Se  Se4       1.0  0.4914778699999999  0.7271356599999999  0.5064960387532346  1.0000
  Se  Se5       1.0  0.7021232799999999  0.33961627000000005  0.47421357954310894  1.0000
  Se  Se6       1.0  0.8521232799999999  0.8896162699999999  0.49022849470779334  1.0000
  Se  Se7       1.0  0.30417155999999995  0.16539051  0.49015169358062954  1.0000
  Se  Se8       1.0  0.15417155999999996  0.61539051  0.47413677841594515  1.0000
  Se  Se9       1.0  0.40212327999999997  0.23961626999999996  0.4421837492137401  1.0000
  Se  Se10      1.0  0.5521232799999999  0.7896162699999999  0.4581986643784246  1.0000
  Se  Se11      1.0  0.004171560000000074  0.06539051  0.4581218632512608  1.0000
  Se  Se12      1.0  0.8541715599999999  0.51539051  0.4421069480865764  1.0000
