data_image0
_chemical_formula_structural       CONi2Se2Ni2Se2Ni2Se2Ni2Se2Ni2Se2Ni2Se2Ni2Se2Ni2Se2
_chemical_formula_sum              "C1 O1 Ni16 Se16"
_cell_length_a       7.39747868
_cell_length_b       7.39747868
_cell_length_c       102.97634278000001
_cell_angle_alpha    90.0
_cell_angle_beta     90.0
_cell_angle_gamma    90.0

_space_group_name_H-M_alt    "P 1"
_space_group_IT_number       1

loop_
  _space_group_symop_operation_xyz
  'x, y, z'

loop_
  _atom_site_type_symbol
  _atom_site_label
  _atom_site_symmetry_multiplicity
  _atom_site_fract_x
  _atom_site_fract_y
  _atom_site_fract_z
  _atom_site_occupancy
  C   C1        1.0  0.11527714000000001  0.12387412500000004  0.568690333010375  1.0000
  O   O1        1.0  0.11529222000000001  0.12387398500000006  0.5800178976953894  1.0000
  Ni  Ni1       1.0  0.11527377000000001  0.12387329500000005  0.45861358507043537  1.0000
  Ni  Ni2       1.0  0.36527377000000005  0.37387329500000005  0.45861358507043537  1.0000
  Se  Se1       1.0  0.36527377000000005  0.12387329500000005  0.4438730334273517  1.0000
  Se  Se2       1.0  0.11527377000000001  0.37387329500000005  0.4199821023046106  1.0000
  Ni  Ni3       1.0  0.11525817000000002  0.12387505500000005  0.5514138400066944  1.0000
  Ni  Ni4       1.0  0.36636361000000006  0.37161377500000004  0.5479641064014645  1.0000
  Se  Se3       1.0  0.34580357000000006  0.12386702500000006  0.5350303721882272  1.0000
  Se  Se4       1.0  0.11527377000000001  0.37387329500000005  0.47335413991584124  1.0000
  Ni  Ni5       1.0  0.11527377000000001  0.6238732950000001  0.45861358507043537  1.0000
  Ni  Ni6       1.0  0.36527377000000005  0.8738732950000002  0.45861358507043537  1.0000
  Se  Se5       1.0  0.36527377000000005  0.6238732950000001  0.4438730334273517  1.0000
  Se  Se6       1.0  0.11527377000000001  0.8738732950000002  0.4199821023046106  1.0000
  Ni  Ni7       1.0  0.11526001000000001  0.6238704450000001  0.548985884152755  1.0000
  Ni  Ni8       1.0  0.36635745  0.8761329750000001  0.5479645515242494  1.0000
  Se  Se7       1.0  0.35839222000000004  0.6238746650000001  0.5357582344040339  1.0000
  Se  Se8       1.0  0.11527377000000001  0.8738732950000002  0.47335413991584124  1.0000
  Ni  Ni9       1.0  0.6152737700000002  0.12387329500000005  0.45861358507043537  1.0000
  Ni  Ni10      1.0  0.86527377  0.37387329500000005  0.45861358507043537  1.0000
  Se  Se9       1.0  0.86527377  0.12387329500000005  0.4438730334273517  1.0000
  Se  Se10      1.0  0.6152737700000002  0.37387329500000005  0.4199821023046106  1.0000
  Ni  Ni11      1.0  0.6152772700000002  0.12387058500000005  0.545499157321556  1.0000
  Ni  Ni12      1.0  0.8641886400000001  0.3716388850000001  0.5479598473129483  1.0000
  Se  Se11      1.0  0.8847418300000001  0.12387259500000006  0.535028838275897  1.0000
  Se  Se12      1.0  0.6152737700000002  0.37387329500000005  0.47335413991584124  1.0000
  Ni  Ni13      1.0  0.6152737700000002  0.6238732950000001  0.45861358507043537  1.0000
  Ni  Ni14      1.0  0.86527377  0.8738732950000002  0.45861358507043537  1.0000
  Se  Se13      1.0  0.86527377  0.6238732950000001  0.4438730334273517  1.0000
  Se  Se14      1.0  0.6152737700000002  0.8738732950000002  0.4199821023046106  1.0000
  Ni  Ni15      1.0  0.6153146300000001  0.6238766950000001  0.5474313680814991  1.0000
  Ni  Ni16      1.0  0.8641940800000001  0.8761076250000001  0.5479602700194778  1.0000
  Se  Se15      1.0  0.8722025800000002  0.623874435  0.5357524766287316  1.0000
  Se  Se16      1.0  0.6152737700000002  0.8738732950000002  0.47335413991584124  1.0000
