data_image0
_chemical_formula_structural       COSb8
_chemical_formula_sum              "C1 O1 Sb8"
_cell_length_a       8.84144232
_cell_length_b       4.616843018965868
_cell_length_c       99.11063732
_cell_angle_alpha    92.65535435859022
_cell_angle_beta     90.0
_cell_angle_gamma    118.60445847497392

_space_group_name_H-M_alt    "P 1"
_space_group_IT_number       1

loop_
  _space_group_symop_operation_xyz
  'x, y, z'

loop_
  _atom_site_type_symbol
  _atom_site_label
  _atom_site_symmetry_multiplicity
  _atom_site_fract_x
  _atom_site_fract_y
  _atom_site_fract_z
  _atom_site_occupancy
  C   C1        1.0  0.18699815999999994  0.20209180000000002  0.5389399779435186  1.0000
  O   O1        1.0  0.21534874999999998  0.31844466  0.5498077275697554  1.0000
  Sb  Sb1       1.0  0.013519229999999957  0.51371549  0.5053620268385661  1.0000
  Sb  Sb2       1.0  0.17425505999999993  0.14193912  0.49086275516762157  1.0000
  Sb  Sb3       1.0  0.35337784999999994  0.86422332  0.46978581706692724  1.0000
  Sb  Sb4       1.0  0.48648077  0.39663494  0.4501922724302448  1.0000
  Sb  Sb5       1.0  0.51754099  0.51359159  0.5058752677774007  1.0000
  Sb  Sb6       1.0  0.6714195899999998  0.13577667999999998  0.4906388799159669  1.0000
  Sb  Sb7       1.0  0.85337785  0.86422332  0.46978581706692724  1.0000
  Sb  Sb8       1.0  0.9864807700000001  0.39663494  0.4501922724302448  1.0000
