data_image0
_chemical_formula_structural       COV2Se2V2Se2V2Se2V2Se2V2Se2V2Se2V2Se2V2Se2
_chemical_formula_sum              "C1 O1 V16 Se16"
_cell_length_a       7.29290236
_cell_length_b       7.29290236
_cell_length_c       109.62263032
_cell_angle_alpha    90.0
_cell_angle_beta     90.0
_cell_angle_gamma    90.0

_space_group_name_H-M_alt    "P 1"
_space_group_IT_number       1

loop_
  _space_group_symop_operation_xyz
  'x, y, z'

loop_
  _atom_site_type_symbol
  _atom_site_label
  _atom_site_symmetry_multiplicity
  _atom_site_fract_x
  _atom_site_fract_y
  _atom_site_fract_z
  _atom_site_occupancy
  C   C1        1.0  0.250770865  0.37704000000000004  0.5599512373818987  1.0000
  O   O1        1.0  0.25077366500000003  0.37704602  0.5706755125564478  1.0000
  V   V1        1.0  0.25079230500000005  0.37704548  0.47375992641856074  1.0000
  V   V2        1.0  0.0007923050000000061  0.12704548  0.47375992641856074  1.0000
  Se  Se1       1.0  0.0007923050000000061  0.37704548  0.457954414810902  1.0000
  Se  Se2       1.0  0.25079230500000005  0.12704548  0.42932448744355217  1.0000
  V   V3        1.0  0.25076838500000004  0.37702936000000004  0.5419726671299581  1.0000
  V   V4        1.0  0.999198515  0.12295452000000001  0.5420098779666214  1.0000
  Se  Se3       1.0  0.9928801150000001  0.37703785000000006  0.5261997940706306  1.0000
  Se  Se4       1.0  0.25079230500000005  0.12704548  0.48956543802621955  1.0000
  V   V5        1.0  0.25079230500000005  0.8770454800000002  0.47375992641856074  1.0000
  V   V6        1.0  0.0007923050000000061  0.6270454800000002  0.47375992641856074  1.0000
  Se  Se5       1.0  0.0007923050000000061  0.8770454800000002  0.457954414810902  1.0000
  Se  Se6       1.0  0.25079230500000005  0.6270454800000002  0.42932448744355217  1.0000
  V   V7        1.0  0.25076865500000006  0.8770411  0.541558974433474  1.0000
  V   V8        1.0  0.9992076950000001  0.6311167400000001  0.5420103984484552  1.0000
  Se  Se7       1.0  0.9991087750000001  0.87704203  0.5258053049851413  1.0000
  Se  Se8       1.0  0.25079230500000005  0.6270454800000002  0.48956543802621955  1.0000
  V   V9        1.0  0.7507923050000002  0.37704548  0.47375992641856074  1.0000
  V   V10       1.0  0.500792305  0.12704548  0.47375992641856074  1.0000
  Se  Se9       1.0  0.500792305  0.37704548  0.457954414810902  1.0000
  Se  Se10      1.0  0.7507923050000002  0.12704548  0.42932448744355217  1.0000
  V   V11       1.0  0.7507985650000001  0.37704067  0.5421198586696804  1.0000
  V   V12       1.0  0.502358195  0.12295677  0.542009245436615  1.0000
  Se  Se11      1.0  0.508688125  0.37703824  0.5262002133476633  1.0000
  Se  Se12      1.0  0.7507923050000002  0.12704548  0.48956543802621955  1.0000
  V   V13       1.0  0.7507923050000002  0.8770454800000002  0.47375992641856074  1.0000
  V   V14       1.0  0.500792305  0.6270454800000002  0.47375992641856074  1.0000
  Se  Se13      1.0  0.500792305  0.8770454800000002  0.457954414810902  1.0000
  Se  Se14      1.0  0.7507923050000002  0.6270454800000002  0.42932448744355217  1.0000
  V   V15       1.0  0.7507999750000001  0.87702906  0.5417168322363332  1.0000
  V   V16       1.0  0.502349245  0.6311127499999999  0.5420096357979904  1.0000
  Se  Se15      1.0  0.502457055  0.8770415  0.5258065555873255  1.0000
  Se  Se16      1.0  0.7507923050000002  0.6270454800000002  0.48956543802621955  1.0000
