data_image0
_chemical_formula_structural       COMn2Se2Mn2Se2Mn2Se2Mn2Se2Mn2Se2Mn2Se2Mn2Se2Mn2Se2
_chemical_formula_sum              "C1 O1 Mn16 Se16"
_cell_length_a       7.20427428
_cell_length_b       7.20427428
_cell_length_c       107.36246806
_cell_angle_alpha    90.0
_cell_angle_beta     90.0
_cell_angle_gamma    90.0

_space_group_name_H-M_alt    "P 1"
_space_group_IT_number       1

loop_
  _space_group_symop_operation_xyz
  'x, y, z'

loop_
  _atom_site_type_symbol
  _atom_site_label
  _atom_site_symmetry_multiplicity
  _atom_site_fract_x
  _atom_site_fract_y
  _atom_site_fract_z
  _atom_site_occupancy
  C   C1        1.0  0.6249990400000001  0.499999  0.5543904066566261  1.0000
  O   O1        1.0  0.62500167  0.50000819  0.5652812983288145  1.0000
  Mn  Mn1       1.0  0.375  8.100000000020001e-07  0.492719213833979  1.0000
  Mn  Mn2       1.0  0.125  0.25000081  0.492719213833979  1.0000
  Se  Se1       1.0  0.375  0.25000081  0.5072009473026153  1.0000
  Se  Se2       1.0  0.12500383  1.4300000000020001e-06  0.5371392439084448  1.0000
  Mn  Mn3       1.0  0.375  8.100000000020001e-07  0.4347187016711854  1.0000
  Mn  Mn4       1.0  0.125  0.25000081  0.4347187016711854  1.0000
  Se  Se3       1.0  0.375  0.25000081  0.44920043861985254  1.0000
  Se  Se4       1.0  0.125  8.100000000020001e-07  0.4782374768853119  1.0000
  Mn  Mn5       1.0  0.375  0.50000081  0.492719213833979  1.0000
  Mn  Mn6       1.0  0.125  0.75000081  0.492719213833979  1.0000
  Se  Se5       1.0  0.375  0.75000081  0.5072009473026153  1.0000
  Se  Se6       1.0  0.12500155999999998  0.50000344  0.5354879241197971  1.0000
  Mn  Mn7       1.0  0.375  0.50000081  0.4347187016711854  1.0000
  Mn  Mn8       1.0  0.125  0.75000081  0.4347187016711854  1.0000
  Se  Se7       1.0  0.375  0.75000081  0.44920043861985254  1.0000
  Se  Se8       1.0  0.125  0.50000081  0.4782374768853119  1.0000
  Mn  Mn9       1.0  0.875  8.100000000020001e-07  0.492719213833979  1.0000
  Mn  Mn10      1.0  0.625  0.25000081  0.492719213833979  1.0000
  Se  Se9       1.0  0.875  0.25000081  0.5072009473026153  1.0000
  Se  Se10      1.0  0.62499924  0.99999919  0.5354409959063446  1.0000
  Mn  Mn11      1.0  0.875  8.100000000020001e-07  0.4347187016711854  1.0000
  Mn  Mn12      1.0  0.625  0.25000081  0.4347187016711854  1.0000
  Se  Se11      1.0  0.875  0.25000081  0.44920043861985254  1.0000
  Se  Se12      1.0  0.625  8.100000000020001e-07  0.4782374768853119  1.0000
  Mn  Mn13      1.0  0.875  0.50000081  0.492719213833979  1.0000
  Mn  Mn14      1.0  0.625  0.75000081  0.492719213833979  1.0000
  Se  Se13      1.0  0.875  0.75000081  0.5072009473026153  1.0000
  Se  Se14      1.0  0.6250021200000001  0.50000113  0.5381438765595751  1.0000
  Mn  Mn15      1.0  0.875  0.50000081  0.4347187016711854  1.0000
  Mn  Mn16      1.0  0.625  0.75000081  0.4347187016711854  1.0000
  Se  Se15      1.0  0.875  0.75000081  0.44920043861985254  1.0000
  Se  Se16      1.0  0.625  0.50000081  0.4782374768853119  1.0000
