data_image0
_chemical_formula_structural       COSb18
_chemical_formula_sum              "C1 O1 Sb18"
_cell_length_a       8.84144232
_cell_length_b       7.269455465212746
_cell_length_c       108.35216477
_cell_angle_alpha    93.28010717809774
_cell_angle_beta     90.0
_cell_angle_gamma    107.7017025311684

_space_group_name_H-M_alt    "P 1"
_space_group_IT_number       1

loop_
  _space_group_symop_operation_xyz
  'x, y, z'

loop_
  _atom_site_type_symbol
  _atom_site_label
  _atom_site_symmetry_multiplicity
  _atom_site_fract_x
  _atom_site_fract_y
  _atom_site_fract_z
  _atom_site_occupancy
  C   C1        1.0  0.25966156  0.55809726  0.543898899127345  1.0000
  O   O1        1.0  0.23901559  0.47679662  0.5530391647550444  1.0000
  Sb  Sb1       1.0  0.13283122000000003  0.05555555999999999  0.46662519185481904  1.0000
  Sb  Sb2       1.0  0.46887719  0.3997396  0.4981964489405472  1.0000
  Sb  Sb3       1.0  0.30437001  0.72772197  0.5282895011895365  1.0000
  Sb  Sb4       1.0  0.410609  0.16666667  0.4469608352449555  1.0000
  Sb  Sb5       1.0  0.24394233  0.5  0.4764573719295431  1.0000
  Sb  Sb6       1.0  0.06330469000000004  0.8384889400000001  0.5045831691037244  1.0000
  Sb  Sb7       1.0  0.35505344  0.94444444  0.48628955200426716  1.0000
  Sb  Sb8       1.0  0.20532813000000005  0.33886265000000004  0.5160813325148167  1.0000
  Sb  Sb9       1.0  0.021720110000000032  0.6111111100000001  0.4567930153196796  1.0000
  Sb  Sb10      1.0  0.63283122  0.05555555999999999  0.46662519185481904  1.0000
  Sb  Sb11      1.0  0.9782798900000002  0.41270692000000003  0.4983792083092938  1.0000
  Sb  Sb12      1.0  0.8083190699999999  0.75925359  0.5236968867044574  1.0000
  Sb  Sb13      1.0  0.9106090000000002  0.16666667  0.4469608352449555  1.0000
  Sb  Sb14      1.0  0.74394233  0.5  0.4764573719295431  1.0000
  Sb  Sb15      1.0  0.59464884  0.82727276  0.5043655129709611  1.0000
  Sb  Sb16      1.0  0.85505344  0.94444444  0.48628955200426716  1.0000
  Sb  Sb17      1.0  0.71128263  0.35395044  0.5159604132276336  1.0000
  Sb  Sb18      1.0  0.5217201100000001  0.6111111100000001  0.4567930153196796  1.0000
