data_image0
_chemical_formula_structural       COSb24
_chemical_formula_sum              "C1 O1 Sb24"
_cell_length_a       8.84144232
_cell_length_b       8.841442324144085
_cell_length_c       104.62483875000001
_cell_angle_alpha    90.0
_cell_angle_beta     90.0
_cell_angle_gamma    119.99999998449515

_space_group_name_H-M_alt    "P 1"
_space_group_IT_number       1

loop_
  _space_group_symop_operation_xyz
  'x, y, z'

loop_
  _atom_site_type_symbol
  _atom_site_label
  _atom_site_symmetry_multiplicity
  _atom_site_fract_x
  _atom_site_fract_y
  _atom_site_fract_z
  _atom_site_occupancy
  C   C1        1.0  0.4160101550000001  0.24868253499999998  0.5493831264827465  1.0000
  O   O1        1.0  0.4167333450000001  0.24993209499999997  0.5604258840586032  1.0000
  Sb  Sb1       1.0  0.08446569500000006  0.084299695  0.5166515615274637  1.0000
  Sb  Sb2       1.0  0.241069945  0.42566346499999996  0.531723253347912  1.0000
  Sb  Sb3       1.0  0.4166666650000001  0.25000000499999997  0.4395741159413969  1.0000
  Sb  Sb4       1.0  0.08333333500000006  0.08333333499999998  0.4616739443698982  1.0000
  Sb  Sb5       1.0  0.250000005  0.41666666499999994  0.47634554287305275  1.0000
  Sb  Sb6       1.0  0.4166666650000001  0.25000000499999997  0.4984453679921259  1.0000
  Sb  Sb7       1.0  0.08363280500000005  0.5839093149999999  0.5153779777418585  1.0000
  Sb  Sb8       1.0  0.241814585  0.9003763149999998  0.5316740123663328  1.0000
  Sb  Sb9       1.0  0.4166666650000001  0.750000005  0.4395741159413969  1.0000
  Sb  Sb10      1.0  0.08333333500000004  0.583333335  0.4616739443698982  1.0000
  Sb  Sb11      1.0  0.250000005  0.9166666649999998  0.47634554287305275  1.0000
  Sb  Sb12      1.0  0.4166666650000001  0.750000005  0.4984453679921259  1.0000
  Sb  Sb13      1.0  0.583164545  0.08429543499999999  0.5166512471317886  1.0000
  Sb  Sb14      1.0  0.767933705  0.42567722499999994  0.5317234088910355  1.0000
  Sb  Sb15      1.0  0.916666665  0.25000000499999997  0.4395741159413969  1.0000
  Sb  Sb16      1.0  0.5833333350000001  0.08333333499999998  0.4616739443698982  1.0000
  Sb  Sb17      1.0  0.7500000050000001  0.41666666499999994  0.47634554287305275  1.0000
  Sb  Sb18      1.0  0.916666665  0.25000000499999997  0.4984453679921259  1.0000
  Sb  Sb19      1.0  0.582193315  0.5810657749999999  0.5166910529336862  1.0000
  Sb  Sb20      1.0  0.7499810650000001  0.9166269349999999  0.5317080994763715  1.0000
  Sb  Sb21      1.0  0.916666665  0.750000005  0.4395741159413969  1.0000
  Sb  Sb22      1.0  0.5833333350000001  0.583333335  0.4616739443698982  1.0000
  Sb  Sb23      1.0  0.750000005  0.9166666649999998  0.47634554287305275  1.0000
  Sb  Sb24      1.0  0.916666665  0.750000005  0.4984453679921259  1.0000
