data_image0
_chemical_formula_structural       COAu16Se16Au16Se16
_chemical_formula_sum              "C1 O1 Au32 Se32"
_cell_length_a       7.64561382
_cell_length_b       28.522232410285206
_cell_length_c       105.62417076
_cell_angle_alpha    60.67070439473105
_cell_angle_beta     90.0
_cell_angle_gamma    90.0

_space_group_name_H-M_alt    "P 1"
_space_group_IT_number       1

loop_
  _space_group_symop_operation_xyz
  'x, y, z'

loop_
  _atom_site_type_symbol
  _atom_site_label
  _atom_site_symmetry_multiplicity
  _atom_site_fract_x
  _atom_site_fract_y
  _atom_site_fract_z
  _atom_site_occupancy
  C   C1        1.0  0.39003815999999997  0.32659747499999997  0.5423237881284969  1.0000
  O   O1        1.0  0.38530244999999996  0.324526205  0.553459186940223  1.0000
  Au  Au1       1.0  5.4699999999792106e-06  0.015599545000000005  0.45542479719461904  1.0000
  Au  Au2       1.0  5.4699999999792106e-06  0.5155995449999999  0.49758391014158065  1.0000
  Au  Au3       1.0  0.25000546999999995  0.234057845  0.48544866917993346  1.0000
  Au  Au4       1.0  0.2500501299999999  0.7247515849999999  0.5206111299422561  1.0000
  Au  Au5       1.0  5.4699999999792106e-06  0.175247265  0.4676203695332578  1.0000
  Au  Au6       1.0  7.388999999997921e-05  0.680787775  0.5111838430052311  1.0000
  Au  Au7       1.0  0.25000546999999995  0.07441012500000001  0.47325309684129463  1.0000
  Au  Au8       1.0  0.25008138999999996  0.6125934249999999  0.5093409501328031  1.0000
  Au  Au9       1.0  0.25059570999999997  0.234594085  0.520626114977362  1.0000
  Au  Au10      1.0  0.25000546999999995  0.7655995449999998  0.4765043536680998  1.0000
  Au  Au11      1.0  5.4699999999792106e-06  0.48405784500000004  0.4643691127064527  1.0000
  Au  Au12      1.0  0.9999945299999999  0.9844004549999998  0.5062546096376594  1.0000
  Au  Au13      1.0  0.25000546999999995  0.425247265  0.446540813059777  1.0000
  Au  Au14      1.0  0.25000546999999995  0.925247265  0.4886999260067385  1.0000
  Au  Au15      1.0  5.4699999999792106e-06  0.324410125  0.45217354036781393  1.0000
  Au  Au16      1.0  5.4699999999792106e-06  0.8244101249999999  0.49433265331477555  1.0000
  Se  Se1       1.0  0.0006219399999999792  0.178242685  0.5356530494960412  1.0000
  Se  Se2       1.0  5.4699999999792106e-06  0.697697355  0.4838792439231828  1.0000
  Se  Se3       1.0  0.25000546999999995  0.083232845  0.4485811252535839  1.0000
  Se  Se4       1.0  0.25000546999999995  0.583232845  0.4907402382005455  1.0000
  Se  Se5       1.0  5.4699999999792106e-06  0.166424545  0.49229234112096854  1.0000
  Se  Se6       1.0  5.4699999999792106e-06  0.6664245449999998  0.450133228174007  1.0000
  Se  Se7       1.0  0.25000546999999995  0.05196003500000001  0.49915333539833123  1.0000
  Se  Se8       1.0  0.25000546999999995  0.5519600349999999  0.45699422245136967  1.0000
  Se  Se9       1.0  0.25000343999999997  0.45156256499999997  0.5034104614418444  1.0000
  Se  Se10      1.0  0.25000546999999995  0.947697355  0.46279968744970196  1.0000
  Se  Se11      1.0  0.0006301399999999792  0.295455835  0.5064206794426511  1.0000
  Se  Se12      1.0  5.4699999999792106e-06  0.8332328449999999  0.46966068172706465  1.0000
  Se  Se13      1.0  0.25000546999999995  0.416424545  0.47121278464748784  1.0000
  Se  Se14      1.0  0.24998695999999995  0.9171312849999999  0.5131042917818363  1.0000
  Se  Se15      1.0  5.4699999999792106e-06  0.301960035  0.47807377892485053  1.0000
  Se  Se16      1.0  8.46799999999792e-05  0.7807575349999999  0.5213513360382757  1.0000
  Au  Au17      1.0  0.50000547  0.015599545000000005  0.45542479719461904  1.0000
  Au  Au18      1.0  0.50000547  0.5155995449999999  0.49758391014158065  1.0000
  Au  Au19      1.0  0.7500054699999998  0.234057845  0.48544866917993346  1.0000
  Au  Au20      1.0  0.7501349899999998  0.7247479549999999  0.5206103373509327  1.0000
  Au  Au21      1.0  0.50000547  0.175247265  0.4676203695332578  1.0000
  Au  Au22      1.0  0.5000737  0.6807942249999999  0.5111808615127635  1.0000
  Au  Au23      1.0  0.7500054699999998  0.07441012500000001  0.47325309684129463  1.0000
  Au  Au24      1.0  0.7500813899999998  0.6125934249999999  0.5093409501328031  1.0000
  Au  Au25      1.0  0.7506625699999999  0.23464731500000002  0.5206647091157182  1.0000
  Au  Au26      1.0  0.7500054699999998  0.7655995449999998  0.4765043536680998  1.0000
  Au  Au27      1.0  0.50000547  0.48405784500000004  0.4643691127064527  1.0000
  Au  Au28      1.0  0.49999452999999994  0.9844004549999998  0.5062546096376594  1.0000
  Au  Au29      1.0  0.7500054699999998  0.425247265  0.446540813059777  1.0000
  Au  Au30      1.0  0.7500054699999998  0.925247265  0.4886999260067385  1.0000
  Au  Au31      1.0  0.50000547  0.324410125  0.45217354036781393  1.0000
  Au  Au32      1.0  0.50000547  0.8244101249999999  0.49433265331477555  1.0000
  Se  Se17      1.0  0.5004175099999999  0.17811902500000001  0.535595109383936  1.0000
  Se  Se18      1.0  0.50000547  0.697697355  0.4838792439231828  1.0000
  Se  Se19      1.0  0.7500054699999998  0.083232845  0.4485811252535839  1.0000
  Se  Se20      1.0  0.7500054699999998  0.583232845  0.4907402382005455  1.0000
  Se  Se21      1.0  0.50000547  0.166424545  0.49229234112096854  1.0000
  Se  Se22      1.0  0.50000547  0.6664245449999998  0.450133228174007  1.0000
  Se  Se23      1.0  0.7500054699999998  0.05196003500000001  0.49915333539833123  1.0000
  Se  Se24      1.0  0.7500054699999998  0.5519600349999999  0.45699422245136967  1.0000
  Se  Se25      1.0  0.7500034399999999  0.45156256499999997  0.5034104614418444  1.0000
  Se  Se26      1.0  0.7500054699999998  0.947697355  0.46279968744970196  1.0000
  Se  Se27      1.0  0.50063014  0.295455835  0.5064206794426511  1.0000
  Se  Se28      1.0  0.50000547  0.8332328449999999  0.46966068172706465  1.0000
  Se  Se29      1.0  0.7500054699999998  0.416424545  0.47121278464748784  1.0000
  Se  Se30      1.0  0.7500021099999999  0.9171398949999999  0.51310200507155  1.0000
  Se  Se31      1.0  0.50000547  0.301960035  0.47807377892485053  1.0000
  Se  Se32      1.0  0.5000164199999999  0.780738195  0.5213542433307043  1.0000
