data_image0
_chemical_formula_structural       COSn3Au15
_chemical_formula_sum              "C1 O1 Sn3 Au15"
_cell_length_a       5.235862414422564
_cell_length_b       5.23586242
_cell_length_c       114.22015354
_cell_angle_alpha    90.0
_cell_angle_beta     90.0
_cell_angle_gamma    120.00000003523776

_space_group_name_H-M_alt    "P 1"
_space_group_IT_number       1

loop_
  _space_group_symop_operation_xyz
  'x, y, z'

loop_
  _atom_site_type_symbol
  _atom_site_label
  _atom_site_symmetry_multiplicity
  _atom_site_fract_x
  _atom_site_fract_y
  _atom_site_fract_z
  _atom_site_occupancy
  C   C1        1.0  0.8505136200000001  0.5392916200000001  0.5592628723118892  1.0000
  O   O1        1.0  0.81116196  0.4875129100000001  0.5691810576895421  1.0000
  Sn  Sn1       1.0  0.50357869  0.18453620000000007  0.518278456421964  1.0000
  Sn  Sn2       1.0  0.8243027599999999  0.8304324600000003  0.4742713481640503  1.0000
  Sn  Sn3       1.0  0.15763609999999995  0.49709913000000006  0.4312548559608668  1.0000
  Au  Au1       1.0  0.14948637999999995  0.5088210800000001  0.5173498576748282  1.0000
  Au  Au2       1.0  0.81005773  0.4784187700000001  0.5415018146069172  1.0000
  Au  Au3       1.0  0.16080307999999996  0.1803329100000001  0.5382132557950537  1.0000
  Au  Au4       1.0  0.49754313  0.83270153  0.5382172201950148  1.0000
  Au  Au5       1.0  0.49096942999999993  0.16376579000000008  0.4308189423104578  1.0000
  Au  Au6       1.0  0.49096942999999993  0.16376579000000008  0.47470726181445927  1.0000
  Au  Au7       1.0  0.15763609999999995  0.1695675400000001  0.4957795923298999  1.0000
  Au  Au8       1.0  0.48516768000000005  0.8246307100000002  0.4957795923298999  1.0000
  Au  Au9       1.0  0.8301045100000001  0.49709913000000006  0.4957795923298999  1.0000
  Au  Au10      1.0  0.8263311999999999  0.8353301300000001  0.5168624726401587  1.0000
  Au  Au11      1.0  0.8243027599999999  0.8304324600000003  0.43169076961127584  1.0000
  Au  Au12      1.0  0.49096942999999993  0.8362342100000001  0.45276310012671644  1.0000
  Au  Au13      1.0  0.8185010100000001  0.4912973800000001  0.45276310012671644  1.0000
  Au  Au14      1.0  0.16343783999999997  0.16376579000000008  0.45276310012671644  1.0000
  Au  Au15      1.0  0.15763609999999995  0.49709913000000006  0.4738354345136413  1.0000
