data_image0
_chemical_formula_structural       CONi4As8Ni4As8
_chemical_formula_sum              "C1 O1 Ni8 As16"
_cell_length_a       6.0214099487158945
_cell_length_b       5.88416967
_cell_length_c       106.12845970000001
_cell_angle_alpha    90.0
_cell_angle_beta     105.74229047873955
_cell_angle_gamma    90.0

_space_group_name_H-M_alt    "P 1"
_space_group_IT_number       1

loop_
  _space_group_symop_operation_xyz
  'x, y, z'

loop_
  _atom_site_type_symbol
  _atom_site_label
  _atom_site_symmetry_multiplicity
  _atom_site_fract_x
  _atom_site_fract_y
  _atom_site_fract_z
  _atom_site_occupancy
  C   C1        1.0  0.534900175  0.79094564  0.563211906065144  1.0000
  O   O1        1.0  0.39985589499999996  0.80497725  0.5690176666551059  1.0000
  Ni  Ni1       1.0  0.749999995  0.5549965  0.487719330069894  1.0000
  Ni  Ni2       1.0  0.249503025  0.5544915699999999  0.5169574550870144  1.0000
  Ni  Ni3       1.0  0.7506147349999999  0.06461919999999997  0.5171929317745527  1.0000
  Ni  Ni4       1.0  0.24999999500000003  0.05499649999999998  0.487719330069894  1.0000
  As  As1       1.0  0.646515525  0.92364927  0.4935907274205744  1.0000
  As  As2       1.0  0.149704005  0.9450035000000001  0.5230590730099616  1.0000
  As  As3       1.0  0.763106745  0.29326717  0.5368068271793521  1.0000
  As  As4       1.0  0.35091102500000004  0.18156308  0.5100800563370029  1.0000
  As  As5       1.0  0.34474435500000006  0.30843262  0.5363806086558188  1.0000
  As  As6       1.0  0.8487851049999999  0.43285026  0.5102743045193255  1.0000
  As  As7       1.0  0.6485069849999999  0.66801753  0.5231108716174557  1.0000
  As  As8       1.0  0.146515525  0.6863437300000002  0.4935907274205744  1.0000
  Ni  Ni5       1.0  0.749999995  0.5549965  0.43098233334489394  1.0000
  Ni  Ni6       1.0  0.24999999500000003  0.5549965  0.4593508300052841  1.0000
  Ni  Ni7       1.0  0.749999995  0.05499649999999998  0.4593508300052841  1.0000
  Ni  Ni8       1.0  0.24999999500000003  0.05499649999999998  0.430982333344894  1.0000
  As  As9       1.0  0.646515525  0.92364927  0.4368537306955744  1.0000
  As  As10      1.0  0.146515525  0.92364927  0.4652222307601843  1.0000
  As  As11      1.0  0.8534844749999999  0.18634373  0.48184793271921356  1.0000
  As  As12      1.0  0.353484475  0.18634373  0.45347943265460366  1.0000
  As  As13      1.0  0.353484475  0.42364926999999997  0.48184793271921356  1.0000
  As  As14      1.0  0.8534844749999999  0.42364926999999997  0.4534794326546036  1.0000
  As  As15      1.0  0.646515525  0.6863437300000002  0.4652222307601843  1.0000
  As  As16      1.0  0.146515525  0.6863437300000002  0.4368537306955744  1.0000
