data_image0
_chemical_formula_structural       COAs4Os2As4Os2As4Os2As4Os2
_chemical_formula_sum              "C1 O1 As16 Os8"
_cell_length_a       6.28577763
_cell_length_b       6.13148658
_cell_length_c       103.00404448
_cell_angle_alpha    90.0
_cell_angle_beta     90.0
_cell_angle_gamma    90.0

_space_group_name_H-M_alt    "P 1"
_space_group_IT_number       1

loop_
  _space_group_symop_operation_xyz
  'x, y, z'

loop_
  _atom_site_type_symbol
  _atom_site_label
  _atom_site_symmetry_multiplicity
  _atom_site_fract_x
  _atom_site_fract_y
  _atom_site_fract_z
  _atom_site_occupancy
  C   C1        1.0  0.972078635  0.5906237200000001  0.5495230417574214  1.0000
  O   O1        1.0  0.027921365000000024  0.5772287  0.5603275456665548  1.0000
  As  As1       1.0  0.415348565  0.37915883  0.5106325483745692  1.0000
  As  As2       1.0  0.15396540500000003  0.41221011  0.5295929702708577  1.0000
  As  As3       1.0  0.921601295  0.12533178000000003  0.50220713571008  1.0000
  As  As4       1.0  0.639085715  0.12466822000000001  0.5362848062277865  1.0000
  Os  Os1       1.0  0.785195115  0.37708762  0.5202519011535806  1.0000
  Os  Os2       1.0  0.286687175  0.12533178000000003  0.4930749611746356  1.0000
  As  As5       1.0  0.42160129500000004  0.37533178  0.4572415316165209  1.0000
  As  As6       1.0  0.15177305500000002  0.37533178  0.47550588389156007  1.0000
  As  As7       1.0  0.921601295  0.12533178000000003  0.44880463207304  1.0000
  As  As8       1.0  0.651773055  0.12533178000000003  0.48394278343504094  1.0000
  Os  Os3       1.0  0.7866871750000002  0.37533178  0.4663737061519653  1.0000
  Os  Os4       1.0  0.286687175  0.12533178000000003  0.43967245433344526  1.0000
  As  As9       1.0  0.413750955  0.87170023  0.5107167758747246  1.0000
  As  As10      1.0  0.15834165500000003  0.84141822  0.5294948079208458  1.0000
  As  As11      1.0  0.921601295  0.62533178  0.50220713571008  1.0000
  As  As12      1.0  0.6825046950000001  0.6228554900000001  0.5381609708299114  1.0000
  Os  Os5       1.0  0.785794205  0.87371159  0.5205290922000466  1.0000
  Os  Os6       1.0  0.286687175  0.62533178  0.4930749611746356  1.0000
  As  As13      1.0  0.42160129500000004  0.87533178  0.4572415316165209  1.0000
  As  As14      1.0  0.15177305500000002  0.87533178  0.47550588389156007  1.0000
  As  As15      1.0  0.921601295  0.62533178  0.44880463207304  1.0000
  As  As16      1.0  0.651773055  0.62533178  0.48394278343504094  1.0000
  Os  Os7       1.0  0.7866871750000002  0.87533178  0.4663737061519653  1.0000
  Os  Os8       1.0  0.286687175  0.62533178  0.43967245433344526  1.0000
