data_image0
_chemical_formula_structural       COAs8Rh4As8Rh4
_chemical_formula_sum              "C1 O1 As16 Rh8"
_cell_length_a       6.17151112
_cell_length_b       6.263385298133355
_cell_length_c       107.12046406
_cell_angle_alpha    90.0
_cell_angle_beta     90.0
_cell_angle_gamma    114.27448321344889

_space_group_name_H-M_alt    "P 1"
_space_group_IT_number       1

loop_
  _space_group_symop_operation_xyz
  'x, y, z'

loop_
  _atom_site_type_symbol
  _atom_site_label
  _atom_site_symmetry_multiplicity
  _atom_site_fract_x
  _atom_site_fract_y
  _atom_site_fract_z
  _atom_site_occupancy
  C   C1        1.0  0.285291055  0.19130301999999996  0.5571095207082485  1.0000
  O   O1        1.0  0.305863005  0.15021366999999997  0.5675507495463963  1.0000
  As  As1       1.0  0.15935070500000004  0.87029776  0.47534328212520344  1.0000
  As  As2       1.0  0.846964865  0.6297022399999999  0.44646577577373286  1.0000
  As  As3       1.0  0.8469648650000001  0.12970223999999997  0.4324492504536037  1.0000
  As  As4       1.0  0.15935070500000004  0.37029776  0.46132676027037517  1.0000
  As  As5       1.0  0.341694605  0.18256117999999993  0.4464052681547042  1.0000
  As  As6       1.0  0.664620965  0.31743881999999995  0.47528277450617473  1.0000
  As  As7       1.0  0.664620965  0.8174388199999999  0.4613872678894038  1.0000
  As  As8       1.0  0.34169460500000004  0.68256118  0.4325097615379333  1.0000
  Rh  Rh1       1.0  0.27530782499999995  0.7893875899999999  0.453869200556718  1.0000
  Rh  Rh2       1.0  0.731007745  0.71061241  0.48274671037348943  1.0000
  Rh  Rh3       1.0  0.731007745  0.21061240999999997  0.4539233320220892  1.0000
  Rh  Rh4       1.0  0.275307825  0.2893875899999999  0.4828008383735597  1.0000
  As  As9       1.0  0.16091165500000001  0.84861469  0.5337834229345403  1.0000
  As  As10      1.0  0.846964865  0.6297022399999999  0.504220788476674  1.0000
  As  As11      1.0  0.8469648650000001  0.12970223999999997  0.49020426662184563  1.0000
  As  As12      1.0  0.15303513500000004  0.36421548  0.5189010090171275  1.0000
  As  As13      1.0  0.341694605  0.18256117999999993  0.5041602808576452  1.0000
  As  As14      1.0  0.6565009850000001  0.32747711999999995  0.5339583339975075  1.0000
  As  As15      1.0  0.6693360950000001  0.82093044  0.5188761662749698  1.0000
  As  As16      1.0  0.34169460500000004  0.68256118  0.49026477424087433  1.0000
  Rh  Rh5       1.0  0.27566260499999995  0.7890530799999999  0.5119309478341932  1.0000
  Rh  Rh6       1.0  0.7563014849999999  0.7217519299999999  0.5387924252888066  1.0000
  Rh  Rh7       1.0  0.725329895  0.21358808999999995  0.5120909373114817  1.0000
  Rh  Rh8       1.0  0.24299476500000006  0.2591145999999999  0.540122906777859  1.0000
