data_image0
_chemical_formula_structural       CONaPb3NaPb3
_chemical_formula_sum              "C1 O1 Na2 Pb6"
_cell_length_a       5.01131949
_cell_length_b       5.01131949
_cell_length_c       100.06791694
_cell_angle_alpha    90.0
_cell_angle_beta     90.0
_cell_angle_gamma    90.0

_space_group_name_H-M_alt    "P 1"
_space_group_IT_number       1

loop_
  _space_group_symop_operation_xyz
  'x, y, z'

loop_
  _atom_site_type_symbol
  _atom_site_label
  _atom_site_symmetry_multiplicity
  _atom_site_fract_x
  _atom_site_fract_y
  _atom_site_fract_z
  _atom_site_occupancy
  C   C1        1.0  1.4850000000458297e-06  0.74979993  0.5472092258220806  1.0000
  O   O1        1.0  0.999998515  0.75005024  0.5587235066161027  1.0000
  Na  Na1       1.0  1.6350000000458298e-06  0.24994976  0.4663160837080966  1.0000
  Pb  Pb1       1.0  0.500001635  0.74994976  0.4663160837080966  1.0000
  Pb  Pb2       1.0  0.500001635  0.24994976  0.4412764933838972  1.0000
  Pb  Pb3       1.0  1.6350000000458298e-06  0.74994976  0.4412764933838972  1.0000
  Na  Na2       1.0  3.2350000000458304e-06  0.24996799000000003  0.5185649469480418  1.0000
  Pb  Pb4       1.0  0.500001555  0.74997359  0.5165232517235979  1.0000
  Pb  Pb5       1.0  0.500001855  0.2499665  0.49370488147939534  1.0000
  Pb  Pb6       1.0  3.7750000000458294e-06  0.74996357  0.4940257798675737  1.0000
