data_image0
_chemical_formula_structural       COAs4Ru2As4Ru2As4Ru2
_chemical_formula_sum              "C1 O1 As12 Ru6"
_cell_length_a       5.51255971
_cell_length_b       6.964995702857999
_cell_length_c       103.29070899
_cell_angle_alpha    115.75473783651451
_cell_angle_beta     90.0
_cell_angle_gamma    90.0

_space_group_name_H-M_alt    "P 1"
_space_group_IT_number       1

loop_
  _space_group_symop_operation_xyz
  'x, y, z'

loop_
  _atom_site_type_symbol
  _atom_site_label
  _atom_site_symmetry_multiplicity
  _atom_site_fract_x
  _atom_site_fract_y
  _atom_site_fract_z
  _atom_site_occupancy
  C   C1        1.0  0.07881418000000004  0.6637910950000001  0.5411524308073329  1.0000
  O   O1        1.0  0.9642339  0.738811355  0.5519483798899384  1.0000
  As  As1       1.0  0.3648453000000001  0.8669632549999999  0.46945918138489867  1.0000
  As  As2       1.0  0.7066869  0.13633231499999998  0.44805162011006155  1.0000
  As  As3       1.0  0.20668690000000006  0.366963255  0.46945918138489867  1.0000
  As  As4       1.0  0.8648453  0.636332315  0.44805162011006155  1.0000
  Ru  Ru1       1.0  0.5357661  0.501647785  0.45875540074748006  1.0000
  Ru  Ru2       1.0  0.03576610000000003  0.0016477849999999915  0.45875540074748006  1.0000
  As  As5       1.0  0.3648453000000001  0.8669632549999999  0.498759280971094  1.0000
  As  As6       1.0  0.7066869  0.13633231499999998  0.4773517196962569  1.0000
  As  As7       1.0  0.20668690000000006  0.366963255  0.498759280971094  1.0000
  As  As8       1.0  0.8648453  0.636332315  0.4773517196962569  1.0000
  Ru  Ru3       1.0  0.5357661  0.501647785  0.4880555003336754  1.0000
  Ru  Ru4       1.0  0.03576610000000003  0.0016477849999999915  0.4880555003336754  1.0000
  As  As9       1.0  0.27681972000000005  0.804973655  0.5286757975235528  1.0000
  As  As10      1.0  0.7164741  0.133266055  0.507157561274443  1.0000
  As  As11      1.0  0.25130883000000004  0.35571838499999997  0.5288759593978716  1.0000
  As  As12      1.0  0.8597318900000002  0.6316576749999999  0.5070486460641691  1.0000
  Ru  Ru5       1.0  0.5189801100000001  0.493457375  0.516506871544696  1.0000
  Ru  Ru6       1.0  0.060335160000000033  0.998352215  0.517227710843918  1.0000
