data_image0
_chemical_formula_structural       COAs4Os2As4Os2As4Os2
_chemical_formula_sum              "C1 O1 As12 Os6"
_cell_length_a       6.28577763
_cell_length_b       6.297316670976922
_cell_length_c       103.72317619
_cell_angle_alpha    119.13265348253259
_cell_angle_beta     90.0
_cell_angle_gamma    90.0

_space_group_name_H-M_alt    "P 1"
_space_group_IT_number       1

loop_
  _space_group_symop_operation_xyz
  'x, y, z'

loop_
  _atom_site_type_symbol
  _atom_site_label
  _atom_site_symmetry_multiplicity
  _atom_site_fract_x
  _atom_site_fract_y
  _atom_site_fract_z
  _atom_site_occupancy
  C   C1        1.0  0.622724315  0.7100820099999999  0.5364056208115212  1.0000
  O   O1        1.0  0.657748945  0.8281715199999999  0.5490528129247807  1.0000
  As  As1       1.0  0.19965629499999996  0.67915371  0.4610560596043098  1.0000
  As  As2       1.0  0.929828055  0.33714067  0.4509471870752193  1.0000
  As  As3       1.0  0.699656295  0.8371406699999999  0.4509471870752193  1.0000
  As  As4       1.0  0.42982805499999993  0.17915371  0.4610560596043098  1.0000
  Os  Os1       1.0  0.564742175  0.50814719  0.4560016233397645  1.0000
  Os  Os2       1.0  0.06474217499999997  0.008147190000000014  0.4560016233397645  1.0000
  As  As5       1.0  0.19965629499999996  0.67915371  0.49061303396582323  1.0000
  As  As6       1.0  0.929828055  0.33714067  0.48050416143673275  1.0000
  As  As7       1.0  0.699656295  0.8371406699999999  0.48050416143673275  1.0000
  As  As8       1.0  0.42982805499999993  0.17915371  0.4906130339658232  1.0000
  Os  Os3       1.0  0.564742175  0.50814719  0.48555859770127796  1.0000
  Os  Os4       1.0  0.06474217499999997  0.008147190000000014  0.48555859770127796  1.0000
  As  As9       1.0  0.19131243499999995  0.6917321799999999  0.5204400163155147  1.0000
  As  As10      1.0  0.935257825  0.34059719000000005  0.5117413971960865  1.0000
  As  As11      1.0  0.706282635  0.83759913  0.5111288356944226  1.0000
  As  As12      1.0  0.423609175  0.16720597  0.5184083937213106  1.0000
  Os  Os5       1.0  0.563258985  0.51662054  0.5159204037535878  1.0000
  Os  Os6       1.0  0.07909259499999997  0.9918528099999998  0.5138102663074744  1.0000
