data_image0
_chemical_formula_structural       COSb4Os2Sb4Os2Sb4Os2Sb4Os2
_chemical_formula_sum              "C1 O1 Sb16 Os8"
_cell_length_a       6.53824312
_cell_length_b       6.04228519
_cell_length_c       36.03120775
_cell_angle_alpha    90.0
_cell_angle_beta     90.0
_cell_angle_gamma    90.0

_space_group_name_H-M_alt    "P 1"
_space_group_IT_number       1

loop_
  _space_group_symop_operation_xyz
  'x, y, z'

loop_
  _atom_site_type_symbol
  _atom_site_label
  _atom_site_symmetry_multiplicity
  _atom_site_fract_x
  _atom_site_fract_y
  _atom_site_fract_z
  _atom_site_occupancy
  C   C1        1.0  0.614012135  0.36905783999999997  0.6908160094231954  1.0000
  O   O1        1.0  0.614012255  0.28066327999999996  0.7190612305885336  1.0000
  Sb  Sb1       1.0  0.36401222499999997  0.40906662999999993  0.4963325822959726  1.0000
  Sb  Sb2       1.0  0.342036655  0.8133686999999998  0.6302008022252579  1.0000
  Sb  Sb3       1.0  0.11401226500000002  0.26952452999999993  0.5896884971595215  1.0000
  Sb  Sb4       1.0  0.11401222500000002  0.90906663  0.5369250974080855  1.0000
  Os  Os1       1.0  0.359251635  0.60027479  0.5666572306919544  1.0000
  Os  Os2       1.0  0.11401222500000002  0.09093336999999997  0.46949082953495774  1.0000
  Sb  Sb5       1.0  0.36401222499999997  0.40906662999999993  0.3077805221724814  1.0000
  Sb  Sb6       1.0  0.36401222499999997  0.7728001099999999  0.4426490673463398  1.0000
  Sb  Sb7       1.0  0.11401222500000002  0.27280011  0.4020565522342269  1.0000
  Sb  Sb8       1.0  0.11401222500000002  0.90906663  0.3483730372845943  1.0000
  Os  Os3       1.0  0.36401222499999997  0.5909333699999999  0.3752147994732122  1.0000
  Os  Os4       1.0  0.11401222500000002  0.09093336999999997  0.28093876941146667  1.0000
  Sb  Sb9       1.0  0.8640122249999999  0.40906662999999993  0.4963325822959726  1.0000
  Sb  Sb10      1.0  0.8859877749999998  0.81336859  0.6302008682184789  1.0000
  Sb  Sb11      1.0  0.614012215  0.27259227999999996  0.5907942984265278  1.0000
  Sb  Sb12      1.0  0.614012225  0.90906663  0.5369250974080855  1.0000
  Os  Os5       1.0  0.868772775  0.6002747399999999  0.5666572306919544  1.0000
  Os  Os6       1.0  0.614012225  0.09093336999999997  0.46949082953495774  1.0000
  Sb  Sb13      1.0  0.8640122249999999  0.40906662999999993  0.3077805221724814  1.0000
  Sb  Sb14      1.0  0.8640122249999999  0.7728001099999999  0.4426490673463398  1.0000
  Sb  Sb15      1.0  0.614012225  0.27280011  0.4020565522342269  1.0000
  Sb  Sb16      1.0  0.614012225  0.90906663  0.3483730372845943  1.0000
  Os  Os7       1.0  0.8640122249999999  0.5909333699999999  0.3752147994732122  1.0000
  Os  Os8       1.0  0.614012225  0.09093336999999997  0.28093876941146667  1.0000
