data_image0
_chemical_formula_structural       COCo8As24
_chemical_formula_sum              "C1 O1 Co8 As24"
_cell_length_a       8.32561357
_cell_length_b       8.32561357
_cell_length_c       103.3024543
_cell_angle_alpha    90.0
_cell_angle_beta     90.0
_cell_angle_gamma    90.0

_space_group_name_H-M_alt    "P 1"
_space_group_IT_number       1

loop_
  _space_group_symop_operation_xyz
  'x, y, z'

loop_
  _atom_site_type_symbol
  _atom_site_label
  _atom_site_symmetry_multiplicity
  _atom_site_fract_x
  _atom_site_fract_y
  _atom_site_fract_z
  _atom_site_occupancy
  C   C1        1.0  0.07827940000000007  0.28396541500000005  0.5343845167923882  1.0000
  O   O1        1.0  0.07226717000000006  0.3460725250000001  0.5451232070523268  1.0000
  Co  Co1       1.0  0.32819332000000007  0.25982500500000005  0.48781894959136374  1.0000
  Co  Co2       1.0  0.8611847600000001  0.24400559500000005  0.5274086630063562  1.0000
  Co  Co3       1.0  0.3381402500000001  0.7662132850000001  0.5263075062816981  1.0000
  Co  Co4       1.0  0.2949364200000001  0.24374082500000002  0.5273984242762532  1.0000
  Co  Co5       1.0  0.8189985500000001  0.7674078049999999  0.5263271165446758  1.0000
  Co  Co6       1.0  0.32819332000000007  0.7598250049999999  0.48781894959136374  1.0000
  Co  Co7       1.0  0.8281933200000001  0.25982500500000005  0.48781894959136374  1.0000
  Co  Co8       1.0  0.8281933200000001  0.7598250049999999  0.48781894959136374  1.0000
  As  As1       1.0  0.42613393000000005  0.509825005  0.45487679294767336  1.0000
  As  As2       1.0  0.92097959  0.35458559500000003  0.5080604934660794  1.0000
  As  As3       1.0  0.23507587000000008  0.35484866500000006  0.5080779534667843  1.0000
  As  As4       1.0  0.5774537200000001  0.18307186500000003  0.5214324522887429  1.0000
  As  As5       1.0  0.23025271000000005  0.009825005000000019  0.49517406193037167  1.0000
  As  As6       1.0  0.07819332000000004  0.35108567500000004  0.45541515801371923  1.0000
  As  As7       1.0  0.73693265  0.16188439500000001  0.46767031510001467  1.0000
  As  As8       1.0  0.42613393000000005  0.509825005  0.48046383725235586  1.0000
  As  As9       1.0  0.22994330000000007  0.9996010550000001  0.5202182439937899  1.0000
  As  As10      1.0  0.41945399000000005  0.16188439500000001  0.46767031510001467  1.0000
  As  As11      1.0  0.07819332000000004  0.668564335  0.45541515801371923  1.0000
  As  As12      1.0  0.5784985699999999  0.869076355  0.5209000995752293  1.0000
  As  As13      1.0  0.9261339300000002  0.009825005000000019  0.49517406193037167  1.0000
  As  As14      1.0  0.41945399000000005  0.8577656149999999  0.46767031510001467  1.0000
  As  As15      1.0  0.73693265  0.8577656149999999  0.46767031510001467  1.0000
  As  As16      1.0  0.07819332000000004  0.668564335  0.47992547218631004  1.0000
  As  As17      1.0  0.73025271  0.509825005  0.45487679294767336  1.0000
  As  As18      1.0  0.5781933200000001  0.851085675  0.4957124269964175  1.0000
  As  As19      1.0  0.2382395200000001  0.659096775  0.5080876989583151  1.0000
  As  As20      1.0  0.92773283  0.0003989449999999284  0.5201817733534698  1.0000
  As  As21      1.0  0.73025271  0.509825005  0.48046383725235586  1.0000
  As  As22      1.0  0.9167992400000001  0.659394145  0.5080842462883087  1.0000
  As  As23      1.0  0.5781933200000001  0.16856433500000004  0.4957124269964175  1.0000
  As  As24      1.0  0.07819332000000004  0.35108567500000004  0.47992547218631004  1.0000
