data_image0
_chemical_formula_structural       COSn12
_chemical_formula_sum              "C1 O1 Sn12"
_cell_length_a       6.72558736
_cell_length_b       8.237128621256316
_cell_length_c       106.21839634
_cell_angle_alpha    94.34775315657971
_cell_angle_beta     90.0
_cell_angle_gamma    114.09484256766366

_space_group_name_H-M_alt    "P 1"
_space_group_IT_number       1

loop_
  _space_group_symop_operation_xyz
  'x, y, z'

loop_
  _atom_site_type_symbol
  _atom_site_label
  _atom_site_symmetry_multiplicity
  _atom_site_fract_x
  _atom_site_fract_y
  _atom_site_fract_z
  _atom_site_occupancy
  C   C1        1.0  0.4163754999999999  0.631308215  0.54249877665254  1.0000
  O   O1        1.0  0.49673261999999985  0.6243009549999999  0.5518727724349154  1.0000
  Sn  Sn1       1.0  0.4895833299999998  0.39525084499999996  0.44812722756508483  1.0000
  Sn  Sn2       1.0  0.33090588  0.06308248500000002  0.5057031366744127  1.0000
  Sn  Sn3       1.0  0.9062499999999999  0.228584175  0.4765422637383942  1.0000
  Sn  Sn4       1.0  0.09374999999999994  0.10358417500000003  0.455230985755961  1.0000
  Sn  Sn5       1.0  0.89761193  0.807841935  0.5134681207397008  1.0000
  Sn  Sn6       1.0  0.5104166599999999  0.9369175149999999  0.48364602192927036  1.0000
  Sn  Sn7       1.0  0.9038960299999999  0.44090456499999997  0.513793460414283  1.0000
  Sn  Sn8       1.0  0.6145833299999999  0.645250845  0.4907497835299511  1.0000
  Sn  Sn9       1.0  0.19791665999999994  0.811917515  0.46233474394683727  1.0000
  Sn  Sn10      1.0  0.8020833299999999  0.520250845  0.4694385055475179  1.0000
  Sn  Sn11      1.0  0.67910879  0.090609175  0.523902957841997  1.0000
  Sn  Sn12      1.0  0.2205087199999999  0.35695790499999996  0.49810947482527623  1.0000
