data_image0
_chemical_formula_structural       CONi12Sn16
_chemical_formula_sum              "C1 O1 Ni12 Sn16"
_cell_length_a       6.534834548097876
_cell_length_b       11.416915600452826
_cell_length_c       98.51105351
_cell_angle_alpha    85.80251723676315
_cell_angle_beta     87.43981842675007
_cell_angle_gamma    83.26694029321008

_space_group_name_H-M_alt    "P 1"
_space_group_IT_number       1

loop_
  _space_group_symop_operation_xyz
  'x, y, z'

loop_
  _atom_site_type_symbol
  _atom_site_label
  _atom_site_symmetry_multiplicity
  _atom_site_fract_x
  _atom_site_fract_y
  _atom_site_fract_z
  _atom_site_occupancy
  C   C1        1.0  0.20921337000000007  0.9579548749999998  0.5325999354985284  1.0000
  O   O1        1.0  0.17415848000000003  0.9807548749999999  0.5439196751447076  1.0000
  Ni  Ni1       1.0  0.1961579700000001  0.9156112949999999  0.46592033031175467  1.0000
  Ni  Ni2       1.0  0.07115797000000007  0.47811129499999994  0.48400907041637775  1.0000
  Ni  Ni3       1.0  0.7354579600000002  0.598346965  0.47011278510068816  1.0000
  Ni  Ni4       1.0  0.6104579600000001  0.16084696499999998  0.48820152520531107  1.0000
  Ni  Ni5       1.0  0.53185797  0.7953756249999999  0.4798166156274443  1.0000
  Ni  Ni6       1.0  0.65685797  0.23287562499999998  0.4617278755228213  1.0000
  Ni  Ni7       1.0  0.9372859200000001  0.04378019499999996  0.5012818896801471  1.0000
  Ni  Ni8       1.0  0.8141962199999999  0.6117725749999999  0.5173592689704775  1.0000
  Ni  Ni9       1.0  0.4705334  0.7220933949999999  0.5060519049167282  1.0000
  Ni  Ni10      1.0  0.3500188900000001  0.30765853499999996  0.5209422750336076  1.0000
  Ni  Ni11      1.0  0.24783748000000005  0.9256756449999998  0.5153471701355885  1.0000
  Ni  Ni12      1.0  0.40543292000000003  0.36141692499999994  0.49690770238422977  1.0000
  Sn  Sn1       1.0  0.40761350000000013  0.7253335049999998  0.45608032485529254  1.0000
  Sn  Sn2       1.0  0.2826135  0.287833505  0.47416906495991556  1.0000
  Sn  Sn3       1.0  0.10970243000000002  0.543389085  0.4576715985577922  1.0000
  Sn  Sn4       1.0  0.98470243  0.10588908499999997  0.4757603386624153  1.0000
  Sn  Sn5       1.0  0.87198566  0.8119774649999999  0.4631007877431748  1.0000
  Sn  Sn6       1.0  0.7469856600000001  0.37447746499999995  0.4811895278477979  1.0000
  Sn  Sn7       1.0  0.39533028000000003  0.5817451249999999  0.486828615879156  1.0000
  Sn  Sn8       1.0  0.52033028  0.019245124999999964  0.46873987577453297  1.0000
  Sn  Sn9       1.0  0.15905246000000006  0.8586867349999998  0.4913003839688922  1.0000
  Sn  Sn10      1.0  0.015297570000000024  0.417144445  0.5107671300830822  1.0000
  Sn  Sn11      1.0  0.8545838800000002  0.672664855  0.4925257875785397  1.0000
  Sn  Sn12      1.0  0.7156294200000002  0.21823902499999998  0.5127714811488095  1.0000
  Sn  Sn13      1.0  0.6155341400000001  0.9344795949999999  0.5018476852112308  1.0000
  Sn  Sn14      1.0  0.49762581000000006  0.5048316649999999  0.5186614296163354  1.0000
  Sn  Sn15      1.0  0.12110226000000006  0.7192421149999998  0.5201082365106652  1.0000
  Sn  Sn16      1.0  0.26129684000000003  0.14689921499999997  0.5050103465789088  1.0000
