data_image0
_chemical_formula_structural       COCo4Sn8
_chemical_formula_sum              "C1 O1 Co4 Sn8"
_cell_length_a       5.31887881
_cell_length_b       5.318878808251383
_cell_length_c       106.39950816000001
_cell_angle_alpha    90.0
_cell_angle_beta     90.0
_cell_angle_gamma    117.6149606263406

_space_group_name_H-M_alt    "P 1"
_space_group_IT_number       1

loop_
  _space_group_symop_operation_xyz
  'x, y, z'

loop_
  _atom_site_type_symbol
  _atom_site_label
  _atom_site_symmetry_multiplicity
  _atom_site_fract_x
  _atom_site_fract_y
  _atom_site_fract_z
  _atom_site_occupancy
  C   C1        1.0  0.25490903499999995  0.24496916500000002  0.5469719128307949  1.0000
  O   O1        1.0  0.254942325  0.24497019500000003  0.5577820112064703  1.0000
  Co  Co1       1.0  0.7549133949999999  0.7449940050000001  0.4422179887935295  1.0000
  Co  Co2       1.0  0.254913395  0.24499400500000001  0.48498076654206906  1.0000
  Co  Co3       1.0  0.254913395  0.24499400500000001  0.4422179887935295  1.0000
  Co  Co4       1.0  0.7549133949999999  0.7449940050000001  0.48498076654206906  1.0000
  Sn  Sn1       1.0  0.920530795  0.07937660500000002  0.4635993776677993  1.0000
  Sn  Sn2       1.0  0.43046640499999994  0.569490575  0.5069510193920694  1.0000
  Sn  Sn3       1.0  0.25491339500000004  0.7449940050000001  0.44943485753281737  1.0000
  Sn  Sn4       1.0  0.754913395  0.24499400500000001  0.49219763528135685  1.0000
  Sn  Sn5       1.0  0.589295995  0.41061140500000004  0.4635993776677993  1.0000
  Sn  Sn6       1.0  0.07946920499999995  0.9206233949999999  0.506948504940738  1.0000
  Sn  Sn7       1.0  0.754828315  0.24491723500000004  0.5208833376438768  1.0000
  Sn  Sn8       1.0  0.25491339500000004  0.7449940050000001  0.4777638978027812  1.0000
