data_image0
_chemical_formula_structural       COAg24
_chemical_formula_sum              "C1 O1 Ag24"
_cell_length_a       8.4208205
_cell_length_b       5.1566783573946875
_cell_length_c       103.94541266
_cell_angle_alpha    92.90252588542953
_cell_angle_beta     90.0
_cell_angle_gamma    114.09484250490506

_space_group_name_H-M_alt    "P 1"
_space_group_IT_number       1

loop_
  _space_group_symop_operation_xyz
  'x, y, z'

loop_
  _atom_site_type_symbol
  _atom_site_label
  _atom_site_symmetry_multiplicity
  _atom_site_fract_x
  _atom_site_fract_y
  _atom_site_fract_z
  _atom_site_occupancy
  C   C1        1.0  0.13348279999999998  0.8631465899999998  0.5556471476869101  1.0000
  O   O1        1.0  0.10172952000000005  0.99406482  0.5638665977434405  1.0000
  Ag  Ag1       1.0  0.44710786  0.83926852  0.46334753842906085  1.0000
  Ag  Ag2       1.0  0.14155230000000005  0.6170462899999999  0.44520478098072663  1.0000
  Ag  Ag3       1.0  0.25266342  0.06149073999999994  0.48149029261169896  1.0000
  Ag  Ag4       1.0  0.29433008000000005  0.22815739999999993  0.4542761597048937  1.0000
  Ag  Ag5       1.0  0.4887745200000001  0.00593518000000004  0.4361334022565595  1.0000
  Ag  Ag6       1.0  0.09988564000000003  0.4503796299999999  0.4724189138875319  1.0000
  Ag  Ag7       1.0  0.35732814000000007  0.50835523  0.5186625354334269  1.0000
  Ag  Ag8       1.0  0.05821897000000005  0.28371295999999996  0.49963305006003317  1.0000
  Ag  Ag9       1.0  0.16488436000000006  0.7515827799999999  0.5356151099456075  1.0000
  Ag  Ag10      1.0  0.21243661000000003  0.90009561  0.5090250678880646  1.0000
  Ag  Ag11      1.0  0.4054411900000001  0.6726018500000001  0.4905616713358661  1.0000
  Ag  Ag12      1.0  0.011225480000000048  0.12824670999999996  0.5266186593522871  1.0000
  Ag  Ag13      1.0  0.94710786  0.83926852  0.46334753842906085  1.0000
  Ag  Ag14      1.0  0.6415523000000001  0.6170462899999999  0.44520478098072663  1.0000
  Ag  Ag15      1.0  0.7526634200000001  0.06149073999999994  0.48149029261169896  1.0000
  Ag  Ag16      1.0  0.7943300799999999  0.22815739999999993  0.4542761597048937  1.0000
  Ag  Ag17      1.0  0.9887745199999999  0.00593518000000004  0.4361334022565595  1.0000
  Ag  Ag18      1.0  0.59988564  0.4503796299999999  0.4724189138875319  1.0000
  Ag  Ag19      1.0  0.8631577  0.5095600899999999  0.5180322005732607  1.0000
  Ag  Ag20      1.0  0.55821897  0.28371295999999996  0.49963305006003317  1.0000
  Ag  Ag21      1.0  0.67028271  0.7390551799999999  0.5344900547863664  1.0000
  Ag  Ag22      1.0  0.7080524900000001  0.89959314  0.5084878510859077  1.0000
  Ag  Ag23      1.0  0.9054411900000001  0.6726018500000001  0.4905616713358661  1.0000
  Ag  Ag24      1.0  0.51693453  0.12708784999999995  0.5271042716249966  1.0000
