data_image0
_chemical_formula_structural       COSb16Ru8
_chemical_formula_sum              "C1 O1 Sb16 Ru8"
_cell_length_a       9.380650890822912
_cell_length_b       6.86558358585422
_cell_length_c       108.60094192
_cell_angle_alpha    113.23096959936102
_cell_angle_beta     106.02350596995004
_cell_angle_gamma    70.96694577640886

_space_group_name_H-M_alt    "P 1"
_space_group_IT_number       1

loop_
  _space_group_symop_operation_xyz
  'x, y, z'

loop_
  _atom_site_type_symbol
  _atom_site_label
  _atom_site_symmetry_multiplicity
  _atom_site_fract_x
  _atom_site_fract_y
  _atom_site_fract_z
  _atom_site_occupancy
  C   C1        1.0  0.4266855399999999  0.65405285  0.5379989565943538  1.0000
  O   O1        1.0  0.50076696  0.6798765799999998  0.5489273358466716  1.0000
  Sb  Sb1       1.0  0.95435222  0.061076339999999965  0.500058412741943  1.0000
  Sb  Sb2       1.0  0.70435222  0.8110763399999998  0.47784351453436397  1.0000
  Sb  Sb3       1.0  0.20942049999999993  0.3104856  0.5222609061503629  1.0000
  Sb  Sb4       1.0  0.45435222  0.56107634  0.45562861632678486  1.0000
  Sb  Sb5       1.0  0.9382147  0.39462275999999996  0.47328756236090747  1.0000
  Sb  Sb6       1.0  0.6882147000000001  0.14462276000000004  0.45107266415332836  1.0000
  Sb  Sb7       1.0  0.18821469999999993  0.6446227599999999  0.49550246056848646  1.0000
  Sb  Sb8       1.0  0.4591918099999999  0.8979121999999998  0.5192819842690868  1.0000
  Sb  Sb9       1.0  0.59691914  0.4185094199999999  0.4873899742796706  1.0000
  Sb  Sb10      1.0  0.34691914  0.16850941999999997  0.46517507607209163  1.0000
  Sb  Sb11      1.0  0.85396639  0.66558675  0.5108628435254137  1.0000
  Sb  Sb12      1.0  0.09577837999999994  0.9628103199999999  0.5318890776228526  1.0000
  Sb  Sb13      1.0  0.04564777999999995  0.7871896799999999  0.4637411026156006  1.0000
  Sb  Sb14      1.0  0.89534375  0.46643499  0.5320816825675042  1.0000
  Sb  Sb15      1.0  0.2956477799999999  0.03718968  0.48595600082317963  1.0000
  Sb  Sb16      1.0  0.55004652  0.29477998000000005  0.508847148967267  1.0000
  Ru  Ru1       1.0  0.8201619400000001  0.08817043999999997  0.5181972752194071  1.0000
  Ru  Ru2       1.0  0.5712834600000001  0.85284955  0.4977804366552147  1.0000
  Ru  Ru3       1.0  0.07128345999999995  0.35284954999999996  0.4533506402400566  1.0000
  Ru  Ru4       1.0  0.32128346  0.6028495499999998  0.4755655384476357  1.0000
  Ru  Ru5       1.0  0.8212834600000001  0.10284954999999998  0.47556553844763566  1.0000
  Ru  Ru6       1.0  0.5712834600000001  0.85284955  0.45335064024005667  1.0000
  Ru  Ru7       1.0  0.07128345999999995  0.35284954999999996  0.4977804366552146  1.0000
  Ru  Ru8       1.0  0.3091662499999999  0.61134  0.5205340372583682  1.0000
