data_image0
_chemical_formula_structural       COAl4Sb4Al4Sb4Al4Sb4Al4Sb4
_chemical_formula_sum              "C1 O1 Al16 Sb16"
_cell_length_a       8.88480422
_cell_length_b       8.88480422
_cell_length_c       107.69503189
_cell_angle_alpha    90.0
_cell_angle_beta     90.0
_cell_angle_gamma    90.0

_space_group_name_H-M_alt    "P 1"
_space_group_IT_number       1

loop_
  _space_group_symop_operation_xyz
  'x, y, z'

loop_
  _atom_site_type_symbol
  _atom_site_label
  _atom_site_symmetry_multiplicity
  _atom_site_fract_x
  _atom_site_fract_y
  _atom_site_fract_z
  _atom_site_occupancy
  C   C1        1.0  0.125000365  0.5794779699999999  0.5568663733044891  1.0000
  O   O1        1.0  0.124999495  0.5794782100000001  0.5675380456075346  1.0000
  Al  Al1       1.0  0.12500050499999998  0.07947789000000001  0.49079802573619047  1.0000
  Al  Al2       1.0  0.394279675  0.33117338  0.5205289053477125  1.0000
  Al  Al3       1.0  0.12500050499999998  0.07947789000000001  0.4324619543924654  1.0000
  Al  Al4       1.0  0.375000505  0.32947789  0.461629990064328  1.0000
  Sb  Sb1       1.0  0.125000275  0.23843369  0.5320176175313013  1.0000
  Sb  Sb2       1.0  0.375000505  0.07947789000000001  0.505382045322204  1.0000
  Sb  Sb3       1.0  0.12500050499999998  0.32947789  0.47621400965034144  1.0000
  Sb  Sb4       1.0  0.375000505  0.07947789000000001  0.44704597047831446  1.0000
  Al  Al5       1.0  0.12500050499999998  0.57947789  0.49079802573619047  1.0000
  Al  Al6       1.0  0.394279465  0.82778241  0.5205289053477125  1.0000
  Al  Al7       1.0  0.12500050499999998  0.57947789  0.4324619543924654  1.0000
  Al  Al8       1.0  0.375000505  0.82947789  0.461629990064328  1.0000
  Sb  Sb5       1.0  0.125000555  0.92052211  0.5320176280317945  1.0000
  Sb  Sb6       1.0  0.375000505  0.57947789  0.505382045322204  1.0000
  Sb  Sb7       1.0  0.12500050499999998  0.82947789  0.47621400965034144  1.0000
  Sb  Sb8       1.0  0.375000505  0.57947789  0.44704597047831446  1.0000
  Al  Al9       1.0  0.625000505  0.07947789000000001  0.49079802573619047  1.0000
  Al  Al10      1.0  0.8557216149999999  0.33117328  0.5205288983473836  1.0000
  Al  Al11      1.0  0.625000505  0.07947789000000001  0.4324619543924654  1.0000
  Al  Al12      1.0  0.875000505  0.32947789  0.461629990064328  1.0000
  Sb  Sb9       1.0  0.625000345  0.40957213  0.5362130826137607  1.0000
  Sb  Sb10      1.0  0.875000505  0.07947789000000001  0.505382045322204  1.0000
  Sb  Sb11      1.0  0.625000505  0.32947789  0.47621400965034144  1.0000
  Sb  Sb12      1.0  0.875000505  0.07947789000000001  0.44704597047831446  1.0000
  Al  Al13      1.0  0.625000505  0.57947789  0.49079802573619047  1.0000
  Al  Al14      1.0  0.855721405  0.8277824  0.5205289053477125  1.0000
  Al  Al15      1.0  0.625000505  0.57947789  0.4324619543924654  1.0000
  Al  Al16      1.0  0.875000505  0.82947789  0.461629990064328  1.0000
  Sb  Sb13      1.0  0.6250006850000001  0.7493835999999999  0.5362130826137607  1.0000
  Sb  Sb14      1.0  0.875000505  0.57947789  0.505382045322204  1.0000
  Sb  Sb15      1.0  0.625000505  0.82947789  0.47621400965034144  1.0000
  Sb  Sb16      1.0  0.875000505  0.57947789  0.44704597047831446  1.0000
