data_image0
_chemical_formula_structural       COCa3Ag3As3Ca3Ag3As3
_chemical_formula_sum              "C1 O1 Ca6 Ag6 As6"
_cell_length_a       7.35130021
_cell_length_b       7.351300210156641
_cell_length_c       100.54189152000001
_cell_angle_alpha    90.0
_cell_angle_beta     90.0
_cell_angle_gamma    120.00000004429361

_space_group_name_H-M_alt    "P 1"
_space_group_IT_number       1

loop_
  _space_group_symop_operation_xyz
  'x, y, z'

loop_
  _atom_site_type_symbol
  _atom_site_label
  _atom_site_symmetry_multiplicity
  _atom_site_fract_x
  _atom_site_fract_y
  _atom_site_fract_z
  _atom_site_occupancy
  C   C1        1.0  0.24576527499999998  0.24576572000000005  0.5351722663753907  1.0000
  O   O1        1.0  0.269299505  0.26930010000000004  0.5466236836424587  1.0000
  Ca  Ca1       1.0  0.12643503500000003  0.71388076  0.4533763163575414  1.0000
  Ca  Ca2       1.0  0.538989315  0.5389893200000001  0.4533763163575414  1.0000
  Ca  Ca3       1.0  0.7138807549999999  0.12643504000000005  0.4533763163575414  1.0000
  Ag  Ag1       1.0  0.126435035  0.3771017400000001  0.475074372793398  1.0000
  Ag  Ag2       1.0  0.8757683350000001  0.8757683400000001  0.475074372793398  1.0000
  Ag  Ag3       1.0  0.37710173500000005  0.12643504000000005  0.475074372793398  1.0000
  As  As1       1.0  0.126435035  0.12643504000000005  0.4533763163575414  1.0000
  As  As2       1.0  0.459768365  0.7931017100000002  0.475074372793398  1.0000
  As  As3       1.0  0.7931017050000002  0.4597683700000001  0.475074372793398  1.0000
  Ca  Ca4       1.0  0.12849146500000005  0.7190989200000001  0.49735417539803006  1.0000
  Ca  Ca5       1.0  0.5334863550000001  0.5334865200000002  0.49718025635903457  1.0000
  Ca  Ca6       1.0  0.7190987650000001  0.12849116000000005  0.49735417539803006  1.0000
  Ag  Ag4       1.0  0.129147415  0.39737454000000005  0.5196289049969659  1.0000
  Ag  Ag5       1.0  0.852317975  0.8523169500000001  0.5174952322161672  1.0000
  Ag  Ag6       1.0  0.397375545  0.12915043000000007  0.51962889892151  1.0000
  As  As4       1.0  0.124231665  0.12423166000000006  0.4962202705308266  1.0000
  As  As5       1.0  0.459565875  0.7971739900000002  0.5175727762978475  1.0000
  As  As6       1.0  0.7971738549999999  0.4595659200000001  0.5175727732601194  1.0000
