data_image0
_chemical_formula_structural       COGa3Ag6Ga3Ag6Ga3Ag6Ga3Ag6
_chemical_formula_sum              "C1 O1 Ga12 Ag24"
_cell_length_a       7.962718438075003
_cell_length_b       5.91765732
_cell_length_c       109.8135922
_cell_angle_alpha    90.0
_cell_angle_beta     120.00000000799707
_cell_angle_gamma    90.0

_space_group_name_H-M_alt    "P 1"
_space_group_IT_number       1

loop_
  _space_group_symop_operation_xyz
  'x, y, z'

loop_
  _atom_site_type_symbol
  _atom_site_label
  _atom_site_symmetry_multiplicity
  _atom_site_fract_x
  _atom_site_fract_y
  _atom_site_fract_z
  _atom_site_occupancy
  C   C1        1.0  0.82354229  0.38389999999999996  0.5640899155257699  1.0000
  O   O1        1.0  0.92594885  0.38371226999999997  0.5764949696649859  1.0000
  Ga  Ga1       1.0  0.33560162000000004  0.13373921999999996  0.42551472978155935  1.0000
  Ga  Ga2       1.0  0.6689349600000001  0.13373921999999996  0.4738555509774982  1.0000
  Ga  Ga3       1.0  0.0022682900000000243  0.38373922  0.4496851403795288  1.0000
  Ag  Ag1       1.0  0.0022682900000000243  0.13373921999999996  0.4718396191908918  1.0000
  Ag  Ag2       1.0  0.6967366  0.13373921999999996  0.4275306615681658  1.0000
  Ag  Ag3       1.0  0.30779998000000003  0.13373921999999996  0.4496851403795288  1.0000
  Ag  Ag4       1.0  0.6412192200000001  0.38373922  0.4496851403795288  1.0000
  Ag  Ag5       1.0  0.36331736000000003  0.38373922  0.4758652504240437  1.0000
  Ag  Ag6       1.0  0.0022682900000000243  0.38373922  0.4235050303350139  1.0000
  Ga  Ga4       1.0  0.33560162000000004  0.13373921999999996  0.4980259579499063  1.0000
  Ga  Ga5       1.0  0.6729496800000001  0.11553508999999997  0.5480253320933012  1.0000
  Ga  Ga6       1.0  0.99773171  0.38422016999999997  0.5220953350281073  1.0000
  Ag  Ag7       1.0  0.99549776  0.13194598999999996  0.5437462704921394  1.0000
  Ag  Ag8       1.0  0.6967366  0.13373921999999996  0.5000418897365128  1.0000
  Ag  Ag9       1.0  0.3103838300000001  0.13347164999999997  0.5218025781955005  1.0000
  Ag  Ag10      1.0  0.63931767  0.38374039  0.5233960631923597  1.0000
  Ag  Ag11      1.0  0.34833076  0.38376012  0.5465242445289356  1.0000
  Ag  Ag12      1.0  0.0022682900000000243  0.38373922  0.49601625850336084  1.0000
  Ga  Ga7       1.0  0.33560162000000004  0.6337392199999999  0.42551472978155935  1.0000
  Ga  Ga8       1.0  0.6689349600000001  0.6337392199999999  0.4738555509774982  1.0000
  Ga  Ga9       1.0  0.0022682900000000243  0.8837392199999999  0.4496851403795288  1.0000
  Ag  Ag13      1.0  0.0022682900000000243  0.6337392199999999  0.4718396191908918  1.0000
  Ag  Ag14      1.0  0.6967366  0.6337392199999999  0.4275306615681658  1.0000
  Ag  Ag15      1.0  0.30779998000000003  0.6337392199999999  0.4496851403795288  1.0000
  Ag  Ag16      1.0  0.6412192200000001  0.8837392199999999  0.4496851403795288  1.0000
  Ag  Ag17      1.0  0.36331736000000003  0.8837392199999999  0.4758652504240437  1.0000
  Ag  Ag18      1.0  0.0022682900000000243  0.8837392199999999  0.4235050303350139  1.0000
  Ga  Ga10      1.0  0.33560162000000004  0.6337392199999999  0.4980259579499063  1.0000
  Ga  Ga11      1.0  0.6731739900000001  0.65245972  0.5480320140029769  1.0000
  Ga  Ga12      1.0  0.006229160000000024  0.88446491  0.5223070170564993  1.0000
  Ag  Ag19      1.0  0.9955898700000002  0.6359252599999999  0.5437223309101596  1.0000
  Ag  Ag20      1.0  0.6967366  0.6337392199999999  0.5000418897365128  1.0000
  Ag  Ag21      1.0  0.31024681  0.6342320899999999  0.521802494807588  1.0000
  Ag  Ag22      1.0  0.6351253899999999  0.8838487799999999  0.5214021059334495  1.0000
  Ag  Ag23      1.0  0.3551167700000001  0.88385396  0.5473182823585544  1.0000
  Ag  Ag24      1.0  0.0022682900000000243  0.8837392199999999  0.49601625850336084  1.0000
