data_image0
_chemical_formula_structural       COAu4Ca2In2
_chemical_formula_sum              "C1 O1 Au4 Ca2 In2"
_cell_length_a       5.06440434
_cell_length_b       5.06440434
_cell_length_c       98.6485972
_cell_angle_alpha    90.0
_cell_angle_beta     90.0
_cell_angle_gamma    90.0

_space_group_name_H-M_alt    "P 1"
_space_group_IT_number       1

loop_
  _space_group_symop_operation_xyz
  'x, y, z'

loop_
  _atom_site_type_symbol
  _atom_site_label
  _atom_site_symmetry_multiplicity
  _atom_site_fract_x
  _atom_site_fract_y
  _atom_site_fract_z
  _atom_site_occupancy
  C   C1        1.0  0.749915345  0.00022405499999997823  0.5316282266271168  1.0000
  O   O1        1.0  0.7500105249999999  0.999976755  0.5433840763039709  1.0000
  Au  Au1       1.0  0.249988235  0.500031275  0.4747665854978373  1.0000
  Au  Au2       1.0  0.749988235  3.1274999999978195e-05  0.4747665854978373  1.0000
  Au  Au3       1.0  0.750011765  0.9999160150000002  0.5105360482449665  1.0000
  Au  Au4       1.0  0.249990005  0.500040345  0.5091694457124788  1.0000
  Ca  Ca1       1.0  0.749988235  0.500031275  0.45661592369602916  1.0000
  Ca  Ca2       1.0  0.24999027499999998  2.3244999999978193e-05  0.49294951482017024  1.0000
  In  In1       1.0  0.249988235  3.1274999999978195e-05  0.45661592369602916  1.0000
  In  In2       1.0  0.749995225  0.500036335  0.4935834172452543  1.0000
