data_image0
_chemical_formula_structural       COIn5Ag15
_chemical_formula_sum              "C1 O1 In5 Ag15"
_cell_length_a       6.07915207
_cell_length_b       9.611983381006567
_cell_length_c       99.78164126
_cell_angle_alpha    75.03678254968848
_cell_angle_beta     90.0
_cell_angle_gamma    71.56505118692192

_space_group_name_H-M_alt    "P 1"
_space_group_IT_number       1

loop_
  _space_group_symop_operation_xyz
  'x, y, z'

loop_
  _atom_site_type_symbol
  _atom_site_label
  _atom_site_symmetry_multiplicity
  _atom_site_fract_x
  _atom_site_fract_y
  _atom_site_fract_z
  _atom_site_occupancy
  C   C1        1.0  0.5301604499999998  0.883427715  0.5386633171217728  1.0000
  O   O1        1.0  0.47356688  0.8269569749999999  0.5491691719351801  1.0000
  In  In1       1.0  0.8200075999999998  0.443753885  0.4582925316617766  1.0000
  In  In2       1.0  0.6200076  0.843753885  0.4732159388556903  1.0000
  In  In3       1.0  0.9799924  0.073452235  0.5170266301250842  1.0000
  In  In4       1.0  0.42023415  0.24344081499999998  0.4877366379064762  1.0000
  In  In5       1.0  0.20368585  0.650614275  0.5045569653581711  1.0000
  Ag  Ag1       1.0  0.02000759999999992  0.543753885  0.4806776424526471  1.0000
  Ag  Ag2       1.0  0.81532713  0.940256215  0.4964836259173718  1.0000
  Ag  Ag3       1.0  0.22000759999999994  0.143753885  0.4657542352587335  1.0000
  Ag  Ag4       1.0  0.5903967999999999  0.36170200499999994  0.5106507148346979  1.0000
  Ag  Ag5       1.0  0.42000759999999987  0.743753885  0.4508308280648197  1.0000
  Ag  Ag6       1.0  0.9200870800000001  0.244871405  0.4877991222123971  1.0000
  Ag  Ag7       1.0  0.7068098199999999  0.6475497749999999  0.5029601100488379  1.0000
  Ag  Ag8       1.0  0.12000759999999992  0.843753885  0.4732159388556903  1.0000
  Ag  Ag9       1.0  0.49133831999999994  0.05900288500000001  0.5177990716508041  1.0000
  Ag  Ag10      1.0  0.3200076  0.443753885  0.4582925316617766  1.0000
  Ag  Ag11      1.0  0.5200075999999999  0.543753885  0.4806776424526471  1.0000
  Ag  Ag12      1.0  0.3103602799999999  0.9409971149999999  0.4962930957930456  1.0000
  Ag  Ag13      1.0  0.7200075999999997  0.143753885  0.4657542352587335  1.0000
  Ag  Ag14      1.0  0.09921723999999993  0.357926545  0.5106058073177699  1.0000
  Ag  Ag15      1.0  0.9200076  0.743753885  0.4508308280648197  1.0000
