data_image0
_chemical_formula_structural       COZn12
_chemical_formula_sum              "C1 O1 Zn12"
_cell_length_a       5.28241551
_cell_length_b       4.61531785
_cell_length_c       99.31120504
_cell_angle_alpha    90.0
_cell_angle_beta     90.0
_cell_angle_gamma    90.0

_space_group_name_H-M_alt    "P 1"
_space_group_IT_number       1

loop_
  _space_group_symop_operation_xyz
  'x, y, z'

loop_
  _atom_site_type_symbol
  _atom_site_label
  _atom_site_symmetry_multiplicity
  _atom_site_fract_x
  _atom_site_fract_y
  _atom_site_fract_z
  _atom_site_occupancy
  C   C1        1.0  0.74990599  0.22680443000000003  0.5380671166213402  1.0000
  O   O1        1.0  0.7498681399999999  0.11978983000000001  0.5486452076614811  1.0000
  Zn  Zn1       1.0  0.7498809299999999  0.36446800999999995  0.4647704722852305  1.0000
  Zn  Zn2       1.0  0.7498809299999999  0.8644680100000001  0.451354792338519  1.0000
  Zn  Zn3       1.0  0.24988092999999992  0.69780135  0.4647704722852305  1.0000
  Zn  Zn4       1.0  0.24988092999999992  0.19780135000000001  0.451354792338519  1.0000
  Zn  Zn5       1.0  0.7498432799999999  0.37416583999999997  0.49241160083921404  1.0000
  Zn  Zn6       1.0  0.7498809299999999  0.8644680100000001  0.47818615518339197  1.0000
  Zn  Zn7       1.0  0.24989833999999994  0.6885127099999999  0.4913980847347763  1.0000
  Zn  Zn8       1.0  0.24988092999999992  0.19780135000000001  0.47818615518339197  1.0000
  Zn  Zn9       1.0  0.75033665  0.40153778  0.5190213776767577  1.0000
  Zn  Zn10      1.0  0.7495337799999999  0.88021017  0.5068660081757717  1.0000
  Zn  Zn11      1.0  0.2500321599999999  0.66107559  0.5184931861950566  1.0000
  Zn  Zn12      1.0  0.24966334999999998  0.16744061000000002  0.5066857306618368  1.0000
