data_image0
_chemical_formula_structural       COTi2Ag2Ti2Ag2Ti2Ag2Ti2Ag2
_chemical_formula_sum              "C1 O1 Ti8 Ag8"
_cell_length_a       5.87010798
_cell_length_b       5.87010798
_cell_length_c       103.26904384
_cell_angle_alpha    90.0
_cell_angle_beta     90.0
_cell_angle_gamma    90.0

_space_group_name_H-M_alt    "P 1"
_space_group_IT_number       1

loop_
  _space_group_symop_operation_xyz
  'x, y, z'

loop_
  _atom_site_type_symbol
  _atom_site_label
  _atom_site_symmetry_multiplicity
  _atom_site_fract_x
  _atom_site_fract_y
  _atom_site_fract_z
  _atom_site_occupancy
  C   C1        1.0  0.251087  0.25116013000000004  0.5312319930800004  1.0000
  O   O1        1.0  0.25099372000000003  0.25113920000000006  0.5426383067702667  1.0000
  Ti  Ti1       1.0  0.0010761699999999887  0.0011404800000000233  0.47567843177422264  1.0000
  Ti  Ti2       1.0  0.25107617  0.25114048000000005  0.4573616932297333  1.0000
  Ag  Ag1       1.0  0.9982297400000002  0.99817346  0.5174750403721448  1.0000
  Ag  Ag2       1.0  0.25106336  0.25124659  0.49562090665954045  1.0000
  Ti  Ti3       1.0  0.0010761699999999887  0.50114048  0.47567843177422264  1.0000
  Ti  Ti4       1.0  0.25107617  0.7511404800000001  0.4573616932297333  1.0000
  Ag  Ag3       1.0  0.9989238300000002  0.5034380800000001  0.5174731299697373  1.0000
  Ag  Ag4       1.0  0.25066756  0.7511326400000001  0.4968998324776519  1.0000
  Ti  Ti5       1.0  0.50107617  0.0011404800000000233  0.47567843177422264  1.0000
  Ti  Ti6       1.0  0.7510761699999999  0.25114048000000005  0.4573616932297333  1.0000
  Ag  Ag5       1.0  0.50314819  0.99885952  0.5174471865117483  1.0000
  Ag  Ag6       1.0  0.75133767  0.2512041300000001  0.49691659762795304  1.0000
  Ti  Ti7       1.0  0.50107617  0.50114048  0.47567843177422264  1.0000
  Ti  Ti8       1.0  0.7510761699999999  0.7511404800000001  0.4573616932297333  1.0000
  Ag  Ag7       1.0  0.5039075900000001  0.5045008700000001  0.5174817090618303  1.0000
  Ag  Ag8       1.0  0.7509878200000002  0.75108617  0.49692949687119015  1.0000
