data_image0
_chemical_formula_structural       COIn2Ag6In2Ag6In2Ag6In2Ag6
_chemical_formula_sum              "C1 O1 In8 Ag24"
_cell_length_a       6.07915207
_cell_length_b       8.5972193
_cell_length_c       106.4749124
_cell_angle_alpha    90.0
_cell_angle_beta     90.0
_cell_angle_gamma    90.0

_space_group_name_H-M_alt    "P 1"
_space_group_IT_number       1

loop_
  _space_group_symop_operation_xyz
  'x, y, z'

loop_
  _atom_site_type_symbol
  _atom_site_label
  _atom_site_symmetry_multiplicity
  _atom_site_fract_x
  _atom_site_fract_y
  _atom_site_fract_z
  _atom_site_occupancy
  C   C1        1.0  0.61874395  0.37614651499999996  0.5542687056594191  1.0000
  O   O1        1.0  0.6240220100000001  0.37614683499999996  0.5651030533239193  1.0000
  In  In1       1.0  0.8723359600000001  0.123851885  0.5214792380207192  1.0000
  In  In2       1.0  0.3750000000000001  0.126146265  0.49199163735224516  1.0000
  Ag  Ag1       1.0  0.6186028300000002  0.3761465249999999  0.5340654620104821  1.0000
  Ag  Ag2       1.0  0.12500000000000006  0.376146265  0.5062653074520252  1.0000
  Ag  Ag3       1.0  0.875  0.126146265  0.49199163735224516  1.0000
  Ag  Ag4       1.0  0.37288000000000004  0.126856135  0.5209151207921385  1.0000
  Ag  Ag5       1.0  0.12522461000000004  0.37614516499999995  0.5333736251033071  1.0000
  Ag  Ag6       1.0  0.6250000000000001  0.376146265  0.5062653074520252  1.0000
  In  In3       1.0  0.875  0.126146265  0.4634442903013222  1.0000
  In  In4       1.0  0.3750000000000001  0.126146265  0.4348969466760807  1.0000
  Ag  Ag7       1.0  0.6250000000000001  0.376146265  0.4777179638267837  1.0000
  Ag  Ag8       1.0  0.12500000000000006  0.376146265  0.4491706202015422  1.0000
  Ag  Ag9       1.0  0.875  0.126146265  0.4348969466760807  1.0000
  Ag  Ag10      1.0  0.3750000000000001  0.126146265  0.4634442903013222  1.0000
  Ag  Ag11      1.0  0.12500000000000006  0.376146265  0.4777179638267837  1.0000
  Ag  Ag12      1.0  0.6250000000000001  0.376146265  0.4491706202015422  1.0000
  In  In5       1.0  0.8723328  0.628441485  0.5214791695070916  1.0000
  In  In6       1.0  0.3750000000000001  0.626146265  0.49199163735224516  1.0000
  Ag  Ag13      1.0  0.6149788300000001  0.8761467949999999  0.5337344212910935  1.0000
  Ag  Ag14      1.0  0.12500000000000006  0.876146265  0.5062653074520252  1.0000
  Ag  Ag15      1.0  0.875  0.626146265  0.49199163735224516  1.0000
  Ag  Ag16      1.0  0.37284282  0.625421485  0.5209176797761234  1.0000
  Ag  Ag17      1.0  0.12801253000000004  0.876148115  0.5336046667577641  1.0000
  Ag  Ag18      1.0  0.6250000000000001  0.876146265  0.5062653074520252  1.0000
  In  In7       1.0  0.875  0.626146265  0.4634442903013222  1.0000
  In  In8       1.0  0.3750000000000001  0.626146265  0.4348969466760807  1.0000
  Ag  Ag19      1.0  0.6250000000000001  0.876146265  0.4777179638267837  1.0000
  Ag  Ag20      1.0  0.12500000000000006  0.876146265  0.4491706202015422  1.0000
  Ag  Ag21      1.0  0.875  0.626146265  0.4348969466760807  1.0000
  Ag  Ag22      1.0  0.3750000000000001  0.626146265  0.4634442903013222  1.0000
  Ag  Ag23      1.0  0.12500000000000006  0.876146265  0.4777179638267837  1.0000
  Ag  Ag24      1.0  0.6250000000000001  0.876146265  0.4491706202015422  1.0000
