data_image0
_chemical_formula_structural       COIn8Ag4
_chemical_formula_sum              "C1 O1 In8 Ag4"
_cell_length_a       7.01797252
_cell_length_b       5.92529006
_cell_length_c       41.92810991
_cell_angle_alpha    90.0
_cell_angle_beta     90.0
_cell_angle_gamma    90.0

_space_group_name_H-M_alt    "P 1"
_space_group_IT_number       1

loop_
  _space_group_symop_operation_xyz
  'x, y, z'

loop_
  _atom_site_type_symbol
  _atom_site_label
  _atom_site_symmetry_multiplicity
  _atom_site_fract_x
  _atom_site_fract_y
  _atom_site_fract_z
  _atom_site_occupancy
  C   C1        1.0  0.6886905550000001  0.62501656  0.5815523461476999  1.0000
  O   O1        1.0  0.698555495  0.6249135100000001  0.6090386234440096  1.0000
  In  In1       1.0  0.9106739049999999  0.62490543  0.4990893832935968  1.0000
  In  In2       1.0  0.35365328500000004  0.62497888  0.5309515712436077  1.0000
  In  In3       1.0  0.244525705  0.12502815000000003  0.5006402962543685  1.0000
  In  In4       1.0  0.8052720250000001  0.12503248000000003  0.5312170510346687  1.0000
  In  In5       1.0  0.42225324500000005  0.12500000000000003  0.41698805062093663  1.0000
  In  In6       1.0  0.9222532449999999  0.12500000000000003  0.4486252516119338  1.0000
  In  In7       1.0  0.733240265  0.625  0.41698805062093663  1.0000
  In  In8       1.0  0.23324026500000003  0.625  0.4486252516119338  1.0000
  Ag  Ag1       1.0  0.576572225  0.37557657000000005  0.474727146736412  1.0000
  Ag  Ag2       1.0  0.07774675500000001  0.375  0.39096137655599045  1.0000
  Ag  Ag3       1.0  0.07774675500000001  0.8749999999999999  0.39096137655599045  1.0000
  Ag  Ag4       1.0  0.576604295  0.8748775600000002  0.47484567263021693  1.0000
