data_image0
_chemical_formula_structural       COIn8Pt4
_chemical_formula_sum              "C1 O1 In8 Pt4"
_cell_length_a       4.61667784
_cell_length_b       4.61667784
_cell_length_c       109.17381051000001
_cell_angle_alpha    90.0
_cell_angle_beta     90.0
_cell_angle_gamma    90.0

_space_group_name_H-M_alt    "P 1"
_space_group_IT_number       1

loop_
  _space_group_symop_operation_xyz
  'x, y, z'

loop_
  _atom_site_type_symbol
  _atom_site_label
  _atom_site_symmetry_multiplicity
  _atom_site_fract_x
  _atom_site_fract_y
  _atom_site_fract_z
  _atom_site_occupancy
  C   C1        1.0  0.25000004  9.649999999084002e-07  0.5541369731725033  1.0000
  O   O1        1.0  0.25000004  1.1449999999246785e-06  0.5649954187051127  1.0000
  In  In1       1.0  0.75000003  0.9999988550000001  0.5398235698180034  1.0000
  In  In2       1.0  0.25000003  0.500002665  0.5398235698180034  1.0000
  In  In3       1.0  0.24999997  0.5000041550000001  0.5097588721449612  1.0000
  In  In4       1.0  0.7499999700000001  4.155000000054348e-06  0.5097588721449612  1.0000
  In  In5       1.0  0.7499999700000001  4.155000000054348e-06  0.47985715436964926  1.0000
  In  In6       1.0  0.24999997  0.5000041550000001  0.47985715436964926  1.0000
  In  In7       1.0  0.24999997  0.5000041550000001  0.44995544018254313  1.0000
  In  In8       1.0  0.7499999700000001  4.155000000054348e-06  0.44995544018254313  1.0000
  Pt  Pt1       1.0  0.24999997  4.155000000054348e-06  0.4948080132573052  1.0000
  Pt  Pt2       1.0  0.7499999999999999  0.500034865  0.5252790285957287  1.0000
  Pt  Pt3       1.0  0.24999997  4.155000000054348e-06  0.43500458129488717  1.0000
  Pt  Pt4       1.0  0.7499999700000001  0.5000041550000001  0.4649062990701991  1.0000
