data_image0
_chemical_formula_structural       COAl4Fe8Si4Al4Fe8Si4Al4Fe8Si4Al4Fe8Si4
_chemical_formula_sum              "C1 O1 Al16 Fe32 Si16"
_cell_length_a       7.974533
_cell_length_b       7.974533
_cell_length_c       103.83307816
_cell_angle_alpha    90.0
_cell_angle_beta     90.0
_cell_angle_gamma    90.0

_space_group_name_H-M_alt    "P 1"
_space_group_IT_number       1

loop_
  _space_group_symop_operation_xyz
  'x, y, z'

loop_
  _atom_site_type_symbol
  _atom_site_label
  _atom_site_symmetry_multiplicity
  _atom_site_fract_x
  _atom_site_fract_y
  _atom_site_fract_z
  _atom_site_occupancy
  C   C1        1.0  0.11998942999999998  0.10790923499999999  0.5504690494535354  1.0000
  O   O1        1.0  0.11999615999999998  0.107983715  0.5620535847083515  1.0000
  Al  Al1       1.0  0.11998359999999998  0.3579933249999999  0.4786765452747274  1.0000
  Al  Al2       1.0  0.3699835999999999  0.107993325  0.4515231263721449  1.0000
  Al  Al3       1.0  0.11998640999999999  0.3239076449999999  0.5352953946950728  1.0000
  Al  Al4       1.0  0.3744823  0.10799218499999999  0.5054946607136477  1.0000
  Fe  Fe1       1.0  0.3699835999999999  0.3579933249999999  0.46509983745264133  1.0000
  Fe  Fe2       1.0  0.3699835999999999  0.3579933249999999  0.43794641529164846  1.0000
  Fe  Fe3       1.0  0.11998359999999998  0.107993325  0.43794641529164846  1.0000
  Fe  Fe4       1.0  0.11998359999999998  0.107993325  0.46509983745264133  1.0000
  Fe  Fe5       1.0  0.36589915999999995  0.358124415  0.5200280769297011  1.0000
  Fe  Fe6       1.0  0.3699835999999999  0.3579933249999999  0.4922532563552239  1.0000
  Fe  Fe7       1.0  0.11998359999999998  0.107993325  0.4922532563552239  1.0000
  Fe  Fe8       1.0  0.12000303999999998  0.107985945  0.5178206700635486  1.0000
  Si  Si1       1.0  0.3699835999999999  0.107993325  0.4786765452747274  1.0000
  Si  Si2       1.0  0.11998359999999998  0.3579933249999999  0.4515231263721449  1.0000
  Si  Si3       1.0  0.35994108999999996  0.108003215  0.5308141745588433  1.0000
  Si  Si4       1.0  0.11998227999999997  0.36122790499999996  0.5057004716896574  1.0000
  Al  Al5       1.0  0.11998359999999998  0.8579933249999998  0.4786765452747274  1.0000
  Al  Al6       1.0  0.3699835999999999  0.6079933249999999  0.4515231263721449  1.0000
  Al  Al7       1.0  0.11998561999999997  0.8920907649999998  0.5352983761405876  1.0000
  Al  Al8       1.0  0.36773083  0.6079980049999999  0.5057872399001629  1.0000
  Fe  Fe9       1.0  0.3699835999999999  0.8579933249999998  0.46509983745264133  1.0000
  Fe  Fe10      1.0  0.3699835999999999  0.8579933249999998  0.43794641529164846  1.0000
  Fe  Fe11      1.0  0.11998359999999998  0.6079933249999999  0.43794641529164846  1.0000
  Fe  Fe12      1.0  0.11998359999999998  0.6079933249999999  0.46509983745264133  1.0000
  Fe  Fe13      1.0  0.36588779999999993  0.8578908949999999  0.5200298625385995  1.0000
  Fe  Fe14      1.0  0.3699835999999999  0.8579933249999998  0.4922532563552239  1.0000
  Fe  Fe15      1.0  0.11998359999999998  0.6079933249999999  0.4922532563552239  1.0000
  Fe  Fe16      1.0  0.12000173999999997  0.607983035  0.5211506318961387  1.0000
  Si  Si5       1.0  0.3699835999999999  0.6079933249999999  0.4786765452747274  1.0000
  Si  Si6       1.0  0.11998359999999998  0.8579933249999998  0.4515231263721449  1.0000
  Si  Si7       1.0  0.37013761999999995  0.607991855  0.531242007102596  1.0000
  Si  Si8       1.0  0.11998154999999998  0.8547593549999998  0.5057006965199748  1.0000
  Al  Al9       1.0  0.6199835999999999  0.3579933249999999  0.4786765452747274  1.0000
  Al  Al10      1.0  0.8699835999999999  0.107993325  0.4515231263721449  1.0000
  Al  Al11      1.0  0.6199870099999999  0.358523765  0.5324824350652045  1.0000
  Al  Al12      1.0  0.8654731399999999  0.107994595  0.5054937516171465  1.0000
  Fe  Fe17      1.0  0.8699835999999999  0.3579933249999999  0.46509983745264133  1.0000
  Fe  Fe18      1.0  0.8699835999999999  0.3579933249999999  0.43794641529164846  1.0000
  Fe  Fe19      1.0  0.6199835999999999  0.107993325  0.43794641529164846  1.0000
  Fe  Fe20      1.0  0.6199835999999999  0.107993325  0.46509983745264133  1.0000
  Fe  Fe21      1.0  0.8740502399999999  0.35812358499999997  0.5200279694021579  1.0000
  Fe  Fe22      1.0  0.8699835999999999  0.3579933249999999  0.4922532563552239  1.0000
  Fe  Fe23      1.0  0.6199835999999999  0.107993325  0.4922532563552239  1.0000
  Fe  Fe24      1.0  0.61998803  0.107991195  0.520368297334655  1.0000
  Si  Si9       1.0  0.8699835999999999  0.107993325  0.4786765452747274  1.0000
  Si  Si10      1.0  0.6199835999999999  0.3579933249999999  0.4515231263721449  1.0000
  Si  Si11      1.0  0.8800184499999999  0.108002275  0.5308144515237272  1.0000
  Si  Si12      1.0  0.6199879199999999  0.3582889749999999  0.5055911194366788  1.0000
  Al  Al13      1.0  0.6199835999999999  0.8579933249999998  0.4786765452747274  1.0000
  Al  Al14      1.0  0.8699835999999999  0.6079933249999999  0.4515231263721449  1.0000
  Al  Al15      1.0  0.61998764  0.8574741249999998  0.5324825947273142  1.0000
  Al  Al16      1.0  0.8722239199999999  0.607997995  0.5057869466432271  1.0000
  Fe  Fe25      1.0  0.8699835999999999  0.8579933249999998  0.46509983745264133  1.0000
  Fe  Fe26      1.0  0.8699835999999999  0.8579933249999998  0.43794641529164846  1.0000
  Fe  Fe27      1.0  0.6199835999999999  0.6079933249999999  0.43794641529164846  1.0000
  Fe  Fe28      1.0  0.6199835999999999  0.6079933249999999  0.46509983745264133  1.0000
  Fe  Fe29      1.0  0.87406188  0.857883685  0.5200301623123561  1.0000
  Fe  Fe30      1.0  0.8699835999999999  0.8579933249999998  0.4922532563552239  1.0000
  Fe  Fe31      1.0  0.6199835999999999  0.6079933249999999  0.4922532563552239  1.0000
  Fe  Fe32      1.0  0.6199977699999999  0.607993135  0.5197974759673785  1.0000
  Si  Si13      1.0  0.8699835999999999  0.6079933249999999  0.4786765452747274  1.0000
  Si  Si14      1.0  0.6199835999999999  0.8579933249999998  0.4515231263721449  1.0000
  Si  Si15      1.0  0.8698029899999999  0.607991855  0.5312420983380871  1.0000
  Si  Si16      1.0  0.61998836  0.8577022750000001  0.5055915104459267  1.0000
