data_image0
_chemical_formula_structural       COAu24Se24
_chemical_formula_sum              "C1 O1 Au24 Se24"
_cell_length_a       14.81388205364512
_cell_length_b       13.971563837343883
_cell_length_c       108.7672953
_cell_angle_alpha    114.78381360239975
_cell_angle_beta     92.66409240698889
_cell_angle_gamma    48.01887954812253

_space_group_name_H-M_alt    "P 1"
_space_group_IT_number       1

loop_
  _space_group_symop_operation_xyz
  'x, y, z'

loop_
  _atom_site_type_symbol
  _atom_site_label
  _atom_site_symmetry_multiplicity
  _atom_site_fract_x
  _atom_site_fract_y
  _atom_site_fract_z
  _atom_site_occupancy
  C   C1        1.0  0.39217033  0.8551311650000001  0.5515399984675681  1.0000
  O   O1        1.0  0.4060734799999999  0.7947010050000002  0.5571674802299927  1.0000
  Au  Au1       1.0  0.10330936000000006  0.9514713949999999  0.45045197436172957  1.0000
  Au  Au2       1.0  0.4259154500000001  0.6056388850000001  0.5125347348808514  1.0000
  Au  Au3       1.0  0.76997602  0.28480473500000003  0.48015398914045265  1.0000
  Au  Au4       1.0  0.60712701  0.8845703450000001  0.49568535150159027  1.0000
  Au  Au5       1.0  0.9404603400000001  0.5512370150000002  0.46598333315862506  1.0000
  Au  Au6       1.0  0.30730336  0.19341694500000006  0.5169022143550613  1.0000
  Au  Au7       1.0  0.31116956  0.06290664500000004  0.48749517623730776  1.0000
  Au  Au8       1.0  0.64450289  0.729573315  0.4577931614585845  1.0000
  Au  Au9       1.0  0.82714622  0.4950827950000001  0.5137426849801248  1.0000
  Au  Au10      1.0  0.39926681  0.7731350950000002  0.4586421496260121  1.0000
  Au  Au11      1.0  0.7312886900000002  0.37931813500000006  0.5167019752442196  1.0000
  Au  Au12      1.0  0.06593348000000004  0.10646843500000004  0.4883441644047352  1.0000
  Au  Au13      1.0  0.43664269000000006  0.11813806500000004  0.46530298353321203  1.0000
  Au  Au14      1.0  0.022163779999999994  0.6483830950000001  0.5242377164860603  1.0000
  Au  Au15      1.0  0.10330936000000006  0.45147139500000005  0.49500499831193523  1.0000
  Au  Au16      1.0  0.6071270099999999  0.38457034500000004  0.4511323275513844  1.0000
  Au  Au17      1.0  0.9338743  0.06610487500000004  0.510103041526375  1.0000
  Au  Au18      1.0  0.27379368000000004  0.7179036750000001  0.48083434233010763  1.0000
  Au  Au19      1.0  0.62248159  0.26324531500000004  0.505340070204922  1.0000
  Au  Au20      1.0  0.97783622  0.8962399750000001  0.4726441670658252  1.0000
  Au  Au21      1.0  0.3111695599999999  0.5629066450000002  0.442942152287102  1.0000
  Au  Au22      1.0  0.41471603  0.26749577500000005  0.5024716075175729  1.0000
  Au  Au23      1.0  0.7326001400000003  0.9398017649999999  0.47349315523325264  1.0000
  Au  Au24      1.0  0.06593347999999996  0.6064684350000001  0.4437911404545294  1.0000
  Se  Se1       1.0  0.23122881  0.18774755500000007  0.4732487694220391  1.0000
  Se  Se2       1.0  0.5645621399999999  0.8544142250000001  0.44354675107907393  1.0000
  Se  Se3       1.0  0.8817390300000002  0.625524645  0.5125335230386  1.0000
  Se  Se4       1.0  0.31055438  0.879492975  0.44283251977000726  1.0000
  Se  Se5       1.0  0.64459748  0.5324107450000002  0.5049359243783067  1.0000
  Se  Se6       1.0  0.9772210500000001  0.21282630500000002  0.47253453454873046  1.0000
  Se  Se7       1.0  0.41246872  0.922547655  0.5002508246142349  1.0000
  Se  Se8       1.0  0.7332153200000001  0.6232154350000002  0.4736027877503473  1.0000
  Se  Se9       1.0  0.06654865000000004  0.28988210500000006  0.4439007729716241  1.0000
  Se  Se10      1.0  0.47920756000000003  0.648294185  0.47288855644128064  1.0000
  Se  Se11      1.0  0.81254089  0.31496085500000004  0.44318654166255744  1.0000
  Se  Se12      1.0  0.14506447  0.9789191049999999  0.5021585744070569  1.0000
  Se  Se13      1.0  0.5645621399999999  0.354414225  0.48809977502927965  1.0000
  Se  Se14      1.0  0.89789548  0.02108089500000004  0.45839776025055645  1.0000
  Se  Se15      1.0  0.19803896999999995  0.7567610350000001  0.5228685664176513  1.0000
  Se  Se16      1.0  0.3105543800000001  0.37949297500000007  0.487385543720213  1.0000
  Se  Se17      1.0  0.64388771  0.04615963500000004  0.4576835289414898  1.0000
  Se  Se18      1.0  0.17660101000000003  0.6506583250000001  0.5329501601182967  1.0000
  Se  Se19      1.0  0.7087669799999998  0.24893272500000002  0.5255891986072916  1.0000
  Se  Se20      1.0  0.06654865000000001  0.789882105  0.48845379692182994  1.0000
  Se  Se21      1.0  0.3998819899999999  0.45654877500000013  0.4587517821431067  1.0000
  Se  Se22      1.0  0.49943326000000005  0.14822643500000005  0.5171896847225558  1.0000
  Se  Se23      1.0  0.8125408900000002  0.814960855  0.4877395656127632  1.0000
  Se  Se24      1.0  0.14587422000000005  0.48162751500000006  0.4580375472697981  1.0000
