data_image0
_chemical_formula_structural       COCa6Se6
_chemical_formula_sum              "C1 O1 Ca6 Se6"
_cell_length_a       6.04013583
_cell_length_b       7.39762537484306
_cell_length_c       102.52712689
_cell_angle_alpha    94.34775313285014
_cell_angle_beta     90.0
_cell_angle_gamma    114.09484252859387

_space_group_name_H-M_alt    "P 1"
_space_group_IT_number       1

loop_
  _space_group_symop_operation_xyz
  'x, y, z'

loop_
  _atom_site_type_symbol
  _atom_site_label
  _atom_site_symmetry_multiplicity
  _atom_site_fract_x
  _atom_site_fract_y
  _atom_site_fract_z
  _atom_site_occupancy
  C   C1        1.0  0.8254339949999999  0.652457295  0.5336244772573803  1.0000
  O   O1        1.0  0.8196196649999998  0.6402169149999999  0.5447354657155205  1.0000
  Ca  Ca1       1.0  0.16683851500000002  0.335589065  0.495962830404045  1.0000
  Ca  Ca2       1.0  0.749999995  0.5000000050000001  0.46848344622792876  1.0000
  Ca  Ca3       1.0  0.5686560650000001  0.139968655  0.519235631422292  1.0000
  Ca  Ca4       1.0  0.458333335  0.9166666649999999  0.481702358171378  1.0000
  Ca  Ca5       1.0  0.041666665  0.08333333499999998  0.45526453428447944  1.0000
  Ca  Ca6       1.0  0.879100405  0.7618141549999999  0.5078402724656093  1.0000
  Se  Se1       1.0  0.24999999500000003  0.5000000050000001  0.46848344622792876  1.0000
  Se  Se2       1.0  0.07582404500000003  0.15285980500000002  0.5220174623871562  1.0000
  Se  Se3       1.0  0.668911165  0.339732415  0.49532746926863325  1.0000
  Se  Se4       1.0  0.5416666649999999  0.08333333499999998  0.45526453428447944  1.0000
  Se  Se5       1.0  0.37195045499999996  0.7473125749999999  0.5081405024846763  1.0000
  Se  Se6       1.0  0.958333335  0.9166666649999999  0.481702358171378  1.0000
