data_image0
_chemical_formula_structural       COCa4Zn8
_chemical_formula_sum              "C1 O1 Ca4 Zn8"
_cell_length_a       5.854468263522723
_cell_length_b       4.65848257
_cell_length_c       102.2270013
_cell_angle_alpha    90.0
_cell_angle_beta     88.60766408329931
_cell_angle_gamma    113.44427844994307

_space_group_name_H-M_alt    "P 1"
_space_group_IT_number       1

loop_
  _space_group_symop_operation_xyz
  'x, y, z'

loop_
  _atom_site_type_symbol
  _atom_site_label
  _atom_site_symmetry_multiplicity
  _atom_site_fract_x
  _atom_site_fract_y
  _atom_site_fract_z
  _atom_site_occupancy
  C   C1        1.0  0.20923003999999998  0.345931065  0.5450317113625747  1.0000
  O   O1        1.0  0.19497543999999994  0.339913085  0.5565879065165109  1.0000
  Ca  Ca1       1.0  0.8050245600000001  0.14243163500000006  0.4447730409258766  1.0000
  Ca  Ca2       1.0  0.8050245600000001  0.6424316350000001  0.4973146062675439  1.0000
  Ca  Ca3       1.0  0.20433253999999998  0.8420856350000001  0.4657533080877065  1.0000
  Ca  Ca4       1.0  0.21006816  0.349351535  0.5193424850309875  1.0000
  Zn  Zn1       1.0  0.23023481999999998  0.35503676500000003  0.4869211896277317  1.0000
  Zn  Zn2       1.0  0.27783990000000003  0.8861483850000003  0.536352870032333  1.0000
  Zn  Zn3       1.0  0.77912228  0.12948050499999997  0.47614672472751873  1.0000
  Zn  Zn4       1.0  0.7893975299999999  0.6376252950000001  0.5277022529812906  1.0000
  Zn  Zn5       1.0  0.60721132  0.543525015  0.46711425237759985  1.0000
  Zn  Zn6       1.0  0.62907962  0.05900774500000002  0.5185809212816801  1.0000
  Zn  Zn7       1.0  0.40214577999999995  0.44099225499999994  0.44341209348348926  1.0000
  Zn  Zn8       1.0  0.40214577999999995  0.9409922550000002  0.4959536619776506  1.0000
