data_image0
_chemical_formula_structural       CONa8Ge8Au8Na8Ge8Au8
_chemical_formula_sum              "C1 O1 Na16 Ge16 Au16"
_cell_length_a       7.69216129
_cell_length_b       15.56958632277075
_cell_length_c       101.90143833
_cell_angle_alpha    107.02017232568457
_cell_angle_beta     90.0
_cell_angle_gamma    90.0

_space_group_name_H-M_alt    "P 1"
_space_group_IT_number       1

loop_
  _space_group_symop_operation_xyz
  'x, y, z'

loop_
  _atom_site_type_symbol
  _atom_site_label
  _atom_site_symmetry_multiplicity
  _atom_site_fract_x
  _atom_site_fract_y
  _atom_site_fract_z
  _atom_site_occupancy
  C   C1        1.0  0.07123675999999998  0.8985567600000002  0.5435605612471205  1.0000
  O   O1        1.0  0.019772859999999982  0.9285232800000001  0.5547568125143169  1.0000
  Na  Na1       1.0  0.79456174  0.5421387300000001  0.48604197469604304  1.0000
  Na  Na2       1.0  0.79456174  0.042138730000000034  0.4636804245727192  1.0000
  Na  Na3       1.0  0.42076258999999994  0.5421387300000001  0.46368042457271924  1.0000
  Na  Na4       1.0  0.42076258999999994  0.042138730000000034  0.486041974696043  1.0000
  Na  Na5       1.0  0.29456173999999996  0.29213873000000007  0.45249964794574876  1.0000
  Na  Na6       1.0  0.29456173999999996  0.7921387300000001  0.47486119806907257  1.0000
  Na  Na7       1.0  0.92076259  0.29213873000000007  0.4748611980690726  1.0000
  Na  Na8       1.0  0.92076259  0.7921387300000001  0.45249964794574876  1.0000
  Ge  Ge1       1.0  0.19013974999999997  0.45439185  0.4821176616597552  1.0000
  Ge  Ge2       1.0  0.19013974999999997  0.9543918500000002  0.4597561115364313  1.0000
  Ge  Ge3       1.0  0.19013974999999997  0.12988561000000004  0.46760473760900706  1.0000
  Ge  Ge4       1.0  0.19013974999999997  0.6298856100000001  0.4452431874856832  1.0000
  Ge  Ge5       1.0  0.69013975  0.20439185000000004  0.44857533490946094  1.0000
  Ge  Ge6       1.0  0.69013975  0.70439185  0.47093688503278475  1.0000
  Ge  Ge7       1.0  0.69013975  0.37988561000000004  0.4564239609820366  1.0000
  Ge  Ge8       1.0  0.69013975  0.87988561  0.4787855111053605  1.0000
  Au  Au1       1.0  0.5140873399999999  0.19085276  0.47033137673028025  1.0000
  Au  Au2       1.0  0.5140873399999999  0.6908527600000001  0.4479698266069564  1.0000
  Au  Au3       1.0  0.5140873399999999  0.3934247  0.47939102253848204  1.0000
  Au  Au4       1.0  0.5140873399999999  0.8934247  0.4570294724151581  1.0000
  Au  Au5       1.0  0.014087339999999985  0.44085276  0.45915060010330977  1.0000
  Au  Au6       1.0  0.014087339999999985  0.9408527600000002  0.4815121502266336  1.0000
  Au  Au7       1.0  0.014087339999999985  0.14342470000000004  0.44584869578818775  1.0000
  Au  Au8       1.0  0.014087339999999985  0.6434247  0.46821024591151156  1.0000
  Na  Na9       1.0  0.79026581  0.5519090600000001  0.5292330636460134  1.0000
  Na  Na10      1.0  0.7929883  0.04373754000000003  0.507955555429556  1.0000
  Na  Na11      1.0  0.41092694999999996  0.5521096400000002  0.5086176903338013  1.0000
  Na  Na12      1.0  0.4138012  0.04783070000000003  0.530006980363713  1.0000
  Na  Na13      1.0  0.29456173999999996  0.29213873000000007  0.4972227481923965  1.0000
  Na  Na14      1.0  0.28379362999999996  0.7978236900000001  0.5210820168329046  1.0000
  Na  Na15      1.0  0.9124514  0.29468654000000005  0.5199067769198843  1.0000
  Na  Na16      1.0  0.92076259  0.7921387300000001  0.4972227481923965  1.0000
  Ge  Ge9       1.0  0.18418575999999998  0.46772234000000007  0.5277940160235232  1.0000
  Ge  Ge10      1.0  0.18254565999999997  0.95786127  0.5048291490296507  1.0000
  Ge  Ge11      1.0  0.17359393999999997  0.13269335000000004  0.5131960237148634  1.0000
  Ge  Ge12      1.0  0.19013974999999997  0.6298856100000001  0.4899662877323309  1.0000
  Ge  Ge13      1.0  0.69013975  0.20439185000000004  0.49329843828672565  1.0000
  Ge  Ge14      1.0  0.67663839  0.7130080300000001  0.516345330578708  1.0000
  Ge  Ge15      1.0  0.69794258  0.38291489  0.5010180234538859  1.0000
  Ge  Ge16      1.0  0.66439635  0.8825518800000001  0.5245966823630561  1.0000
  Au  Au9       1.0  0.48697475999999995  0.18948470000000003  0.5128599269264019  1.0000
  Au  Au10      1.0  0.5140873399999999  0.6908527600000001  0.4926929268536041  1.0000
  Au  Au11      1.0  0.48520499999999994  0.40526334  0.5212876075871572  1.0000
  Au  Au12      1.0  0.51080613  0.8974387600000001  0.5021426475499586  1.0000
  Au  Au13      1.0  0.024064199999999987  0.44567623  0.5051278912951152  1.0000
  Au  Au14      1.0  0.9783004200000001  0.93504716  0.5241870411181543  1.0000
  Au  Au15      1.0  0.014087339999999985  0.14342470000000004  0.49057179603483536  1.0000
  Au  Au16      1.0  0.98591266  0.64696529  0.5112468514310583  1.0000
