data_image0
_chemical_formula_structural       COSn12Pd12
_chemical_formula_sum              "C1 O1 Sn12 Pd12"
_cell_length_a       7.390045686591123
_cell_length_b       7.676578528609198
_cell_length_c       109.43994017
_cell_angle_alpha    69.6811829289528
_cell_angle_beta     72.45467390049814
_cell_angle_gamma    73.27755029172727

_space_group_name_H-M_alt    "P 1"
_space_group_IT_number       1

loop_
  _space_group_symop_operation_xyz
  'x, y, z'

loop_
  _atom_site_type_symbol
  _atom_site_label
  _atom_site_symmetry_multiplicity
  _atom_site_fract_x
  _atom_site_fract_y
  _atom_site_fract_z
  _atom_site_occupancy
  C   C1        1.0  0.6102713700000002  0.8957317749999999  0.5423671806273609  1.0000
  O   O1        1.0  0.5855338699999999  0.8684946450000001  0.5538719118839446  1.0000
  Sn  Sn1       1.0  0.42864124000000003  0.6973358949999999  0.5256431809189359  1.0000
  Sn  Sn2       1.0  0.7581390300000002  0.04741288499999998  0.494297601026442  1.0000
  Sn  Sn3       1.0  0.09147235999999999  0.380746215  0.46426595495407136  1.0000
  Sn  Sn4       1.0  0.9099787300000002  0.6235180050000001  0.5150333410966731  1.0000
  Sn  Sn5       1.0  0.24217968999999998  0.960703245  0.4850476470484287  1.0000
  Sn  Sn6       1.0  0.5755130300000003  0.294036585  0.455016000976058  1.0000
  Sn  Sn7       1.0  0.6545985600000002  0.7544938149999999  0.45857860363769615  1.0000
  Sn  Sn8       1.0  0.98761317  0.12448399499999999  0.5191770885672351  1.0000
  Sn  Sn9       1.0  0.32126523000000007  0.421160485  0.48861024971006695  1.0000
  Sn  Sn10      1.0  0.67905349  0.5869556450000001  0.49073499836480383  1.0000
  Sn  Sn11      1.0  0.01238682999999998  0.9202889849999999  0.46070335229243314  1.0000
  Sn  Sn12      1.0  0.34088483999999997  0.25938978499999993  0.5207327218896801  1.0000
  Pd  Pd1       1.0  0.67087967  0.398217395  0.5167002200494808  1.0000
  Pd  Pd2       1.0  0.013421109999999969  0.717274815  0.4875534576652937  1.0000
  Pd  Pd3       1.0  0.34675444  0.05060814499999998  0.4575218079891253  1.0000
  Pd  Pd4       1.0  0.6527155700000002  0.9602198949999999  0.5229324727815842  1.0000
  Pd  Pd5       1.0  0.9868976100000001  0.290841315  0.49179179040957705  1.0000
  Pd  Pd6       1.0  0.32023094  0.624174645  0.4617601443372063  1.0000
  Pd  Pd7       1.0  0.9732179400000002  0.297681145  0.4461280881160555  1.0000
  Pd  Pd8       1.0  0.30956526  0.6351609650000001  0.5058137995672208  1.0000
  Pd  Pd9       1.0  0.6398846100000001  0.964347815  0.47615973418842616  1.0000
  Pd  Pd10      1.0  0.36376395  0.03565218499999998  0.5038294440584247  1.0000
  Pd  Pd11      1.0  0.6937674400000002  0.377101645  0.4731538678140738  1.0000
  Pd  Pd12      1.0  0.04806091999999996  0.755334375  0.5290873880156285  1.0000
