data_image0
_chemical_formula_structural       COCa4Pb2
_chemical_formula_sum              "C1 O1 Ca4 Pb2"
_cell_length_a       5.48614381
_cell_length_b       5.48614381
_cell_length_c       101.03431592
_cell_angle_alpha    90.0
_cell_angle_beta     90.0
_cell_angle_gamma    90.0

_space_group_name_H-M_alt    "P 1"
_space_group_IT_number       1

loop_
  _space_group_symop_operation_xyz
  'x, y, z'

loop_
  _atom_site_type_symbol
  _atom_site_label
  _atom_site_symmetry_multiplicity
  _atom_site_fract_x
  _atom_site_fract_y
  _atom_site_fract_z
  _atom_site_occupancy
  C   C1        1.0  6.030000000035095e-06  0.24999942999999997  0.5264360791805068  1.0000
  O   O1        1.0  0.99999716  0.25000223  0.5387312036929167  1.0000
  Ca  Ca1       1.0  2.840000000035094e-06  0.7499995199999999  0.5188471170028772  1.0000
  Ca  Ca2       1.0  0.50000188  0.24999937999999997  0.5188469757064751  1.0000
  Ca  Ca3       1.0  0.50000293  0.25000062  0.4804666770205612  1.0000
  Ca  Ca4       1.0  2.9300000000350946e-06  0.7500006199999999  0.4804666770205612  1.0000
  Pb  Pb1       1.0  2.9300000000350946e-06  0.25000062  0.46126879630708334  1.0000
  Pb  Pb2       1.0  0.50000221  0.7499997799999999  0.5012954868130196  1.0000
