data_image0
_chemical_formula_structural       COAu8Cu4Zn4Au8Cu4Zn4
_chemical_formula_sum              "C1 O1 Au16 Cu8 Zn8"
_cell_length_a       8.98512916
_cell_length_b       6.35344576
_cell_length_c       105.94051665
_cell_angle_alpha    90.0
_cell_angle_beta     90.0
_cell_angle_gamma    90.0

_space_group_name_H-M_alt    "P 1"
_space_group_IT_number       1

loop_
  _space_group_symop_operation_xyz
  'x, y, z'

loop_
  _atom_site_type_symbol
  _atom_site_label
  _atom_site_symmetry_multiplicity
  _atom_site_fract_x
  _atom_site_fract_y
  _atom_site_fract_z
  _atom_site_occupancy
  C   C1        1.0  0.255148975  1.7499999998184188e-07  0.5352280736274982  1.0000
  O   O1        1.0  0.255148145  2.8499999998184186e-07  0.5461724028840534  1.0000
  Au  Au1       1.0  0.255149285  0.7500001749999999  0.4538275971159465  1.0000
  Au  Au2       1.0  0.255148735  0.7591746249999998  0.4960488201697777  1.0000
  Au  Au3       1.0  0.005149284999999996  0.7500001749999999  0.4750308379689823  1.0000
  Au  Au4       1.0  0.999144885  0.7402070049999999  0.5170566858802973  1.0000
  Au  Au5       1.0  0.9991451949999999  0.2597929749999999  0.5170566010673339  1.0000
  Au  Au6       1.0  0.005149284999999996  0.250000175  0.4750308379689823  1.0000
  Au  Au7       1.0  0.255149285  0.250000175  0.4538275971159465  1.0000
  Au  Au8       1.0  0.25514872499999997  0.24082573499999996  0.4960488269548148  1.0000
  Cu  Cu1       1.0  0.010318754999999995  0.5000005049999999  0.49579006599596287  1.0000
  Cu  Cu2       1.0  0.005149284999999996  0.5000001749999999  0.4538275971159465  1.0000
  Cu  Cu3       1.0  0.255149695  0.999999585  0.5175641286254292  1.0000
  Cu  Cu4       1.0  0.255149285  1.7499999998184188e-07  0.4750308379689823  1.0000
  Zn  Zn1       1.0  0.0008548049999999956  0.9999997849999999  0.4966367368471136  1.0000
  Zn  Zn2       1.0  0.005149284999999996  1.7499999998184188e-07  0.4538275971159465  1.0000
  Zn  Zn3       1.0  0.255148395  0.5000003449999999  0.5168457831804396  1.0000
  Zn  Zn4       1.0  0.255149285  0.5000001749999999  0.4750308379689823  1.0000
  Au  Au9       1.0  0.7551492849999999  0.7500001749999999  0.4538275971159465  1.0000
  Au  Au10      1.0  0.7551495949999999  0.742776605  0.4955874071161488  1.0000
  Au  Au11      1.0  0.5051492849999999  0.7500001749999999  0.4750308379689823  1.0000
  Au  Au12      1.0  0.5111530049999999  0.7402006149999999  0.5170563466284437  1.0000
  Au  Au13      1.0  0.5111527049999999  0.25979937499999994  0.5170562686005173  1.0000
  Au  Au14      1.0  0.5051492849999999  0.250000175  0.4750308379689823  1.0000
  Au  Au15      1.0  0.7551492849999999  0.250000175  0.4538275971159465  1.0000
  Au  Au16      1.0  0.7551496249999999  0.25722380499999997  0.49558744782637126  1.0000
  Cu  Cu5       1.0  0.49998106499999995  0.5000004549999999  0.4957890618104761  1.0000
  Cu  Cu6       1.0  0.5051492849999999  0.5000001749999999  0.4538275971159465  1.0000
  Cu  Cu7       1.0  0.7551488149999999  0.999999825  0.5162094857962549  1.0000
  Cu  Cu8       1.0  0.7551492849999999  1.7499999998184188e-07  0.4750308379689823  1.0000
  Zn  Zn5       1.0  0.5094435449999999  0.999999825  0.49663732375282044  1.0000
  Zn  Zn6       1.0  0.5051492849999999  1.7499999998184188e-07  0.4538275971159465  1.0000
  Zn  Zn7       1.0  0.755149845  0.5000000649999999  0.5187524396632782  1.0000
  Zn  Zn8       1.0  0.7551492849999999  0.5000001749999999  0.4750308379689823  1.0000
