data_image0
_chemical_formula_structural       COCu18Ge6Cu18Ge6
_chemical_formula_sum              "C1 O1 Cu36 Ge12"
_cell_length_a       4.62103437
_cell_length_b       10.137278659689432
_cell_length_c       104.46242795
_cell_angle_alpha    96.36967807968273
_cell_angle_beta     90.0
_cell_angle_gamma    90.0

_space_group_name_H-M_alt    "P 1"
_space_group_IT_number       1

loop_
  _space_group_symop_operation_xyz
  'x, y, z'

loop_
  _atom_site_type_symbol
  _atom_site_label
  _atom_site_symmetry_multiplicity
  _atom_site_fract_x
  _atom_site_fract_y
  _atom_site_fract_z
  _atom_site_occupancy
  C   C1        1.0  0.41585863  0.349105655  0.5635650515617614  1.0000
  O   O1        1.0  0.48795790999999994  0.388581005  0.5739216579021572  1.0000
  Cu  Cu1       1.0  0.17427475  0.875166885  0.4591126487043035  1.0000
  Cu  Cu2       1.0  0.17427475  0.20850022499999996  0.4371191400655697  1.0000
  Cu  Cu3       1.0  0.17427475  0.541833555  0.48110615404401114  1.0000
  Cu  Cu4       1.0  0.83759233  0.541833555  0.44811589273542357  1.0000
  Cu  Cu5       1.0  0.83759233  0.875166885  0.4261223873957159  1.0000
  Cu  Cu6       1.0  0.83759233  0.20850022499999996  0.4701094013741573  1.0000
  Cu  Cu7       1.0  0.34089754999999994  0.624833115  0.45906860340643046  1.0000
  Cu  Cu8       1.0  0.34089754999999994  0.958166445  0.4370750947676967  1.0000
  Cu  Cu9       1.0  0.34089754999999994  0.291499775  0.48106210874613803  1.0000
  Cu  Cu10      1.0  0.34089754999999994  0.7921673349999999  0.4811501993418842  1.0000
  Cu  Cu11      1.0  0.34089754999999994  0.125500665  0.4591566940021765  1.0000
  Cu  Cu12      1.0  0.34089754999999994  0.458833995  0.4371631853634429  1.0000
  Cu  Cu13      1.0  0.67096953  0.7921673349999999  0.44815993803329657  1.0000
  Cu  Cu14      1.0  0.67096953  0.125500665  0.426166432693589  1.0000
  Cu  Cu15      1.0  0.67096953  0.458833995  0.4701534466720304  1.0000
  Cu  Cu16      1.0  0.67096953  0.958166445  0.47006535607628425  1.0000
  Cu  Cu17      1.0  0.67096953  0.291499775  0.44807184743755046  1.0000
  Cu  Cu18      1.0  0.67096953  0.624833115  0.4260783420978429  1.0000
  Ge  Ge1       1.0  0.83243694  0.708500225  0.4701094013741573  1.0000
  Ge  Ge2       1.0  0.83243694  0.041833554999999994  0.44811589273542357  1.0000
  Ge  Ge3       1.0  0.83243694  0.375166885  0.42612238739571595  1.0000
  Ge  Ge4       1.0  0.17943014000000004  0.708500225  0.4371191400655697  1.0000
  Ge  Ge5       1.0  0.17943014000000004  0.041833554999999994  0.4811061540440111  1.0000
  Ge  Ge6       1.0  0.17943014000000004  0.375166885  0.4591126487043035  1.0000
  Cu  Cu19      1.0  0.16240767000000003  0.880765265  0.5241992770981395  1.0000
  Cu  Cu20      1.0  0.17427475  0.20850022499999996  0.5030996626827449  1.0000
  Cu  Cu21      1.0  0.16401815  0.5497531150000001  0.5442065707655023  1.0000
  Cu  Cu22      1.0  0.83759233  0.541833555  0.5140964153525988  1.0000
  Cu  Cu23      1.0  0.83759233  0.875166885  0.4921029100128911  1.0000
  Cu  Cu24      1.0  0.83418646  0.196844375  0.5361421937613498  1.0000
  Cu  Cu25      1.0  0.35055150999999996  0.6277382549999999  0.5239287932446965  1.0000
  Cu  Cu26      1.0  0.34089754999999994  0.958166445  0.5030556173848717  1.0000
  Cu  Cu27      1.0  0.32231570000000004  0.28735761499999996  0.5467314276303369  1.0000
  Cu  Cu28      1.0  0.23927168999999998  0.7992082049999999  0.5456027153250557  1.0000
  Cu  Cu29      1.0  0.35119263999999994  0.12560533499999998  0.5254510100878407  1.0000
  Cu  Cu30      1.0  0.34089754999999994  0.458833995  0.5031437079806179  1.0000
  Cu  Cu31      1.0  0.67096953  0.7921673349999999  0.5141404606504717  1.0000
  Cu  Cu32      1.0  0.67096953  0.125500665  0.49214695531076413  1.0000
  Cu  Cu33      1.0  0.66953627  0.448963695  0.5354991838772102  1.0000
  Cu  Cu34      1.0  0.66685268  0.9459690650000001  0.5374054139600384  1.0000
  Cu  Cu35      1.0  0.67096953  0.291499775  0.5140523700547256  1.0000
  Cu  Cu36      1.0  0.67096953  0.624833115  0.49205886471501803  1.0000
  Ge  Ge7       1.0  0.73572495  0.699838135  0.5407408052559376  1.0000
  Ge  Ge8       1.0  0.83243694  0.041833554999999994  0.5140964153525985  1.0000
  Ge  Ge9       1.0  0.83243694  0.375166885  0.492102910012891  1.0000
  Ge  Ge10      1.0  0.17943014000000004  0.708500225  0.5030996626827448  1.0000
  Ge  Ge11      1.0  0.17187599  0.043843215  0.5465698215362907  1.0000
  Ge  Ge12      1.0  0.16998767  0.372793165  0.5252798533131455  1.0000
