data_image0
_chemical_formula_structural       CONa24Cu8Sn8Se32
_chemical_formula_sum              "C1 O1 Na24 Cu8 Sn8 Se32"
_cell_length_a       13.31033102628911
_cell_length_b       12.56733731073964
_cell_length_c       107.70201191999999
_cell_angle_alpha    67.58822403518856
_cell_angle_beta     90.26723978891715
_cell_angle_gamma    89.73276020402106

_space_group_name_H-M_alt    "P 1"
_space_group_IT_number       1

loop_
  _space_group_symop_operation_xyz
  'x, y, z'

loop_
  _atom_site_type_symbol
  _atom_site_label
  _atom_site_symmetry_multiplicity
  _atom_site_fract_x
  _atom_site_fract_y
  _atom_site_fract_z
  _atom_site_occupancy
  C   C1        1.0  0.56932068  0.22376010500000007  0.5550726594501265  1.0000
  O   O1        1.0  0.54593889  0.21952270500000007  0.5655018178040322  1.0000
  Na  Na1       1.0  0.4832173  0.8500657750000001  0.4947245998973815  1.0000
  Na  Na2       1.0  0.4832173  0.35006577500000013  0.4363815077863999  1.0000
  Na  Na3       1.0  0.62378184  0.4694578350000001  0.4765650737116416  1.0000
  Na  Na4       1.0  0.61221674  0.9705656750000001  0.5340499517388222  1.0000
  Na  Na5       1.0  0.01892031000000003  0.07496378500000005  0.5277236723184799  1.0000
  Na  Na6       1.0  0.01678270000000003  0.5755569150000001  0.46841289930931473  1.0000
  Na  Na7       1.0  0.37621816  0.05941684500000006  0.44027741459242065  1.0000
  Na  Na8       1.0  0.37621816  0.5594168450000001  0.4986205067034022  1.0000
  Na  Na9       1.0  0.12466737000000004  0.19967779500000002  0.4523069987061054  1.0000
  Na  Na10      1.0  0.12466737000000004  0.6996777950000002  0.5106500943176726  1.0000
  Na  Na11      1.0  0.62466737  0.8168363850000001  0.46597778690200053  1.0000
  Na  Na12      1.0  0.61691491  0.31448937500000007  0.5283794055261485  1.0000
  Na  Na13      1.0  0.9832173  0.4533177650000001  0.5067726811057289  1.0000
  Na  Na14      1.0  0.9832173  0.9533177650000001  0.44842958899474744  1.0000
  Na  Na15      1.0  0.37533263000000006  0.7120382950000002  0.450864697901476  1.0000
  Na  Na16      1.0  0.37533263000000006  0.21203829500000007  0.5092077935130432  1.0000
  Na  Na17      1.0  0.12378184000000005  0.6089448150000001  0.4344981821959678  1.0000
  Na  Na18      1.0  0.12378184000000005  0.10894481500000006  0.492841277807535  1.0000
  Na  Na19      1.0  0.8762181600000001  0.9199298650000002  0.48234430260750866  1.0000
  Na  Na20      1.0  0.8859045200000001  0.4622880550000001  0.5363309438609893  1.0000
  Na  Na21      1.0  0.87533263  0.32919688500000005  0.4645354895979569  1.0000
  Na  Na22      1.0  0.8593495  0.8553375450000001  0.5243636841745143  1.0000
  Na  Na23      1.0  0.51022874  0.6730488950000001  0.5381401655534435  1.0000
  Na  Na24      1.0  0.5167827  0.17880890500000002  0.4804609805176623  1.0000
  Cu  Cu1       1.0  0.78604267  0.6119782850000001  0.4881444440021486  1.0000
  Cu  Cu2       1.0  0.8148945600000002  0.07127680500000004  0.5389457868381881  1.0000
  Cu  Cu3       1.0  0.7139573300000001  0.5191649850000001  0.4406313798126929  1.0000
  Cu  Cu4       1.0  0.7139573300000001  0.019164985000000054  0.4989744719236745  1.0000
  Cu  Cu5       1.0  0.22738293000000007  0.9604766050000001  0.5410966306858538  1.0000
  Cu  Cu6       1.0  0.21395733000000003  0.41689638500000004  0.4870411399134807  1.0000
  Cu  Cu7       1.0  0.28604267000000005  0.00970968500000005  0.47621110849136933  1.0000
  Cu  Cu8       1.0  0.27448488000000004  0.5087456450000001  0.5279364834229147  1.0000
  Sn  Sn1       1.0  0.69523396  0.6527386850000001  0.5136184754436922  1.0000
  Sn  Sn2       1.0  0.69523396  0.15273868500000007  0.4552753833327107  1.0000
  Sn  Sn3       1.0  0.19523396000000007  0.7913973550000001  0.47145493275776135  1.0000
  Sn  Sn4       1.0  0.19592158000000007  0.2771293550000001  0.5307045435341583  1.0000
  Sn  Sn5       1.0  0.8047660400000001  0.7374773250000001  0.4453875520457152  1.0000
  Sn  Sn6       1.0  0.8047660400000001  0.23747732500000004  0.5037306476572824  1.0000
  Sn  Sn7       1.0  0.30476604  0.8761359950000002  0.5199102005829187  1.0000
  Sn  Sn8       1.0  0.30476604  0.3761359950000001  0.4615671049713515  1.0000
  Se  Se1       1.0  0.89797216  0.5728267250000001  0.4409272283097269  1.0000
  Se  Se2       1.0  0.89797216  0.07282672500000005  0.4992703239212941  1.0000
  Se  Se3       1.0  0.35728636  0.18455793500000006  0.4593310568685588  1.0000
  Se  Se4       1.0  0.35728636  0.6845579350000001  0.517674152480126  1.0000
  Se  Se5       1.0  0.65923468  0.9902903150000002  0.4784360457352559  1.0000
  Se  Se6       1.0  0.67069969  0.5035598950000001  0.537275730928913  1.0000
  Se  Se7       1.0  0.38301003  0.8527574450000002  0.46923630006866046  1.0000
  Se  Se8       1.0  0.38064346  0.34940191500000006  0.5269834489751603  1.0000
  Se  Se9       1.0  0.8572863600000001  0.7566402350000002  0.46774206807566576  1.0000
  Se  Se10      1.0  0.8447719  0.26251461500000006  0.5262424380000656  1.0000
  Se  Se11      1.0  0.60202784  0.6145137250000001  0.49440602559819935  1.0000
  Se  Se12      1.0  0.60202784  0.11451372500000005  0.4360629334872179  1.0000
  Se  Se13      1.0  0.34076532  0.5385843550000001  0.43840644256880623  1.0000
  Se  Se14      1.0  0.34076532  0.03858435500000005  0.49674953818037343  1.0000
  Se  Se15      1.0  0.64271364  0.34431673500000004  0.4575114314355034  1.0000
  Se  Se16      1.0  0.64271364  0.8443167350000002  0.5158545235464849  1.0000
  Se  Se17      1.0  0.61698997  0.6761172250000002  0.4476061882354017  1.0000
  Se  Se18      1.0  0.61698997  0.17611722500000004  0.5059492803463832  1.0000
  Se  Se19      1.0  0.14271364000000003  0.7722344350000001  0.44910042022839647  1.0000
  Se  Se20      1.0  0.14271364000000003  0.27223443500000005  0.5074435158399636  1.0000
  Se  Se21      1.0  0.15161929000000005  0.08564683500000006  0.549578255707029  1.0000
  Se  Se22      1.0  0.15923468000000002  0.5929105950000001  0.49041041511122013  1.0000
  Se  Se23      1.0  0.84076532  0.4359640750000001  0.48477516880440924  1.0000
  Se  Se24      1.0  0.7977217500000001  0.8813201450000002  0.5485763250786825  1.0000
  Se  Se25      1.0  0.39827546  0.8939785750000002  0.5398915750736124  1.0000
  Se  Se26      1.0  0.39797216  0.4143609450000001  0.48077955481684437  1.0000
  Se  Se27      1.0  0.12078873000000002  0.8680474550000001  0.5268586495955574  1.0000
  Se  Se28      1.0  0.11698997000000003  0.35712231500000013  0.4687269823570865  1.0000
  Se  Se29      1.0  0.10202784000000004  0.9560479449999999  0.47591525999433526  1.0000
  Se  Se30      1.0  0.10542078000000005  0.4472611150000001  0.5342286881423773  1.0000
  Se  Se31      1.0  0.88301003  0.6717523550000001  0.5064586015585428  1.0000
  Se  Se32      1.0  0.88301003  0.17175235500000005  0.44811550594697575  1.0000
