data_image0
_chemical_formula_structural       COAg2Au2Ca4
_chemical_formula_sum              "C1 O1 Ag2 Au2 Ca4"
_cell_length_a       5.28668252
_cell_length_b       5.28668252
_cell_length_c       99.90599248
_cell_angle_alpha    90.0
_cell_angle_beta     90.0
_cell_angle_gamma    90.0

_space_group_name_H-M_alt    "P 1"
_space_group_IT_number       1

loop_
  _space_group_symop_operation_xyz
  'x, y, z'

loop_
  _atom_site_type_symbol
  _atom_site_label
  _atom_site_symmetry_multiplicity
  _atom_site_fract_x
  _atom_site_fract_y
  _atom_site_fract_z
  _atom_site_occupancy
  C   C1        1.0  0.999962405  0.25007619  0.5294238980385136  1.0000
  O   O1        1.0  4.743500000001035e-05  0.2500023699999999  0.541385430834494  1.0000
  Ag  Ag1       1.0  0.500037595  0.7500046799999999  0.4586145691655061  1.0000
  Ag  Ag2       1.0  4.494500000001035e-05  0.24999002999999995  0.49479585971085177  1.0000
  Au  Au1       1.0  3.759500000001035e-05  0.25000468  0.4586145691655061  1.0000
  Au  Au2       1.0  0.500032295  0.75000997  0.4975264303524246  1.0000
  Ca  Ca1       1.0  3.759500000001035e-05  0.7500046799999999  0.47732340217543967  1.0000
  Ca  Ca2       1.0  0.500037595  0.25000468  0.47732340217543967  1.0000
  Ca  Ca3       1.0  0.500062145  0.25001972999999994  0.5140343831877892  1.0000
  Ca  Ca4       1.0  4.7375000000010354e-05  0.7499782899999999  0.5140341736488595  1.0000
