data_image0
_chemical_formula_structural       COAg2Au2Ca4
_chemical_formula_sum              "C1 O1 Ag2 Au2 Ca4"
_cell_length_a       5.28668252
_cell_length_b       5.28668252
_cell_length_c       99.90599248
_cell_angle_alpha    90.0
_cell_angle_beta     90.0
_cell_angle_gamma    90.0

_space_group_name_H-M_alt    "P 1"
_space_group_IT_number       1

loop_
  _space_group_symop_operation_xyz
  'x, y, z'

loop_
  _atom_site_type_symbol
  _atom_site_label
  _atom_site_symmetry_multiplicity
  _atom_site_fract_x
  _atom_site_fract_y
  _atom_site_fract_z
  _atom_site_occupancy
  C   C1        1.0  0.75001562  0.74998571  0.5299762636111255  1.0000
  O   O1        1.0  0.74999381  0.74997942  0.5418703997070708  1.0000
  Ag  Ag1       1.0  0.74998438  0.75000173  0.4581296002929292  1.0000
  Ag  Ag2       1.0  0.24998585  0.24999812  0.4960953363373491  1.0000
  Au  Au1       1.0  0.24998438  0.25000173  0.4581296002929292  1.0000
  Au  Au2       1.0  0.74998599  0.75000188  0.4939740570087641  1.0000
  Ca  Ca1       1.0  0.24998438  0.75000173  0.4768384333028628  1.0000
  Ca  Ca2       1.0  0.74998438  0.25000173  0.4768384333028628  1.0000
  Ca  Ca3       1.0  0.7499747600000001  0.25001253  0.5131866036452438  1.0000
  Ca  Ca4       1.0  0.24998499000000002  0.7499803  0.5131866395662031  1.0000
