data_image0
_chemical_formula_structural       COCu24Ge8
_chemical_formula_sum              "C1 O1 Cu24 Ge8"
_cell_length_a       8.298211630205758
_cell_length_b       7.1021801313212585
_cell_length_c       99.40851208000001
_cell_angle_alpha    85.75345106747504
_cell_angle_beta     87.73747460690727
_cell_angle_gamma    97.53964889003437

_space_group_name_H-M_alt    "P 1"
_space_group_IT_number       1

loop_
  _space_group_symop_operation_xyz
  'x, y, z'

loop_
  _atom_site_type_symbol
  _atom_site_label
  _atom_site_symmetry_multiplicity
  _atom_site_fract_x
  _atom_site_fract_y
  _atom_site_fract_z
  _atom_site_occupancy
  C   C1        1.0  0.9890236699999999  0.3873035700000001  0.5359667950896715  1.0000
  O   O1        1.0  0.98289147  0.4169692600000001  0.5472677581753046  1.0000
  Cu  Cu1       1.0  0.08589575999999995  0.71925912  0.5119223096660906  1.0000
  Cu  Cu2       1.0  0.45793529999999993  0.20856668000000012  0.49422620261713185  1.0000
  Cu  Cu3       1.0  0.8276752599999999  0.7064122400000001  0.4758017469659144  1.0000
  Cu  Cu4       1.0  0.20267525999999994  0.20641224000000008  0.45731206266683927  1.0000
  Cu  Cu5       1.0  0.016952289999999943  0.2900582200000001  0.4916546632415155  1.0000
  Cu  Cu6       1.0  0.38891934999999994  0.7880710300000001  0.4727820590597812  1.0000
  Cu  Cu7       1.0  0.7639193499999999  0.2880710300000001  0.45429237476070605  1.0000
  Cu  Cu8       1.0  0.65863823  0.7900321800000001  0.5105123750919279  1.0000
  Cu  Cu9       1.0  0.92384722  0.9160091700000002  0.49518813361990294  1.0000
  Cu  Cu10      1.0  0.29603330999999994  0.4152243000000001  0.4773618799019249  1.0000
  Cu  Cu11      1.0  0.6710333099999999  0.9152243000000002  0.4588721956028498  1.0000
  Cu  Cu12      1.0  0.5479882999999999  0.41162190000000004  0.5138927656760665  1.0000
  Cu  Cu13      1.0  0.10928430999999994  0.6642229700000002  0.4865696953492726  1.0000
  Cu  Cu14      1.0  0.48428430999999994  0.1642229700000001  0.4680800110501975  1.0000
  Cu  Cu15      1.0  0.3799336199999999  0.68608563  0.5209007406108493  1.0000
  Cu  Cu16      1.0  0.7406827499999998  0.1638289500000001  0.5056035207030463  1.0000
  Cu  Cu17      1.0  0.18775055999999996  0.08484443000000011  0.508676417483068  1.0000
  Cu  Cu18      1.0  0.5455613  0.5792589600000001  0.4897116104228458  1.0000
  Cu  Cu19      1.0  0.9205613  0.07925896000000007  0.4712219261237707  1.0000
  Cu  Cu20      1.0  0.29556129999999997  0.5792589600000002  0.45273224182469546  1.0000
  Cu  Cu21      1.0  0.36427429999999994  0.8450003300000001  0.4979667663347173  1.0000
  Cu  Cu22      1.0  0.7323103  0.3302602900000001  0.4805037949754982  1.0000
  Cu  Cu23      1.0  0.10731029999999994  0.8302602899999999  0.4620141106764231  1.0000
  Cu  Cu24      1.0  0.9952261299999999  0.3318329000000001  0.5178423722851625  1.0000
  Ge  Ge1       1.0  0.19948607999999995  0.035493330000000094  0.48212222218816686  1.0000
  Ge  Ge2       1.0  0.5744860799999999  0.5354933300000001  0.4636325378890917  1.0000
  Ge  Ge3       1.0  0.46919536999999994  0.04101526000000009  0.5191752122716718  1.0000
  Ge  Ge4       1.0  0.8241075499999999  0.53745902  0.501931214983194  1.0000
  Ge  Ge5       1.0  0.9124655  0.9645066699999999  0.5207179678627908  1.0000
  Ge  Ge6       1.0  0.27201785999999994  0.4599098500000002  0.5044841345071339  1.0000
  Ge  Ge7       1.0  0.64210853  0.9589899300000002  0.4849512681366039  1.0000
  Ge  Ge8       1.0  0.01710853000000001  0.4589899300000001  0.46646158383752867  1.0000
