data_image0
_chemical_formula_structural       COAl20Au20
_chemical_formula_sum              "C1 O1 Al20 Au20"
_cell_length_a       9.411754799541937
_cell_length_b       9.343576015122595
_cell_length_c       108.32192809
_cell_angle_alpha    89.63124509940884
_cell_angle_beta     100.3543821878474
_cell_angle_gamma    60.455306025706115

_space_group_name_H-M_alt    "P 1"
_space_group_IT_number       1

loop_
  _space_group_symop_operation_xyz
  'x, y, z'

loop_
  _atom_site_type_symbol
  _atom_site_label
  _atom_site_symmetry_multiplicity
  _atom_site_fract_x
  _atom_site_fract_y
  _atom_site_fract_z
  _atom_site_occupancy
  C   C1        1.0  0.874634655  0.31779756  0.5448466745555381  1.0000
  O   O1        1.0  0.842803275  0.31060788  0.5546414711099237  1.0000
  Al  Al1       1.0  0.375602445  0.6776520199999999  0.4840853673276403  1.0000
  Al  Al2       1.0  0.7748689950000001  0.49463202  0.5016662224213613  1.0000
  Al  Al3       1.0  0.975602445  0.87765202  0.46639646132046514  1.0000
  Al  Al4       1.0  0.21358670499999993  0.27406571  0.519191205336568  1.0000
  Al  Al5       1.0  0.5756024449999999  0.07765201999999999  0.4487075553132899  1.0000
  Al  Al6       1.0  0.45454710499999984  0.91136052  0.5205743115106125  1.0000
  Al  Al7       1.0  0.8276637849999999  0.72234798  0.44834292328042047  1.0000
  Al  Al8       1.0  0.024397554999999935  0.12629009  0.5011305705074333  1.0000
  Al  Al9       1.0  0.2276637849999999  0.52234798  0.4660318292875956  1.0000
  Al  Al10      1.0  0.627663785  0.32234798  0.48372073529477083  1.0000
  Al  Al11      1.0  0.34982237499999996  0.12704015  0.4886455779096337  1.0000
  Al  Al12      1.0  0.758937965  0.90848856  0.5071645358311956  1.0000
  Al  Al13      1.0  0.949822375  0.32704015  0.47095667190245855  1.0000
  Al  Al14      1.0  0.14755095499999987  0.72202028  0.5236162939033537  1.0000
  Al  Al15      1.0  0.5498223749999999  0.5270401499999999  0.45326776589528334  1.0000
  Al  Al16      1.0  0.4355369049999999  0.46292465  0.5160272968525007  1.0000
  Al  Al17      1.0  0.9248556950000001  0.32982444  0.5275190503024348  1.0000
  Al  Al18      1.0  0.05344385499999993  0.67295985  0.4968494307199527  1.0000
  Al  Al19      1.0  0.25344385499999994  0.07295984999999999  0.4614716187056023  1.0000
  Al  Al20      1.0  0.6534438549999999  0.87295985  0.47916052471277737  1.0000
  Au  Au1       1.0  0.262891875  0.7842971099999999  0.5052608946822966  1.0000
  Au  Au2       1.0  0.6310360450000001  0.58978655  0.5218527382766879  1.0000
  Au  Au3       1.0  0.8587308750000001  0.98635441  0.48706976171798455  1.0000
  Au  Au4       1.0  0.05873087499999992  0.38635441  0.4516919497036341  1.0000
  Au  Au5       1.0  0.4587308749999999  0.18635441  0.46938085571080923  1.0000
  Au  Au6       1.0  0.544535355  0.8136455899999999  0.4984252469116018  1.0000
  Au  Au7       1.0  0.9677012449999999  0.58087343  0.5181067657271109  1.0000
  Au  Au8       1.0  0.14453535499999995  0.013645589999999987  0.4807363409044267  1.0000
  Au  Au9       1.0  0.344535355  0.41364559  0.44535852889007616  1.0000
  Au  Au10      1.0  0.7445353549999999  0.21364559  0.4630474348972514  1.0000
  Au  Au11      1.0  0.15614329499999996  0.03168741999999999  0.5250697983855257  1.0000
  Au  Au12      1.0  0.5399858649999999  0.82352291  0.4550077351346791  1.0000
  Au  Au13      1.0  0.731677815  0.25376881  0.5084613095305816  1.0000
  Au  Au14      1.0  0.939985865  0.62352291  0.47269664114185433  1.0000
  Au  Au15      1.0  0.3399858649999999  0.42352291  0.49038554714902954  1.0000
  Au  Au16      1.0  0.663280365  0.57647709  0.47742055547338164  1.0000
  Au  Au17      1.0  0.06328036499999992  0.37647709  0.49510946148055685  1.0000
  Au  Au18      1.0  0.2632803649999999  0.77647709  0.4597316494662065  1.0000
  Au  Au19      1.0  0.5168099349999998  0.14880304  0.5176589639959769  1.0000
  Au  Au20      1.0  0.891474105  0.97542528  0.5274170030036793  1.0000
