data_image0
_chemical_formula_structural       COCa10In4Sb12Ca10In4Sb12
_chemical_formula_sum              "C1 O1 Ca20 In8 Sb24"
_cell_length_a       13.214748078677728
_cell_length_b       17.306898444613374
_cell_length_c       107.32059186000001
_cell_angle_alpha    122.62238904488841
_cell_angle_beta     110.67216020190686
_cell_angle_gamma    79.0289367124432

_space_group_name_H-M_alt    "P 1"
_space_group_IT_number       1

loop_
  _space_group_symop_operation_xyz
  'x, y, z'

loop_
  _atom_site_type_symbol
  _atom_site_label
  _atom_site_symmetry_multiplicity
  _atom_site_fract_x
  _atom_site_fract_y
  _atom_site_fract_z
  _atom_site_occupancy
  C   C1        1.0  0.07137800999999998  0.10105453499999997  0.5410967608608556  1.0000
  O   O1        1.0  0.08987305  0.14014129499999997  0.5544473048028737  1.0000
  Ca  Ca1       1.0  0.69838851  0.992684045  0.4519965056609678  1.0000
  Ca  Ca2       1.0  0.84337951  0.49268404499999996  0.4582990606196842  1.0000
  Ca  Ca3       1.0  0.42956626000000003  0.755319675  0.4631439818685324  1.0000
  Ca  Ca4       1.0  0.92956626  0.7593122349999999  0.4852253748774391  1.0000
  Ca  Ca5       1.0  0.6122017599999999  0.259312235  0.47142999085133364  1.0000
  Ca  Ca6       1.0  0.19838851  0.5219478649999999  0.47627491210018186  1.0000
  Ca  Ca7       1.0  0.11220175999999998  0.25531967499999997  0.4493485978424269  1.0000
  Ca  Ca8       1.0  0.020884009999999984  0.007315954999999979  0.467286986359933  1.0000
  Ca  Ca9       1.0  0.34337951  0.02194786499999998  0.4825774635814116  1.0000
  Ca  Ca10      1.0  0.52088401  0.5073159549999999  0.44555269519712615  1.0000
  In  In1       1.0  0.6841393899999999  0.7942004549999999  0.45585580636421874  1.0000
  In  In2       1.0  0.18413939  0.720431455  0.4711768298278693  1.0000
  In  In3       1.0  0.8576286300000001  0.29420045499999997  0.4633971394145102  1.0000
  In  In4       1.0  0.35762863  0.22043145499999997  0.47871816287816066  1.0000
  Sb  Sb1       1.0  0.98378294  0.603186125  0.45227464547057983  1.0000
  Sb  Sb2       1.0  0.87104698  0.9146676149999999  0.47445348808608745  1.0000
  Sb  Sb3       1.0  0.68253659  0.677402955  0.46736638433366573  1.0000
  Sb  Sb4       1.0  0.48378294  0.911445785  0.457339573385781  1.0000
  Sb  Sb5       1.0  0.67072103  0.41466761499999993  0.4657456043406131  1.0000
  Sb  Sb6       1.0  0.17072102999999997  0.09996429499999998  0.46012048115629195  1.0000
  Sb  Sb7       1.0  0.05798507999999998  0.411445785  0.4822993272492862  1.0000
  Sb  Sb8       1.0  0.18253658999999997  0.8372289549999999  0.45952691244840593  1.0000
  Sb  Sb9       1.0  0.85923143  0.17740295499999995  0.47504705679397347  1.0000
  Sb  Sb10      1.0  0.55798508  0.10318612499999998  0.47723439585659844  1.0000
  Sb  Sb11      1.0  0.3710469900000001  0.599964295  0.4688283649017663  1.0000
  Sb  Sb12      1.0  0.35923143  0.33722895499999994  0.4672075849087137  1.0000
  Ca  Ca11      1.0  0.69838851  0.992684045  0.49546508798658156  1.0000
  Ca  Ca12      1.0  0.83243759  0.493972645  0.5023614828971378  1.0000
  Ca  Ca13      1.0  0.43215443000000003  0.7468886949999999  0.506086705627577  1.0000
  Ca  Ca14      1.0  0.9108192  0.7590530149999999  0.5255308458368424  1.0000
  Ca  Ca15      1.0  0.6166380600000001  0.256669375  0.5138260085117257  1.0000
  Ca  Ca16      1.0  0.20713481999999994  0.509985985  0.5175398250861626  1.0000
  Ca  Ca17      1.0  0.11220175999999998  0.25531967499999997  0.49281718016804066  1.0000
  Ca  Ca18      1.0  0.01621705999999998  0.013166134999999978  0.510769259550236  1.0000
  Ca  Ca19      1.0  0.34040447  0.01500323499999998  0.5199050480201237  1.0000
  Ca  Ca20      1.0  0.52088401  0.5073159549999999  0.48902127752273983  1.0000
  In  In5       1.0  0.68784921  0.7947949149999999  0.501803798373333  1.0000
  In  In6       1.0  0.18810037  0.7137948249999999  0.5131718932848898  1.0000
  In  In7       1.0  0.8666277099999999  0.30965405499999993  0.5102290180991469  1.0000
  In  In8       1.0  0.36014415  0.20980961499999998  0.5185595458652228  1.0000
  Sb  Sb13      1.0  0.98378294  0.603186125  0.49574322779619356  1.0000
  Sb  Sb14      1.0  0.87771652  0.9087452149999999  0.5174391518494965  1.0000
  Sb  Sb15      1.0  0.68327115  0.686495475  0.5147401180231674  1.0000
  Sb  Sb16      1.0  0.49048916000000004  0.9060955949999999  0.49972318337403393  1.0000
  Sb  Sb17      1.0  0.66101594  0.40382340499999997  0.5073383017347083  1.0000
  Sb  Sb18      1.0  0.16755729  0.10618262499999997  0.5040213150645516  1.0000
  Sb  Sb19      1.0  0.04072465999999998  0.433392515  0.5225947447949693  1.0000
  Sb  Sb20      1.0  0.19076938  0.845293485  0.5052322732634383  1.0000
  Sb  Sb21      1.0  0.8551595000000001  0.17649148499999998  0.5180035896522512  1.0000
  Sb  Sb22      1.0  0.5555514199999999  0.09963927499999999  0.5223751728144395  1.0000
  Sb  Sb23      1.0  0.36665442  0.5979113249999999  0.5126225164765391  1.0000
  Sb  Sb24      1.0  0.37952076  0.3462180349999999  0.5128333877856306  1.0000
