data_image0
_chemical_formula_structural       COCa10In4Sb12Ca10In4Sb12
_chemical_formula_sum              "C1 O1 Ca20 In8 Sb24"
_cell_length_a       12.36392541
_cell_length_b       15.304900785550414
_cell_length_c       102.65551787999999
_cell_angle_alpha    107.7466829959504
_cell_angle_beta     90.0
_cell_angle_gamma    90.0

_space_group_name_H-M_alt    "P 1"
_space_group_IT_number       1

loop_
  _space_group_symop_operation_xyz
  'x, y, z'

loop_
  _atom_site_type_symbol
  _atom_site_label
  _atom_site_symmetry_multiplicity
  _atom_site_fract_x
  _atom_site_fract_y
  _atom_site_fract_z
  _atom_site_occupancy
  C   C1        1.0  0.013033885000000021  0.08010371999999998  0.5469665525056305  1.0000
  O   O1        1.0  0.01102187500000002  0.09524360999999998  0.5587568193692168  1.0000
  Ca  Ca1       1.0  0.6859910349999999  0.9900286  0.47633740242083905  1.0000
  Ca  Ca2       1.0  0.8309820349999999  0.4900286  0.45361541929758925  1.0000
  Ca  Ca3       1.0  0.41716878500000004  0.7526642299999999  0.4655506256044605  1.0000
  Ca  Ca4       1.0  0.917168785  0.7566567899999999  0.46573206155220775  1.0000
  Ca  Ca5       1.0  0.5998042849999999  0.25665678999999997  0.44301007842895795  1.0000
  Ca  Ca6       1.0  0.18599103500000003  0.51929242  0.4549452847358292  1.0000
  Ca  Ca7       1.0  0.09980428500000003  0.25266423  0.4428286424812107  1.0000
  Ca  Ca8       1.0  0.00848653500000002  0.004660509999999991  0.4770023367304979  1.0000
  Ca  Ca9       1.0  0.330982035  0.01929241999999999  0.477667267859079  1.0000
  Ca  Ca10      1.0  0.508486535  0.50466051  0.45428035042617043  1.0000
  In  In1       1.0  0.6717419149999999  0.7915450099999999  0.44459553709830785  1.0000
  In  In2       1.0  0.17174191500000002  0.7177760099999999  0.441243180630783  1.0000
  In  In3       1.0  0.845231155  0.29154500999999994  0.46731752022155776  1.0000
  In  In4       1.0  0.345231155  0.21777601  0.4639651669351106  1.0000
  Sb  Sb1       1.0  0.971385465  0.6005306800000001  0.48135905486052044  1.0000
  Sb  Sb2       1.0  0.8586495149999999  0.9120121699999999  0.4500700445784083  1.0000
  Sb  Sb3       1.0  0.670139115  0.6747475100000001  0.46200978073992566  1.0000
  Sb  Sb4       1.0  0.471385465  0.90879034  0.4499236322961478  1.0000
  Sb  Sb5       1.0  0.658323555  0.41201216999999996  0.4727920277016582  1.0000
  Sb  Sb6       1.0  0.158323555  0.09730884999999999  0.45849065945501016  1.0000
  Sb  Sb7       1.0  0.045587605000000024  0.40879034000000003  0.47264561541939765  1.0000
  Sb  Sb8       1.0  0.17013911499999998  0.83457351  0.46927290641674263  1.0000
  Sb  Sb9       1.0  0.8468339549999999  0.17474750999999997  0.4847317638631755  1.0000
  Sb  Sb10      1.0  0.545587605  0.10053067999999998  0.45863707173727064  1.0000
  Sb  Sb11      1.0  0.3586495150000001  0.5973088499999999  0.48121264257825985  1.0000
  Sb  Sb12      1.0  0.346833955  0.33457350999999996  0.4465509232934927  1.0000
  Ca  Ca11      1.0  0.6797684050000001  0.9953394899999999  0.5182080577237888  1.0000
  Ca  Ca12      1.0  0.8309820349999999  0.4900286  0.49905938554408896  1.0000
  Ca  Ca13      1.0  0.41616415500000004  0.7547768099999999  0.5091802800896538  1.0000
  Ca  Ca14      1.0  0.9164089649999998  0.7537654099999999  0.5104773104438654  1.0000
  Ca  Ca15      1.0  0.5998042849999999  0.25665678999999997  0.48845404467545755  1.0000
  Ca  Ca16      1.0  0.18599103500000003  0.51929242  0.5003892509823289  1.0000
  Ca  Ca17      1.0  0.09980428500000003  0.25266423  0.48827260872771033  1.0000
  Ca  Ca18      1.0  0.9915134649999999  0.043480929999999994  0.5208249617511818  1.0000
  Ca  Ca19      1.0  0.321093725  0.025109329999999992  0.5181536867437253  1.0000
  Ca  Ca20      1.0  0.508486535  0.50466051  0.49972431985374777  1.0000
  In  In5       1.0  0.6717419149999999  0.7915450099999999  0.4900395065258852  1.0000
  In  In6       1.0  0.17174191500000002  0.7177760099999999  0.4866871500583604  1.0000
  In  In7       1.0  0.7789978949999999  0.24660580000000001  0.5152790168091526  1.0000
  In  In8       1.0  0.337016765  0.24680565999999998  0.513997099755098  1.0000
  Sb  Sb13      1.0  0.00942370500000002  0.6129319000000001  0.5277614225588956  1.0000
  Sb  Sb14      1.0  0.8586495149999999  0.9120121699999999  0.49551401082490804  1.0000
  Sb  Sb15      1.0  0.6646530549999998  0.6990135799999999  0.5110040969111305  1.0000
  Sb  Sb16      1.0  0.471385465  0.90879034  0.49536759854264756  1.0000
  Sb  Sb17      1.0  0.6563347050000001  0.40902101  0.5169919985213753  1.0000
  Sb  Sb18      1.0  0.16049837500000003  0.10422132999999999  0.5030670281126058  1.0000
  Sb  Sb19      1.0  0.01664334500000002  0.42238508999999996  0.5165417233349717  1.0000
  Sb  Sb20      1.0  0.16517470500000003  0.84073488  0.5159142175855415  1.0000
  Sb  Sb21      1.0  0.8052502450000001  0.16667361999999997  0.5366553595298439  1.0000
  Sb  Sb22      1.0  0.526881715  0.10707890999999999  0.5051757867880609  1.0000
  Sb  Sb23      1.0  0.220380895  0.69591418  0.5277431281810379  1.0000
  Sb  Sb24      1.0  0.346833955  0.33457350999999996  0.49199488953999243  1.0000
