data_image0
_chemical_formula_structural       COCa10Al4Sb12Ca10Al4Sb12
_chemical_formula_sum              "C1 O1 Ca20 Al8 Sb24"
_cell_length_a       14.29015478
_cell_length_b       12.25778706
_cell_length_c       101.81973228
_cell_angle_alpha    90.0
_cell_angle_beta     90.0
_cell_angle_gamma    90.0

_space_group_name_H-M_alt    "P 1"
_space_group_IT_number       1

loop_
  _space_group_symop_operation_xyz
  'x, y, z'

loop_
  _atom_site_type_symbol
  _atom_site_label
  _atom_site_symmetry_multiplicity
  _atom_site_fract_x
  _atom_site_fract_y
  _atom_site_fract_z
  _atom_site_occupancy
  C   C1        1.0  0.807507065  0.09113970999999997  0.5407868257099075  1.0000
  O   O1        1.0  0.805803285  0.09452031999999998  0.5521188084497297  1.0000
  Ca  Ca1       1.0  0.8034388150000001  0.0862003  0.5148188089214686  1.0000
  Ca  Ca2       1.0  0.30401717500000003  0.41960426  0.5145508124437427  1.0000
  Ca  Ca3       1.0  0.555646515  0.32504601  0.5097562455785449  1.0000
  Ca  Ca4       1.0  0.304889255  0.9196042400000001  0.5146261055910193  1.0000
  Ca  Ca5       1.0  0.054440165000000006  0.50389295  0.511551546345075  1.0000
  Ca  Ca6       1.0  0.554350155  0.002774099999999982  0.5115689656786127  1.0000
  Ca  Ca7       1.0  0.05545503500000001  0.18139924999999998  0.5098192539392884  1.0000
  Ca  Ca8       1.0  0.053785095000000005  0.8247209700000001  0.5096920371776009  1.0000
  Ca  Ca9       1.0  0.552374425  0.68107468  0.509730354086195  1.0000
  Ca  Ca10      1.0  0.804550245  0.5868344600000001  0.514356955949663  1.0000
  Al  Al1       1.0  0.28868824499999995  0.17487890999999997  0.4942485760806482  1.0000
  Al  Al2       1.0  0.820401665  0.8316699500000001  0.49407835475333295  1.0000
  Al  Al3       1.0  0.31955307499999996  0.67508708  0.49416770462150145  1.0000
  Al  Al4       1.0  0.787595725  0.33146417  0.4941116214927493  1.0000
  Sb  Sb1       1.0  0.448528315  0.8477786700000001  0.4931927875873486  1.0000
  Sb  Sb2       1.0  0.6592246050000001  0.15872294  0.4931955064284282  1.0000
  Sb  Sb3       1.0  0.949388425  0.6587575000000001  0.49312777915960415  1.0000
  Sb  Sb4       1.0  0.159566395  0.34721083  0.4932526427174606  1.0000
  Sb  Sb5       1.0  0.877971035  0.33598074  0.5183651964733862  1.0000
  Sb  Sb6       1.0  0.230903145  0.67158335  0.5186426745187391  1.0000
  Sb  Sb7       1.0  0.7306331349999999  0.83325317  0.5183663027604462  1.0000
  Sb  Sb8       1.0  0.3783544450000001  0.17176735999999998  0.5186824289754903  1.0000
  Sb  Sb9       1.0  0.6660561549999999  0.50886726  0.49323094824070823  1.0000
  Sb  Sb10      1.0  0.440775745  0.49736436  0.49326994329701995  1.0000
  Sb  Sb11      1.0  0.941642685  0.009609729999999981  0.493312272840035  1.0000
  Sb  Sb12      1.0  0.167066145  0.9972259000000001  0.49335762748438916  1.0000
  Ca  Ca11      1.0  0.8009683650000001  0.09601767999999998  0.47020336745516284  1.0000
  Ca  Ca12      1.0  0.300968365  0.41052778  0.47020336745516284  1.0000
  Ca  Ca13      1.0  0.567796975  0.33011186  0.47020336745516284  1.0000
  Ca  Ca14      1.0  0.30633828500000004  0.91052778  0.47020336745516284  1.0000
  Ca  Ca15      1.0  0.053653325  0.5032727300000001  0.47020336745516284  1.0000
  Ca  Ca16      1.0  0.553653325  0.003272729999999982  0.47020336745516284  1.0000
  Ca  Ca17      1.0  0.067796975  0.17643359999999997  0.47020336745516284  1.0000
  Ca  Ca18      1.0  0.03950967500000001  0.83011186  0.47020336745516284  1.0000
  Ca  Ca19      1.0  0.5395096750000001  0.6764336000000001  0.47020336745516284  1.0000
  Ca  Ca20      1.0  0.806338285  0.5960176800000001  0.47020336745516284  1.0000
  Al  Al5       1.0  0.26496531500000003  0.17183697999999997  0.44788119155027023  1.0000
  Al  Al6       1.0  0.842341335  0.8347084800000001  0.44788119155027023  1.0000
  Al  Al7       1.0  0.3423413350000001  0.67183698  0.44788119155027023  1.0000
  Al  Al8       1.0  0.7649653150000001  0.33470848  0.44788119155027023  1.0000
  Sb  Sb13      1.0  0.46049032500000003  0.8471788699999999  0.44788119155027023  1.0000
  Sb  Sb14      1.0  0.646816325  0.15936659  0.44788119155027023  1.0000
  Sb  Sb15      1.0  0.960490325  0.6593665900000001  0.44788119155027023  1.0000
  Sb  Sb16      1.0  0.146816325  0.34717887000000003  0.44788119155027023  1.0000
  Sb  Sb17      1.0  0.8751831350000001  0.34212345000000005  0.47020336745516284  1.0000
  Sb  Sb18      1.0  0.232123515  0.6644220099999999  0.47020336745516284  1.0000
  Sb  Sb19      1.0  0.7321235150000001  0.8421234500000001  0.47020336745516284  1.0000
  Sb  Sb20      1.0  0.3751831350000001  0.16442201  0.47020336745516284  1.0000
  Sb  Sb21      1.0  0.653881545  0.5285584200000001  0.44788119155027023  1.0000
  Sb  Sb22      1.0  0.45342510500000005  0.47798704  0.44788119155027023  1.0000
  Sb  Sb23      1.0  0.953425105  0.028558419999999984  0.44788119155027023  1.0000
  Sb  Sb24      1.0  0.15388154500000004  0.97798704  0.44788119155027023  1.0000
