data_image0
_chemical_formula_structural       COCa3Zn6Sb6
_chemical_formula_sum              "C1 O1 Ca3 Zn6 Sb6"
_cell_length_a       4.550691090622603
_cell_length_b       11.841640672961354
_cell_length_c       105.34924849000001
_cell_angle_alpha    81.22104505554775
_cell_angle_beta     104.92001238928856
_cell_angle_gamma    67.39997916956378

_space_group_name_H-M_alt    "P 1"
_space_group_IT_number       1

loop_
  _space_group_symop_operation_xyz
  'x, y, z'

loop_
  _atom_site_type_symbol
  _atom_site_label
  _atom_site_symmetry_multiplicity
  _atom_site_fract_x
  _atom_site_fract_y
  _atom_site_fract_z
  _atom_site_occupancy
  C   C1        1.0  0.16226216000000032  0.9632030499999998  0.5430368158010539  1.0000
  O   O1        1.0  0.24739749000000025  0.9368789599999999  0.554787879008622  1.0000
  Ca  Ca1       1.0  0.013884949999999922  0.6753036000000001  0.4620256756099654  1.0000
  Ca  Ca2       1.0  0.98611505  0.016762409999999995  0.5155897790650648  1.0000
  Ca  Ca3       1.0  0.013884950000000073  0.34197026  0.4899876305871884  1.0000
  Zn  Zn1       1.0  0.68419383  0.77839391  0.5085159799195256  1.0000
  Zn  Zn2       1.0  0.6805516200000001  0.10885379  0.47883923022855296  1.0000
  Zn  Zn3       1.0  0.68055162  0.44218712  0.45087727860676435  1.0000
  Zn  Zn4       1.0  0.36401865000000005  0.56957559  0.5031542139652835  1.0000
  Zn  Zn5       1.0  0.34721828000000027  0.9084200699999999  0.47317407596860084  1.0000
  Zn  Zn6       1.0  0.34721828000000016  0.2417534  0.44521212099137786  1.0000
  Sb  Sb1       1.0  0.6805516199999999  0.64990425  0.48572633636347023  1.0000
  Sb  Sb2       1.0  0.6805516200000005  0.9832375899999999  0.45776438474168163  1.0000
  Sb  Sb3       1.0  0.68132442  0.31294474000000005  0.5132837064910599  1.0000
  Sb  Sb4       1.0  0.33410393000000005  0.70901061  0.5221258094615906  1.0000
  Sb  Sb5       1.0  0.3365203400000002  0.039104169999999994  0.49370057302202014  1.0000
  Sb  Sb6       1.0  0.34721828000000005  0.36736961  0.4662869698336835  1.0000
