data_image0
_chemical_formula_structural       COCo8As8Co8As8
_chemical_formula_sum              "C1 O1 Co16 As16"
_cell_length_a       5.86758091
_cell_length_b       6.393899402621397
_cell_length_c       108.36339641000001
_cell_angle_alpha    66.25578827561975
_cell_angle_beta     90.0
_cell_angle_gamma    90.0

_space_group_name_H-M_alt    "P 1"
_space_group_IT_number       1

loop_
  _space_group_symop_operation_xyz
  'x, y, z'

loop_
  _atom_site_type_symbol
  _atom_site_label
  _atom_site_symmetry_multiplicity
  _atom_site_fract_x
  _atom_site_fract_y
  _atom_site_fract_z
  _atom_site_occupancy
  C   C1        1.0  0.272292525  0.055690910000000045  0.5549458613941912  1.0000
  O   O1        1.0  0.321248945  0.9914338500000001  0.5663317612798214  1.0000
  Co  Co1       1.0  0.7142675850000001  0.65894958  0.47797708258046945  1.0000
  Co  Co2       1.0  0.7142675850000001  0.15894958000000003  0.44847496228430006  1.0000
  Co  Co3       1.0  0.819030545  0.40894958000000003  0.46322602243238475  1.0000
  Co  Co4       1.0  0.819030545  0.90894958  0.4337239056764695  1.0000
  Co  Co5       1.0  0.31903054500000005  0.40800618000000005  0.43366823872017846  1.0000
  Co  Co6       1.0  0.31903054500000005  0.9080061800000001  0.4631703590163478  1.0000
  Co  Co7       1.0  0.21426758500000004  0.65800618  0.44841929886826315  1.0000
  Co  Co8       1.0  0.21426758500000004  0.15800618000000002  0.47792141562417834  1.0000
  As  As1       1.0  0.42817597500000004  0.50856615  0.469103821435382  1.0000
  As  As2       1.0  0.42817597500000004  0.008566149999999828  0.43960170467946674  1.0000
  As  As3       1.0  0.928175975  0.30838961000000004  0.4867946767692658  1.0000
  As  As4       1.0  0.928175975  0.80838961  0.4572925564730964  1.0000
  As  As5       1.0  0.605122155  0.55838961  0.44254149986526586  1.0000
  As  As6       1.0  0.605122155  0.05838961000000004  0.4720436166211811  1.0000
  As  As7       1.0  0.10512215500000002  0.75856615  0.4838548815834667  1.0000
  As  As8       1.0  0.10512215500000002  0.25856615  0.4543527648275514  1.0000
  Co  Co9       1.0  0.7138682850000001  0.67826462  0.5347495115526442  1.0000
  Co  Co10      1.0  0.7142675850000001  0.15894958000000003  0.5074791993363846  1.0000
  Co  Co11      1.0  0.8167685250000002  0.40713688000000003  0.521593923582369  1.0000
  Co  Co12      1.0  0.819030545  0.90894958  0.4927281391883  1.0000
  Co  Co13      1.0  0.31903054500000005  0.40800618000000005  0.49267247577226303  1.0000
  Co  Co14      1.0  0.313417255  0.90676648  0.5226782644864288  1.0000
  Co  Co15      1.0  0.21426758500000004  0.65800618  0.5074235359203477  1.0000
  Co  Co16      1.0  0.188657655  0.15556983000000005  0.5380203275821936  1.0000
  As  As9       1.0  0.401950855  0.51063081  0.5288827404413314  1.0000
  As  As10      1.0  0.42817597500000004  0.008566149999999828  0.49860594173155137  1.0000
  As  As11      1.0  0.848966905  0.2848813  0.544883673156876  1.0000
  As  As12      1.0  0.928175975  0.80838961  0.516296793525181  1.0000
  As  As13      1.0  0.605122155  0.55838961  0.5015457333770964  1.0000
  As  As14      1.0  0.603412025  0.045419040000000035  0.5329764212837587  1.0000
  As  As15      1.0  0.07182402500000004  0.7603587100000001  0.5427318889818251  1.0000
  As  As16      1.0  0.10512215500000002  0.25856615  0.5133569983393819  1.0000
