data_image0
_chemical_formula_structural       Ir9Rh3Ir9Rh3CO
_chemical_formula_sum              "Ir18 Rh6 C1 O1"
_cell_length_a       7.75066148
_cell_length_b       4.745000818489958
_cell_length_c       101.24077858
_cell_angle_alpha    92.88464483033941
_cell_angle_beta     90.0
_cell_angle_gamma    114.10181226679438

_space_group_name_H-M_alt    "P 1"
_space_group_IT_number       1

loop_
  _space_group_symop_operation_xyz
  'x, y, z'

loop_
  _atom_site_type_symbol
  _atom_site_label
  _atom_site_symmetry_multiplicity
  _atom_site_fract_x
  _atom_site_fract_y
  _atom_site_fract_z
  _atom_site_occupancy
  Ir  Ir1       1.0  0.2578204799999999  0.10951583500000003  0.4589232837561482  1.0000
  Ir  Ir2       1.0  0.45226491999999996  0.887293615  0.44178000440575843  1.0000
  Ir  Ir3       1.0  0.10504269999999995  0.498404725  0.45035164408095335  1.0000
  Ir  Ir4       1.0  0.3689315899999999  0.5539602849999999  0.4932098393711379  1.0000
  Ir  Ir5       1.0  0.06337602999999993  0.331738055  0.4760665600207481  1.0000
  Ir  Ir6       1.0  0.21615380999999997  0.942849165  0.484638199695943  1.0000
  Ir  Ir7       1.0  0.9782906299999999  0.9926361350000001  0.5265124754041328  1.0000
  Ir  Ir8       1.0  0.17375531999999994  0.777380105  0.5102466527936985  1.0000
  Ir  Ir9       1.0  0.3237989599999999  0.3798565950000001  0.519274643785768  1.0000
  Rh  Rh1       1.0  0.4105982499999999  0.7206269449999999  0.4674949234313432  1.0000
  Rh  Rh2       1.0  0.021709369999999943  0.16507139500000004  0.5017814790463329  1.0000
  Rh  Rh3       1.0  0.12043508999999993  0.592623195  0.5347964299600422  1.0000
  Ir  Ir10      1.0  0.7578204799999999  0.10951583500000003  0.4589232837561482  1.0000
  Ir  Ir11      1.0  0.9522649200000001  0.887293615  0.44178000440575843  1.0000
  Ir  Ir12      1.0  0.6050427  0.498404725  0.45035164408095335  1.0000
  Ir  Ir13      1.0  0.86893159  0.5539602849999999  0.4932098393711379  1.0000
  Ir  Ir14      1.0  0.56337603  0.331738055  0.4760665600207481  1.0000
  Ir  Ir15      1.0  0.71615381  0.942849165  0.484638199695943  1.0000
  Ir  Ir16      1.0  0.48072188  0.0020907650000000447  0.5280826056050959  1.0000
  Ir  Ir17      1.0  0.67252461  0.773650095  0.5100283146338968  1.0000
  Ir  Ir18      1.0  0.8270929399999999  0.38031179500000006  0.5189852738251228  1.0000
  Rh  Rh4       1.0  0.9105982499999999  0.7206269449999999  0.4674949234313432  1.0000
  Rh  Rh5       1.0  0.52170937  0.16507139500000004  0.5017814790463329  1.0000
  Rh  Rh6       1.0  0.6425975599999999  0.613530005  0.5346680641803261  1.0000
  C   C1        1.0  0.47816205  0.988556565  0.5465369723402793  1.0000
  O   O1        1.0  0.4799108899999999  0.997909235  0.5582199955942415  1.0000
