data_image0
_chemical_formula_structural       COZn12Cu6Au6
_chemical_formula_sum              "C1 O1 Zn12 Cu6 Au6"
_cell_length_a       7.234690547676201
_cell_length_b       6.578917347099842
_cell_length_c       104.6170502
_cell_angle_alpha    91.84075605700363
_cell_angle_beta     100.01412035758312
_cell_angle_gamma    64.18503259949316

_space_group_name_H-M_alt    "P 1"
_space_group_IT_number       1

loop_
  _space_group_symop_operation_xyz
  'x, y, z'

loop_
  _atom_site_type_symbol
  _atom_site_label
  _atom_site_symmetry_multiplicity
  _atom_site_fract_x
  _atom_site_fract_y
  _atom_site_fract_z
  _atom_site_occupancy
  C   C1        1.0  0.536921325  0.1274242550000002  0.5426593748597435  1.0000
  O   O1        1.0  0.5371819649999999  0.19335368500000025  0.5530607483277306  1.0000
  Zn  Zn1       1.0  0.8286520250000001  0.20521646500000004  0.44693925167226956  1.0000
  Zn  Zn2       1.0  0.16198536499999996  0.5385497950000001  0.4745136710293322  1.0000
  Zn  Zn3       1.0  0.498266075  0.8826594350000002  0.5021501559874951  1.0000
  Zn  Zn4       1.0  0.495827445  0.37162875500000025  0.46070541986456115  1.0000
  Zn  Zn5       1.0  0.8291607750000001  0.704962085  0.48827983591269375  1.0000
  Zn  Zn6       1.0  0.124959485  0.07522423500000021  0.5178181052592583  1.0000
  Zn  Zn7       1.0  0.8745317650000001  0.11345698500000016  0.4920962003220318  1.0000
  Zn  Zn8       1.0  0.18484537499999998  0.46232410500000026  0.519352932613143  1.0000
  Zn  Zn9       1.0  0.541198435  0.7801236450000002  0.46452178096496916  1.0000
  Zn  Zn10      1.0  0.20837384499999995  0.946535945  0.47828794915726086  1.0000
  Zn  Zn11      1.0  0.548025345  0.28949338500000016  0.5071172835478005  1.0000
  Zn  Zn12      1.0  0.875040515  0.6132026050000003  0.45071352980019824  1.0000
  Cu  Cu1       1.0  0.8731714250000001  0.3665592250000001  0.4712712901725283  1.0000
  Cu  Cu2       1.0  0.18831145499999996  0.7048799350000001  0.497948718151572  1.0000
  Cu  Cu3       1.0  0.5114378549999999  0.042740765000000215  0.5253708109134084  1.0000
  Cu  Cu4       1.0  0.49718778499999994  0.11852651500000021  0.4815303267051347  1.0000
  Cu  Cu5       1.0  0.821392655  0.4692220750000002  0.5092477282389392  1.0000
  Cu  Cu6       1.0  0.16385444499999996  0.7851931850000002  0.4539559106570021  1.0000
  Au  Au1       1.0  0.8278214250000001  0.957259235  0.4675197907191198  1.0000
  Au  Au2       1.0  0.16177933499999997  0.28664434500000024  0.4945002670575377  1.0000
  Au  Au3       1.0  0.4452869749999999  0.6612183750000001  0.5206828577821079  1.0000
  Au  Au4       1.0  0.5425377849999999  0.5278265050000001  0.485281826158543  1.0000
  Au  Au5       1.0  0.8675858150000001  0.8740940950000002  0.513504875221321  1.0000
  Au  Au6       1.0  0.20920445499999996  0.19449316500000022  0.4577074101104105  1.0000
