data_image0
_chemical_formula_structural       COCa12Ga6Cu12
_chemical_formula_sum              "C1 O1 Ca12 Ga6 Cu12"
_cell_length_a       9.16623138
_cell_length_b       10.263110748943678
_cell_length_c       98.22447707
_cell_angle_alpha    94.5571231898487
_cell_angle_beta     90.0
_cell_angle_gamma    90.0

_space_group_name_H-M_alt    "P 1"
_space_group_IT_number       1

loop_
  _space_group_symop_operation_xyz
  'x, y, z'

loop_
  _atom_site_type_symbol
  _atom_site_label
  _atom_site_symmetry_multiplicity
  _atom_site_fract_x
  _atom_site_fract_y
  _atom_site_fract_z
  _atom_site_occupancy
  C   C1        1.0  0.598011605  0.41999380999999997  0.5264936552611389  1.0000
  O   O1        1.0  0.598016405  0.46154691999999997  0.5384966115684547  1.0000
  Ca  Ca1       1.0  0.794051755  0.53997746  0.4859343327566853  1.0000
  Ca  Ca2       1.0  0.793361645  0.21489163  0.5110480443941215  1.0000
  Ca  Ca3       1.0  0.794051755  0.87331079  0.46198877443805636  1.0000
  Ca  Ca4       1.0  0.901984955  0.20664412999999998  0.47396155359737085  1.0000
  Ca  Ca5       1.0  0.8939775650000001  0.8775967100000002  0.49869627508232817  1.0000
  Ca  Ca6       1.0  0.8828733250000002  0.56536321  0.5223092755979879  1.0000
  Ca  Ca7       1.0  0.294051755  0.20664412999999998  0.47396155359737085  1.0000
  Ca  Ca8       1.0  0.302063325  0.87759361  0.49869586417658024  1.0000
  Ca  Ca9       1.0  0.313170285  0.5653745  0.5223083963171568  1.0000
  Ca  Ca10      1.0  0.401984955  0.53997746  0.4859343327566853  1.0000
  Ca  Ca11      1.0  0.40267813500000005  0.21489000999999996  0.5110483690958665  1.0000
  Ca  Ca12      1.0  0.401984955  0.87331079  0.46198877443805636  1.0000
  Ga  Ga1       1.0  0.09804058500000001  0.38883285999999995  0.49743434904900213  1.0000
  Ga  Ga2       1.0  0.09805845500000002  0.05561799999999999  0.5201306705635541  1.0000
  Ga  Ga3       1.0  0.09801835500000003  0.70664413  0.4739615535973709  1.0000
  Ga  Ga4       1.0  0.598018355  0.37331079  0.46198877443805636  1.0000
  Ga  Ga5       1.0  0.598018355  0.039977459999999986  0.4859343327566853  1.0000
  Ga  Ga6       1.0  0.598037995  0.7038942100000001  0.5084572434252337  1.0000
  Cu  Cu1       1.0  0.09801981500000002  0.29725244  0.5196605225513157  1.0000
  Cu  Cu2       1.0  0.09801835500000003  0.9600225400000001  0.47444693960388196  1.0000
  Cu  Cu3       1.0  0.09802262500000003  0.63669756  0.4998119588979453  1.0000
  Cu  Cu4       1.0  0.09801835500000003  0.45326572000000004  0.47347616759085975  1.0000
  Cu  Cu5       1.0  0.09801504500000002  0.12927038  0.4963549456248022  1.0000
  Cu  Cu6       1.0  0.09802064500000002  0.80706351  0.5200898156130416  1.0000
  Cu  Cu7       1.0  0.598018355  0.29335587  0.4864197187631964  1.0000
  Cu  Cu8       1.0  0.598016545  0.95031946  0.5089701831045865  1.0000
  Cu  Cu9       1.0  0.598018355  0.6266892000000001  0.46247416331803415  1.0000
  Cu  Cu10      1.0  0.598018355  0.11993237999999999  0.4615033884315453  1.0000
  Cu  Cu11      1.0  0.598018355  0.78659905  0.48544894387670745  1.0000
  Cu  Cu12      1.0  0.598015255  0.44990075  0.5080043563278728  1.0000
