data_image0
_chemical_formula_structural       COAu16Se16
_chemical_formula_sum              "C1 O1 Au16 Se16"
_cell_length_a       10.033226636953088
_cell_length_b       12.073703981808265
_cell_length_c       100.31569538
_cell_angle_alpha    92.46358473672396
_cell_angle_beta     97.97693528787809
_cell_angle_gamma    110.65087566604277

_space_group_name_H-M_alt    "P 1"
_space_group_IT_number       1

loop_
  _space_group_symop_operation_xyz
  'x, y, z'

loop_
  _atom_site_type_symbol
  _atom_site_label
  _atom_site_symmetry_multiplicity
  _atom_site_fract_x
  _atom_site_fract_y
  _atom_site_fract_z
  _atom_site_occupancy
  C   C1        1.0  0.6781374850000002  0.883101865  0.5377905332208404  1.0000
  O   O1        1.0  0.6765313450000003  0.8958086550000002  0.5492991635733268  1.0000
  Au  Au1       1.0  0.006366785000000056  0.5955069449999999  0.5011958607468159  1.0000
  Au  Au2       1.0  0.4330762750000001  0.151942005  0.48873177962000924  1.0000
  Au  Au3       1.0  0.10797945500000013  0.38221105499999997  0.49915560124119485  1.0000
  Au  Au4       1.0  0.6776040750000001  0.8865682650000002  0.5185784816511878  1.0000
  Au  Au5       1.0  0.22282005500000013  0.16003059499999997  0.5168513950244794  1.0000
  Au  Au6       1.0  0.6154067950000001  0.613828675  0.4929313393807763  1.0000
  Au  Au7       1.0  0.9223129050000001  0.888549695  0.49466686653484937  1.0000
  Au  Au8       1.0  0.45931426500000017  0.380828315  0.5165392828777918  1.0000
  Au  Au9       1.0  0.8705762750000003  0.651942005  0.4698440975472022  1.0000
  Au  Au10      1.0  0.3080762750000001  0.151942005  0.4509564154743951  1.0000
  Au  Au11      1.0  0.993633215  0.376126785  0.46180807482583563  1.0000
  Au  Au12      1.0  0.556133215  0.8761267850000001  0.48069575689864275  1.0000
  Au  Au13      1.0  0.0567469650000001  0.12338002499999996  0.47559133815324817  1.0000
  Au  Au14      1.0  0.49424696500000015  0.623380025  0.45670365608044106  1.0000
  Au  Au15      1.0  0.8074625250000002  0.9046887650000001  0.45606083421978977  1.0000
  Au  Au16      1.0  0.3699625250000001  0.404688765  0.47494851629259677  1.0000
  Se  Se1       1.0  0.38980364500000014  0.06493134499999999  0.5117006515945258  1.0000
  Se  Se2       1.0  0.758188445  0.49927441499999997  0.4862208541872793  1.0000
  Se  Se3       1.0  0.07426291500000018  0.7804428350000001  0.48847620057228736  1.0000
  Se  Se4       1.0  0.5962484050000001  0.255859055  0.5117481337162424  1.0000
  Se  Se5       1.0  0.08548231500000011  0.284246465  0.5220022412034236  1.0000
  Se  Se6       1.0  0.47151955500000015  0.732145475  0.498359130353403  1.0000
  Se  Se7       1.0  0.763885275  0.997850205  0.4988213829514092  1.0000
  Se  Se8       1.0  0.2895853250000001  0.475775845  0.5215476554933244  1.0000
  Se  Se9       1.0  0.2262131850000001  0.02591899499999998  0.4702135919830416  1.0000
  Se  Se10      1.0  0.6637131850000001  0.5259189950000001  0.45132590991023447  1.0000
  Se  Se11      1.0  0.9492629150000002  0.7804428350000001  0.45070083642667325  1.0000
  Se  Se12      1.0  0.5117629150000002  0.280442835  0.4695885184994803  1.0000
  Se  Se13      1.0  0.9149465750000002  0.247625955  0.4809513359463646  1.0000
  Se  Se14      1.0  0.3524465750000002  0.7476259550000001  0.46206365387355747  1.0000
  Se  Se15      1.0  0.6379963050000003  0.00214979500000001  0.4614385803899963  1.0000
  Se  Se16      1.0  0.20049630500000012  0.5021497949999999  0.48032626246280336  1.0000
