data_image0
_chemical_formula_structural       CONa24Zn4Sn8
_chemical_formula_sum              "C1 O1 Na24 Zn4 Sn8"
_cell_length_a       11.071355342498467
_cell_length_b       10.287189814241906
_cell_length_c       114.28542138
_cell_angle_alpha    83.20254431017281
_cell_angle_beta     119.40099779943154
_cell_angle_gamma    96.7974556829813

_space_group_name_H-M_alt    "P 1"
_space_group_IT_number       1

loop_
  _space_group_symop_operation_xyz
  'x, y, z'

loop_
  _atom_site_type_symbol
  _atom_site_label
  _atom_site_symmetry_multiplicity
  _atom_site_fract_x
  _atom_site_fract_y
  _atom_site_fract_z
  _atom_site_occupancy
  C   C1        1.0  0.22175417  0.04384695000000006  0.5471507004877127  1.0000
  O   O1        1.0  0.26212566000000004  0.03628961000000006  0.5589057831166764  1.0000
  Na  Na1       1.0  0.10488417  0.35988913000000006  0.5303300988796821  1.0000
  Na  Na2       1.0  0.6779463099999999  0.3872185  0.4805958029833774  1.0000
  Na  Na3       1.0  0.34814349  0.12473299000000007  0.5142396528137171  1.0000
  Na  Na4       1.0  0.8357062800000001  0.09047523000000006  0.4653128687710996  1.0000
  Na  Na5       1.0  0.5051789600000001  0.20985746000000005  0.4973325731810177  1.0000
  Na  Na6       1.0  0.005178960000000005  0.20985746000000005  0.44889526940546587  1.0000
  Na  Na7       1.0  0.49482104  0.24341346000000008  0.4498986888405116  1.0000
  Na  Na8       1.0  0.99482104  0.24341346000000008  0.49833599261606343  1.0000
  Na  Na9       1.0  0.61969062  0.9637103899999999  0.5314773461070668  1.0000
  Na  Na10      1.0  0.15258102  0.9466701900000001  0.4830530545288013  1.0000
  Na  Na11      1.0  0.32534836  0.12403122000000008  0.4663162882061454  1.0000
  Na  Na12      1.0  0.8298388099999999  0.10108117000000005  0.5187907676266876  1.0000
  Na  Na13      1.0  0.42794631  0.8872184999999999  0.45637715109560156  1.0000
  Na  Na14      1.0  0.9279463100000002  0.8872184999999999  0.5048144548711534  1.0000
  Na  Na15      1.0  0.58570628  0.59047523  0.44109421688332373  1.0000
  Na  Na16      1.0  0.08570628000000001  0.59047523  0.48953152065887556  1.0000
  Na  Na17      1.0  0.74499377  0.6362719900000001  0.5246963754524693  1.0000
  Na  Na18      1.0  0.25517895999999995  0.70985746  0.47311392129324176  1.0000
  Na  Na19      1.0  0.23326558  0.75859028  0.5220255812721283  1.0000
  Na  Na20      1.0  0.7448210399999999  0.7434134600000001  0.47411734072828754  1.0000
  Na  Na21      1.0  0.41089613999999997  0.4619748  0.5100961747243686  1.0000
  Na  Na22      1.0  0.9025810200000001  0.44667019  0.4588344026410254  1.0000
  Na  Na23      1.0  0.07534836000000002  0.6240312200000001  0.44209763631836946  1.0000
  Na  Na24      1.0  0.57534836  0.6240312200000001  0.49053494009392123  1.0000
  Zn  Zn1       1.0  0.5402636599999999  0.91694434  0.49393375469997736  1.0000
  Zn  Zn2       1.0  0.04026366000000001  0.91694434  0.4454964509244255  1.0000
  Zn  Zn3       1.0  0.7783436300000001  0.39956322000000005  0.5136212711938439  1.0000
  Zn  Zn4       1.0  0.29026366000000003  0.4169443400000001  0.4697151028122014  1.0000
  Sn  Sn1       1.0  0.15235010000000002  0.06108258000000005  0.5263170915117834  1.0000
  Sn  Sn2       1.0  0.66557988  0.06255758000000006  0.4817937970051817  1.0000
  Sn  Sn3       1.0  0.6712188099999999  0.2848124000000001  0.5284403775351356  1.0000
  Sn  Sn4       1.0  0.16494744  0.27133111000000004  0.48185506438198134  1.0000
  Sn  Sn5       1.0  0.41557987999999996  0.5625575800000001  0.45757514511740577  1.0000
  Sn  Sn6       1.0  0.9271893900000001  0.5720721400000001  0.5060967956762602  1.0000
  Sn  Sn7       1.0  0.42499971000000003  0.7780483800000001  0.5070021818834485  1.0000
  Sn  Sn8       1.0  0.9149474400000001  0.7713311100000001  0.45763641249420545  1.0000
