data_image0
_chemical_formula_structural       CONa24Zn4Sn8
_chemical_formula_sum              "C1 O1 Na24 Zn4 Sn8"
_cell_length_a       5.58572137
_cell_length_b       21.465279286702316
_cell_length_c       108.23603032
_cell_angle_alpha    71.70388958287825
_cell_angle_beta     90.0
_cell_angle_gamma    90.0

_space_group_name_H-M_alt    "P 1"
_space_group_IT_number       1

loop_
  _space_group_symop_operation_xyz
  'x, y, z'

loop_
  _atom_site_type_symbol
  _atom_site_label
  _atom_site_symmetry_multiplicity
  _atom_site_fract_x
  _atom_site_fract_y
  _atom_site_fract_z
  _atom_site_occupancy
  C   C1        1.0  0.750228485  0.65605031  0.5422137423749424  1.0000
  O   O1        1.0  0.750335065  0.63437074  0.5537193731478172  1.0000
  Na  Na1       1.0  0.249711645  0.23785996  0.5240791594903957  1.0000
  Na  Na2       1.0  0.250165755  0.73513708  0.47828666861117897  1.0000
  Na  Na3       1.0  0.250165755  0.08676544000000001  0.4750977077052661  1.0000
  Na  Na4       1.0  0.250072255  0.61448549  0.5188131224481324  1.0000
  Na  Na5       1.0  0.250224495  0.15861034  0.4991485547507123  1.0000
  Na  Na6       1.0  0.250165755  0.64645656  0.45560225515721614  1.0000
  Na  Na7       1.0  0.750165755  0.16323456  0.4522909372928813  1.0000
  Na  Na8       1.0  0.750165755  0.66323456  0.4964490958641942  1.0000
  Na  Na9       1.0  0.750165755  0.014862920000000009  0.4932601349582814  1.0000
  Na  Na10      1.0  0.750165755  0.51486292  0.4491019763869685  1.0000
  Na  Na11      1.0  0.750114025  0.10273587000000002  0.5178817315022408  1.0000
  Na  Na12      1.0  0.750165755  0.60354344  0.4717863898409313  1.0000
  Na  Na13      1.0  0.750115825  0.48433904000000005  0.5003523414798932  1.0000
  Na  Na14      1.0  0.750165755  0.98513708  0.4562075893255224  1.0000
  Na  Na15      1.0  0.750165755  0.33676544  0.4530186284196096  1.0000
  Na  Na16      1.0  0.750165755  0.83676544  0.49717678699092266  1.0000
  Na  Na17      1.0  0.750165755  0.39645656000000007  0.47768133444287264  1.0000
  Na  Na18      1.0  0.7501002950000001  0.8945478000000001  0.522604859881807  1.0000
  Na  Na19      1.0  0.249980555  0.41006131  0.5174749465454819  1.0000
  Na  Na20      1.0  0.250165755  0.91323456  0.4743700165785377  1.0000
  Na  Na21      1.0  0.250165755  0.26486292  0.4711810556726249  1.0000
  Na  Na22      1.0  0.249931045  0.7727869  0.5236060277835466  1.0000
  Na  Na23      1.0  0.250165755  0.35354344000000004  0.4938654691265878  1.0000
  Na  Na24      1.0  0.250165755  0.85354344  0.4497073105552748  1.0000
  Zn  Zn1       1.0  0.250165755  0.5  0.47473386214190194  1.0000
  Zn  Zn2       1.0  0.250148725  0.016634590000000008  0.5153586297030986  1.0000
  Zn  Zn3       1.0  0.750165755  0.25  0.49681294142755844  1.0000
  Zn  Zn4       1.0  0.750165755  0.75  0.45265478285624544  1.0000
  Sn  Sn1       1.0  0.250165755  0.07280662000000002  0.4462806268521828  1.0000
  Sn  Sn2       1.0  0.250165755  0.57280662  0.49043878542349584  1.0000
  Sn  Sn3       1.0  0.750165755  0.17719338  0.48110801814596454  1.0000
  Sn  Sn4       1.0  0.749923075  0.70095552  0.5218229743302273  1.0000
  Sn  Sn5       1.0  0.749462535  0.32143802  0.5129790949091033  1.0000
  Sn  Sn6       1.0  0.750165755  0.82280662  0.46835970613783934  1.0000
  Sn  Sn7       1.0  0.250165755  0.42719338000000007  0.4590289388603081  1.0000
  Sn  Sn8       1.0  0.249664935  0.92257855  0.5041719904024377  1.0000
