data_image0
_chemical_formula_structural       CONa12Sn4Na12Sn4
_chemical_formula_sum              "C1 O1 Na24 Sn8"
_cell_length_a       4.97052666
_cell_length_b       19.961227446616753
_cell_length_c       104.79368662
_cell_angle_alpha    104.41888174339904
_cell_angle_beta     90.0
_cell_angle_gamma    90.0

_space_group_name_H-M_alt    "P 1"
_space_group_IT_number       1

loop_
  _space_group_symop_operation_xyz
  'x, y, z'

loop_
  _atom_site_type_symbol
  _atom_site_label
  _atom_site_symmetry_multiplicity
  _atom_site_fract_x
  _atom_site_fract_y
  _atom_site_fract_z
  _atom_site_occupancy
  C   C1        1.0  0.25000100000000003  0.068967155  0.546677189632815  1.0000
  O   O1        1.0  0.25006233000000005  0.08409398500000001  0.5583521409406966  1.0000
  Na  Na1       1.0  0.25002904000000004  0.17638789500000002  0.46536363202668374  1.0000
  Na  Na2       1.0  0.25002904000000004  0.6763878950000001  0.44164785905930326  1.0000
  Na  Na3       1.0  0.75002904  0.17638789500000002  0.4416478590593033  1.0000
  Na  Na4       1.0  0.75002904  0.6763878950000001  0.46536363202668374  1.0000
  Na  Na5       1.0  0.25002904000000004  0.301387895  0.44757680147109635  1.0000
  Na  Na6       1.0  0.25002904000000004  0.801387895  0.4712925744384768  1.0000
  Na  Na7       1.0  0.75002904  0.426387895  0.4535057438828894  1.0000
  Na  Na8       1.0  0.75002904  0.9263878950000001  0.47722152017047814  1.0000
  Na  Na9       1.0  0.25002904000000004  0.426387895  0.47722152017047814  1.0000
  Na  Na10      1.0  0.25002904000000004  0.9263878950000001  0.4535057438828894  1.0000
  Na  Na11      1.0  0.75002904  0.051387895  0.4594346896148907  1.0000
  Na  Na12      1.0  0.75002904  0.551387895  0.4831504625822712  1.0000
  Sn  Sn1       1.0  0.25002904000000004  0.051387895  0.4831504625822712  1.0000
  Sn  Sn2       1.0  0.25002904000000004  0.551387895  0.4594346896148907  1.0000
  Sn  Sn3       1.0  0.75002904  0.301387895  0.4712925744384768  1.0000
  Sn  Sn4       1.0  0.75002904  0.801387895  0.44757680147109635  1.0000
  Na  Na13      1.0  0.25002311000000005  0.21388562500000002  0.524264389242934  1.0000
  Na  Na14      1.0  0.25002904000000004  0.6763878950000001  0.48907940499406416  1.0000
  Na  Na15      1.0  0.75002904  0.17638789500000002  0.4890794049940642  1.0000
  Na  Na16      1.0  0.7500284200000001  0.676168985  0.5120888235707335  1.0000
  Na  Na17      1.0  0.25002904000000004  0.301387895  0.4950083474058572  1.0000
  Na  Na18      1.0  0.25002485  0.808424905  0.5163060790857411  1.0000
  Na  Na19      1.0  0.75002767  0.431190035  0.5016275345577781  1.0000
  Na  Na20      1.0  0.7499568600000001  0.9502542950000001  0.5263761379962227  1.0000
  Na  Na21      1.0  0.25004577000000006  0.415438095  0.5255618403140607  1.0000
  Na  Na22      1.0  0.25002680000000005  0.9276607250000002  0.49965755537791534  1.0000
  Na  Na23      1.0  0.74994467  0.083424875  0.5094014768692887  1.0000
  Na  Na24      1.0  0.75004315  0.5568346850000001  0.5291924449075422  1.0000
  Sn  Sn5       1.0  0.25010432000000005  0.049745705  0.5256770747828985  1.0000
  Sn  Sn6       1.0  0.24995685000000004  0.553760915  0.5077730607962119  1.0000
  Sn  Sn7       1.0  0.75004136  0.305136205  0.5156230325571683  1.0000
  Sn  Sn8       1.0  0.75002904  0.801387895  0.4950083474058572  1.0000
