data_image0
_chemical_formula_structural       CONa36Zn6Sn12
_chemical_formula_sum              "C1 O1 Na36 Zn6 Sn12"
_cell_length_a       10.287189814241906
_cell_length_b       14.702916674547309
_cell_length_c       103.21406603
_cell_angle_alpha    79.74706948078938
_cell_angle_beta     96.7974556898272
_cell_angle_gamma    95.11329748711219

_space_group_name_H-M_alt    "P 1"
_space_group_IT_number       1

loop_
  _space_group_symop_operation_xyz
  'x, y, z'

loop_
  _atom_site_type_symbol
  _atom_site_label
  _atom_site_symmetry_multiplicity
  _atom_site_fract_x
  _atom_site_fract_y
  _atom_site_fract_z
  _atom_site_occupancy
  C   C1        1.0  0.5027214149999999  0.7108490900000001  0.550820133694427  1.0000
  O   O1        1.0  0.5885087449999999  0.69123677  0.5593547955138642  1.0000
  Na  Na1       1.0  0.48513707500000003  0.08278968  0.448958353527598  1.0000
  Na  Na2       1.0  0.48513707500000003  0.7494563500000001  0.48471367144263816  1.0000
  Na  Na3       1.0  0.48983868500000005  0.41409334999999997  0.5221894880759353  1.0000
  Na  Na4       1.0  0.18839380500000003  0.187963  0.4715213877825693  1.0000
  Na  Na5       1.0  0.18839380500000003  0.8546296600000001  0.5072767056976095  1.0000
  Na  Na6       1.0  0.224524945  0.5362604299999999  0.5412048489023262  1.0000
  Na  Na7       1.0  0.30777604500000005  0.30094478  0.4957595858726536  1.0000
  Na  Na8       1.0  0.341346635  0.98395325  0.5332311065044604  1.0000
  Na  Na9       1.0  0.30777604500000005  0.6342781200000001  0.4600042679576135  1.0000
  Na  Na10      1.0  0.34133204500000003  0.2940395  0.44064520448613587  1.0000
  Na  Na11      1.0  0.34133204500000003  0.96070617  0.47640052240117603  1.0000
  Na  Na12      1.0  0.34133204500000003  0.62737284  0.5121558403162161  1.0000
  Na  Na13      1.0  0.044588775000000046  0.39921281999999997  0.4632082387411073  1.0000
  Na  Na14      1.0  0.04458877500000004  0.06587948999999999  0.4989635566561474  1.0000
  Na  Na15      1.0  0.06325001500000005  0.79920756  0.5419185450780254  1.0000
  Na  Na16      1.0  0.289517495  0.20601818  0.5297357348827896  1.0000
  Na  Na17      1.0  0.22194980500000006  0.84772438  0.45216232431109166  1.0000
  Na  Na18      1.0  0.221949805  0.51439105  0.4879176422261318  1.0000
  Na  Na19      1.0  0.9851324149999998  0.23369715  0.5379980816953904  1.0000
  Na  Na20      1.0  0.9851370749999999  0.91612301  0.4668360140941073  1.0000
  Na  Na21      1.0  0.9851370749999999  0.58278968  0.5025913320091475  1.0000
  Na  Na22      1.0  0.688393805  0.35462965999999996  0.45364372721606  1.0000
  Na  Na23      1.0  0.688393805  0.021296330000000006  0.4893990451311001  1.0000
  Na  Na24      1.0  0.6890134250000001  0.7034042599999999  0.5241671419036343  1.0000
  Na  Na25      1.0  0.8077760450000001  0.46761144999999993  0.4778819253061442  1.0000
  Na  Na26      1.0  0.8116396649999998  0.13716976  0.5132272663059134  1.0000
  Na  Na27      1.0  0.807776045  0.80094478  0.4421266073911041  1.0000
  Na  Na28      1.0  0.841332045  0.12737284  0.4585228650526453  1.0000
  Na  Na29      1.0  0.841332045  0.7940395  0.49427818296768544  1.0000
  Na  Na30      1.0  0.8472274650000001  0.44298758999999993  0.5292240183546931  1.0000
  Na  Na31      1.0  0.544588775  0.23254615000000003  0.481085896089638  1.0000
  Na  Na32      1.0  0.5498532549999999  0.9073660600000001  0.5156292492336381  1.0000
  Na  Na33      1.0  0.544588775  0.5658794899999999  0.4453305781745978  1.0000
  Na  Na34      1.0  0.746443655  0.016046750000000005  0.5419360798436595  1.0000
  Na  Na35      1.0  0.721949805  0.6810577200000001  0.4700399848776011  1.0000
  Na  Na36      1.0  0.721949805  0.34772437999999994  0.5057953027926412  1.0000
  Zn  Zn1       1.0  0.014862925000000037  0.32433457999999993  0.5007774443326474  1.0000
  Zn  Zn2       1.0  0.04620620500000005  0.026457960000000006  0.5322197473041418  1.0000
  Zn  Zn3       1.0  0.014862925000000034  0.65766792  0.4650221264176074  1.0000
  Zn  Zn4       1.0  0.514862925  0.49100124999999994  0.48289978376613807  1.0000
  Zn  Zn5       1.0  0.530238655  0.15865395000000002  0.517198901984954  1.0000
  Zn  Zn6       1.0  0.514862925  0.8243345799999999  0.4471444658510979  1.0000
  Sn  Sn1       1.0  0.16047615500000004  0.07454539999999998  0.44718969132296815  1.0000
  Sn  Sn2       1.0  0.16047615500000004  0.7412120600000001  0.48294500923800826  1.0000
  Sn  Sn3       1.0  0.15625574500000003  0.40785643999999993  0.5193343976651673  1.0000
  Sn  Sn4       1.0  0.3692496950000001  0.4074571  0.4649768977277584  1.0000
  Sn  Sn5       1.0  0.3692496950000001  0.07412377  0.5007322188607772  1.0000
  Sn  Sn6       1.0  0.349533105  0.7489904399999999  0.5356268658614864  1.0000
  Sn  Sn7       1.0  0.663264155  0.23269259  0.536368069318639  1.0000
  Sn  Sn8       1.0  0.660476155  0.9078787300000001  0.46506735188947756  1.0000
  Sn  Sn9       1.0  0.660476155  0.5745454000000001  0.5008226698045176  1.0000
  Sn  Sn10      1.0  0.8692496949999999  0.24079044  0.4828545582942677  1.0000
  Sn  Sn11      1.0  0.8735619450000002  0.9066185200000001  0.5196736981154683  1.0000
  Sn  Sn12      1.0  0.8692496949999999  0.57412377  0.4470992403792276  1.0000
