data_image0
_chemical_formula_structural       COCa8In8
_chemical_formula_sum              "C1 O1 Ca8 In8"
_cell_length_a       5.55089925
_cell_length_b       6.79843539
_cell_length_c       108.4577581
_cell_angle_alpha    90.0
_cell_angle_beta     90.0
_cell_angle_gamma    90.0

_space_group_name_H-M_alt    "P 1"
_space_group_IT_number       1

loop_
  _space_group_symop_operation_xyz
  'x, y, z'

loop_
  _atom_site_type_symbol
  _atom_site_label
  _atom_site_symmetry_multiplicity
  _atom_site_fract_x
  _atom_site_fract_y
  _atom_site_fract_z
  _atom_site_occupancy
  C   C1        1.0  0.24999658000000002  0.7642857000000001  0.558283277613993  1.0000
  O   O1        1.0  0.24999793  0.77425071  0.5689051888531723  1.0000
  Ca  Ca1       1.0  0.24999699000000003  0.09778108000000002  0.4754182403483392  1.0000
  Ca  Ca2       1.0  0.74999699  0.09778108000000002  0.4310948111468278  1.0000
  Ca  Ca3       1.0  0.24999699000000003  0.76444774  0.44586928518341534  1.0000
  Ca  Ca4       1.0  0.74999699  0.43111441  0.4606437627658773  1.0000
  Ca  Ca5       1.0  0.24999868000000003  0.7513880000000001  0.5340978084240112  1.0000
  Ca  Ca6       1.0  0.74999699  0.76444774  0.49019271438492673  1.0000
  Ca  Ca7       1.0  0.24999699000000003  0.43111441  0.5049671919673887  1.0000
  Ca  Ca8       1.0  0.75000342  0.06888559000000001  0.5197227913148851  1.0000
  In  In1       1.0  0.24999699000000003  0.26444774000000004  0.44586928518341534  1.0000
  In  In2       1.0  0.74999699  0.9311144100000001  0.4606437627658773  1.0000
  In  In3       1.0  0.24999699000000003  0.5977810800000001  0.4754182403483392  1.0000
  In  In4       1.0  0.74999699  0.5977810800000001  0.4310948111468278  1.0000
  In  In5       1.0  0.24999699000000003  0.9311144100000001  0.5049671919673887  1.0000
  In  In6       1.0  0.74999716  0.5578136300000001  0.522393128997554  1.0000
  In  In7       1.0  0.25000665000000005  0.25185215  0.5334167133356549  1.0000
  In  In8       1.0  0.74999699  0.26444774000000004  0.49019271438492673  1.0000
