data_image0
_chemical_formula_structural       COGa9Ni6Ga9Ni6
_chemical_formula_sum              "C1 O1 Ga18 Ni12"
_cell_length_a       4.96772355
_cell_length_b       10.866962483793461
_cell_length_c       98.75128024
_cell_angle_alpha    79.10660537341458
_cell_angle_beta     90.0
_cell_angle_gamma    90.0

_space_group_name_H-M_alt    "P 1"
_space_group_IT_number       1

loop_
  _space_group_symop_operation_xyz
  'x, y, z'

loop_
  _atom_site_type_symbol
  _atom_site_label
  _atom_site_symmetry_multiplicity
  _atom_site_fract_x
  _atom_site_fract_y
  _atom_site_fract_z
  _atom_site_occupancy
  C   C1        1.0  0.012894654999999965  0.387311445  0.5375593150243675  1.0000
  O   O1        1.0  0.017863994999999962  0.381866275  0.549698993393789  1.0000
  Ga  Ga1       1.0  0.644161465  0.8333333350000001  0.45030100660621103  1.0000
  Ga  Ga2       1.0  0.644161465  0.49999999500000003  0.4780294270222048  1.0000
  Ga  Ga3       1.0  0.644161465  0.166666665  0.4641652182699501  1.0000
  Ga  Ga4       1.0  0.364974305  0.6111111149999999  0.45492240855313454  1.0000
  Ga  Ga5       1.0  0.364974305  0.277777775  0.48265083188061264  1.0000
  Ga  Ga6       1.0  0.364974305  0.9444444450000001  0.46878662021687356  1.0000
  Ga  Ga7       1.0  0.004567884999999963  0.722222225  0.47340802507528135  1.0000
  Ga  Ga8       1.0  0.004567884999999963  0.38888888499999996  0.45954381341154227  1.0000
  Ga  Ga9       1.0  0.004567884999999963  0.05555555499999997  0.4872722367390205  1.0000
  Ni  Ni1       1.0  0.14614150499999998  0.8333333350000001  0.45030100660621103  1.0000
  Ni  Ni2       1.0  0.14614150499999998  0.49999999500000003  0.4780294270222048  1.0000
  Ni  Ni3       1.0  0.14614150499999998  0.166666665  0.4641652182699501  1.0000
  Ni  Ni4       1.0  0.8629942650000002  0.6111111149999999  0.45492240855313454  1.0000
  Ni  Ni5       1.0  0.8629942650000002  0.277777775  0.48265083188061264  1.0000
  Ni  Ni6       1.0  0.8629942650000002  0.9444444450000001  0.46878662021687356  1.0000
  Ga  Ga10      1.0  0.644161465  0.8333333350000001  0.4918936386859439  1.0000
  Ga  Ga11      1.0  0.6150467550000001  0.505281265  0.5196896666789566  1.0000
  Ga  Ga12      1.0  0.6514595350000001  0.16356143499999998  0.5044356317794345  1.0000
  Ga  Ga13      1.0  0.364974305  0.6111111149999999  0.4965150435443517  1.0000
  Ga  Ga14      1.0  0.390943745  0.263478315  0.5237618957220422  1.0000
  Ga  Ga15      1.0  0.372527495  0.9416159749999999  0.5107653704334935  1.0000
  Ga  Ga16      1.0  0.9959961550000002  0.718929375  0.5165411584379722  1.0000
  Ga  Ga17      1.0  0.004003844999999963  0.388742175  0.501150933037171  1.0000
  Ga  Ga18      1.0  0.9221322750000002  0.056420374999999974  0.5289780090987994  1.0000
  Ni  Ni7       1.0  0.14614150499999998  0.8333333350000001  0.4918936386859439  1.0000
  Ni  Ni8       1.0  0.11538442499999998  0.496900255  0.5206607893570083  1.0000
  Ni  Ni9       1.0  0.15239423499999996  0.16622178499999998  0.5057558210451233  1.0000
  Ni  Ni10      1.0  0.8629942650000002  0.6111111149999999  0.4965150435443517  1.0000
  Ni  Ni11      1.0  0.8881634950000001  0.282906275  0.5249605771017956  1.0000
  Ni  Ni12      1.0  0.8749897750000002  0.937630385  0.5109290482580852  1.0000
