data_image0
_chemical_formula_structural       COAu8Mn2Au8Mn2
_chemical_formula_sum              "C1 O1 Au16 Mn4"
_cell_length_a       5.036946442184394
_cell_length_b       7.95383682
_cell_length_c       107.02268233000001
_cell_angle_alpha    90.0
_cell_angle_beta     90.0
_cell_angle_gamma    113.25192564112449

_space_group_name_H-M_alt    "P 1"
_space_group_IT_number       1

loop_
  _space_group_symop_operation_xyz
  'x, y, z'

loop_
  _atom_site_type_symbol
  _atom_site_label
  _atom_site_symmetry_multiplicity
  _atom_site_fract_x
  _atom_site_fract_y
  _atom_site_fract_z
  _atom_site_occupancy
  C   C1        1.0  0.40822916499999995  0.12563307999999998  0.5425782503312302  1.0000
  O   O1        1.0  0.48012591499999996  0.17091992999999997  0.5527198863731873  1.0000
  Au  Au1       1.0  0.682797355  0.42326601999999997  0.4472801136268127  1.0000
  Au  Au2       1.0  0.682797355  0.17326601999999997  0.4905217441905119  1.0000
  Au  Au3       1.0  0.885366015  0.47390819000000006  0.47276814208787865  1.0000
  Au  Au4       1.0  0.921201985  0.23176746999999998  0.5155153132544081  1.0000
  Au  Au5       1.0  0.29070623500000004  0.07465989999999999  0.5247217642818293  1.0000
  Au  Au6       1.0  0.272230015  0.3206241799999999  0.48176234589584094  1.0000
  Au  Au7       1.0  0.474798675  0.12126635  0.46400874379320767  1.0000
  Au  Au8       1.0  0.512699865  0.37691442999999997  0.5075485928565872  1.0000
  Mn  Mn1       1.0  0.10744301500000002  0.02609180999999999  0.4999580573480184  1.0000
  Mn  Mn2       1.0  0.07879801500000003  0.27226619  0.45564442871001015  1.0000
  Au  Au9       1.0  0.682797355  0.92326602  0.4472801136268127  1.0000
  Au  Au10      1.0  0.682797355  0.6732660199999999  0.4905217441905119  1.0000
  Au  Au11      1.0  0.885366015  0.97390819  0.47276814208787865  1.0000
  Au  Au12      1.0  0.910905275  0.7314834000000001  0.5158445965414854  1.0000
  Au  Au13      1.0  0.296518785  0.5773452800000002  0.5229341829489694  1.0000
  Au  Au14      1.0  0.272230015  0.8206241800000001  0.48176234589584094  1.0000
  Au  Au15      1.0  0.474798675  0.6212663500000002  0.46400874379320767  1.0000
  Au  Au16      1.0  0.510994295  0.8840933800000002  0.5075762432848349  1.0000
  Mn  Mn3       1.0  0.09085463500000002  0.5280900000000001  0.4986307226342264  1.0000
  Mn  Mn4       1.0  0.07879801500000003  0.7722661900000001  0.45564442871001015  1.0000
