data_image0
_chemical_formula_structural       COPt5Se10
_chemical_formula_sum              "C1 O1 Pt5 Se10"
_cell_length_a       7.22300164805873
_cell_length_b       6.551872745240017
_cell_length_c       105.95325346
_cell_angle_alpha    111.37473513362232
_cell_angle_beta     104.63121331775181
_cell_angle_gamma    90.00000004511932

_space_group_name_H-M_alt    "P 1"
_space_group_IT_number       1

loop_
  _space_group_symop_operation_xyz
  'x, y, z'

loop_
  _atom_site_type_symbol
  _atom_site_label
  _atom_site_symmetry_multiplicity
  _atom_site_fract_x
  _atom_site_fract_y
  _atom_site_fract_z
  _atom_site_occupancy
  C   C1        1.0  0.9469864849999999  0.28612717500000007  0.5375377054199961  1.0000
  O   O1        1.0  0.982877565  0.29262888500000006  0.5489816529472541  1.0000
  Pt  Pt1       1.0  0.10145166500000001  0.8986623250000001  0.45101834705274596  1.0000
  Pt  Pt2       1.0  0.5014516649999999  0.09866232500000004  0.48495147537671324  1.0000
  Pt  Pt3       1.0  0.30145166500000004  0.4986623250000001  0.4679849112147295  1.0000
  Pt  Pt4       1.0  0.8889888950000001  0.2974485150000001  0.5191256137446013  1.0000
  Pt  Pt5       1.0  0.704933985  0.699486975  0.5022543066604488  1.0000
  Se  Se1       1.0  0.829601405  0.32261241500000004  0.4946705035851917  1.0000
  Se  Se2       1.0  0.134402915  0.6457397650000001  0.5303582019954678  1.0000
  Se  Se3       1.0  0.017122435  0.9324049250000002  0.5083518862214959  1.0000
  Se  Se4       1.0  0.6296014050000001  0.7226124150000002  0.47770393942320816  1.0000
  Se  Se5       1.0  0.429601405  0.12261241500000004  0.4607373752612246  1.0000
  Se  Se6       1.0  0.9733019249999999  0.274712235  0.45826588300625104  1.0000
  Se  Se7       1.0  0.373301925  0.47471223500000004  0.4921990113302182  1.0000
  Se  Se8       1.0  0.173301925  0.8747122350000002  0.4752324471682346  1.0000
  Se  Se9       1.0  0.8036372650000001  0.6969152650000001  0.5269619912739122  1.0000
  Se  Se10      1.0  0.563563665  0.06759507500000003  0.5087507599650055  1.0000
