data_image0
_chemical_formula_structural       COAu12In6Ti6
_chemical_formula_sum              "C1 O1 Au12 In6 Ti6"
_cell_length_a       6.71346957
_cell_length_b       8.222287433560977
_cell_length_c       106.15314008
_cell_angle_alpha    94.34775313936697
_cell_angle_beta     90.0
_cell_angle_gamma    114.09484256391374

_space_group_name_H-M_alt    "P 1"
_space_group_IT_number       1

loop_
  _space_group_symop_operation_xyz
  'x, y, z'

loop_
  _atom_site_type_symbol
  _atom_site_label
  _atom_site_symmetry_multiplicity
  _atom_site_fract_x
  _atom_site_fract_y
  _atom_site_fract_z
  _atom_site_occupancy
  C   C1        1.0  0.511431835  0.08880430999999998  0.5414552166973193  1.0000
  O   O1        1.0  0.47750210499999995  0.02002755999999997  0.5509720832644706  1.0000
  Au  Au1       1.0  0.9591615450000001  0.52998595  0.5201649302328096  1.0000
  Au  Au2       1.0  0.561671785  0.68830577  0.49159983223981163  1.0000
  Au  Au3       1.0  0.14500511500000007  0.8549724400000001  0.46321855296645464  1.0000
  Au  Au4       1.0  0.506846665  0.5311289  0.52014428796242  1.0000
  Au  Au5       1.0  0.061671785000000055  0.68830577  0.49159983223981163  1.0000
  Au  Au6       1.0  0.6450051149999999  0.8549724400000001  0.46321855296645464  1.0000
  Au  Au7       1.0  0.43667178500000003  0.43830577  0.4490279167355294  1.0000
  Au  Au8       1.0  0.24746689500000002  0.10475783999999998  0.5073257820314834  1.0000
  Au  Au9       1.0  0.8533384549999999  0.27163909999999997  0.4774091926031332  1.0000
  Au  Au10      1.0  0.9366717849999999  0.43830577  0.4490279167355294  1.0000
  Au  Au11      1.0  0.7932171650000001  0.10511243999999997  0.5074652544381819  1.0000
  Au  Au12      1.0  0.353338455  0.27163909999999997  0.4774091926031332  1.0000
  In  In1       1.0  0.540838455  0.1466391  0.45612323485099204  1.0000
  In  In2       1.0  0.379970865  0.82530192  0.5166678244733015  1.0000
  In  In3       1.0  0.957505115  0.9799724400000001  0.4845045107185958  1.0000
  In  In4       1.0  0.24917178499999995  0.5633057699999999  0.4703138744876705  1.0000
  In  In5       1.0  0.106368075  0.27486226999999996  0.5305993101286626  1.0000
  In  In6       1.0  0.665838455  0.39663909999999997  0.4986951503552743  1.0000
  Ti  Ti1       1.0  0.457505115  0.9799724400000001  0.4845045107185958  1.0000
  Ti  Ti2       1.0  0.04083845500000001  0.1466391  0.45612323485099204  1.0000
  Ti  Ti3       1.0  0.871105175  0.8064816800000001  0.5111492134434683  1.0000
  Ti  Ti4       1.0  0.16583845499999997  0.39663909999999997  0.4986951503552743  1.0000
  Ti  Ti5       1.0  0.7491717849999999  0.5633057699999999  0.4703138744876705  1.0000
  Ti  Ti6       1.0  0.579018035  0.22513969999999997  0.5249244567631755  1.0000
