data_image0
_chemical_formula_structural       COGe12Re6
_chemical_formula_sum              "C1 O1 Ge12 Re6"
_cell_length_a       7.006610388041662
_cell_length_b       4.8867261127685095
_cell_length_c       100.00998931000001
_cell_angle_alpha    91.23693811999324
_cell_angle_beta     93.22056072773931
_cell_angle_gamma    77.66462361550087

_space_group_name_H-M_alt    "P 1"
_space_group_IT_number       1

loop_
  _space_group_symop_operation_xyz
  'x, y, z'

loop_
  _atom_site_type_symbol
  _atom_site_label
  _atom_site_symmetry_multiplicity
  _atom_site_fract_x
  _atom_site_fract_y
  _atom_site_fract_z
  _atom_site_occupancy
  C   C1        1.0  0.98244648  0.91768957  0.5392273677243713  1.0000
  O   O1        1.0  0.95686178  0.9248867199999998  0.550790453996485  1.0000
  Ge  Ge1       1.0  0.68699356  0.23198112999999998  0.5183760312313078  1.0000
  Ge  Ge2       1.0  0.74499326  0.6936385599999999  0.5098785552657525  1.0000
  Ge  Ge3       1.0  0.13338755000000002  0.36518682  0.5225936879719598  1.0000
  Ge  Ge4       1.0  0.42389684  0.7404982300000001  0.5293362080217054  1.0000
  Ge  Ge5       1.0  0.5940007600000001  0.03901292000000001  0.48815274001361647  1.0000
  Ge  Ge6       1.0  0.6403154999999999  0.49535699  0.47928022166081696  1.0000
  Ge  Ge7       1.0  0.043138219999999894  0.1609870800000001  0.49572312296064436  1.0000
  Ge  Ge8       1.0  0.29888694000000005  0.5782767000000001  0.5015544566982258  1.0000
  Ge  Ge9       1.0  0.49400076000000004  0.8390129199999998  0.4581457481950509  1.0000
  Ge  Ge10      1.0  0.5403155000000001  0.29535699000000004  0.4492732298422514  1.0000
  Ge  Ge11      1.0  0.94313822  0.9609870799999999  0.4657161311420789  1.0000
  Ge  Ge12      1.0  0.19117804000000002  0.37338283000000005  0.47170984171448815  1.0000
  Re  Re1       1.0  0.030058780000000063  0.89783767  0.5202956025035348  1.0000
  Re  Re2       1.0  0.39463635  0.05015753000000005  0.5088743862880403  1.0000
  Re  Re3       1.0  0.9425378600000001  0.6868678  0.4882164268530523  1.0000
  Re  Re4       1.0  0.29177840000000005  0.8475021100000001  0.4792165378220804  1.0000
  Re  Re5       1.0  0.84253786  0.4868678  0.45820943503448663  1.0000
  Re  Re6       1.0  0.19177840000000002  0.6475021100000001  0.44920954600351476  1.0000
