data_image0
_chemical_formula_structural       COCo4Cu2Ge4Co4Cu2Ge4
_chemical_formula_sum              "C1 O1 Co8 Cu4 Ge8"
_cell_length_a       5.06104839
_cell_length_b       6.74236755
_cell_length_c       101.18629184
_cell_angle_alpha    90.0
_cell_angle_beta     90.0
_cell_angle_gamma    90.0

_space_group_name_H-M_alt    "P 1"
_space_group_IT_number       1

loop_
  _space_group_symop_operation_xyz
  'x, y, z'

loop_
  _atom_site_type_symbol
  _atom_site_label
  _atom_site_symmetry_multiplicity
  _atom_site_fract_x
  _atom_site_fract_y
  _atom_site_fract_z
  _atom_site_occupancy
  C   C1        1.0  0.8766091549999999  0.04783473500000003  0.5315411820274871  1.0000
  O   O1        1.0  0.876558815  0.045898255000000034  0.5431548106854952  1.0000
  Co  Co1       1.0  0.37652950500000004  0.9466504649999999  0.45684518931450474  1.0000
  Co  Co2       1.0  0.876529505  0.267602085  0.45684518931450474  1.0000
  Co  Co3       1.0  0.626529505  0.607126275  0.45684518931450474  1.0000
  Co  Co4       1.0  0.126529505  0.607126275  0.45684518931450474  1.0000
  Cu  Cu1       1.0  0.126529505  0.10712627500000003  0.47610810729041075  1.0000
  Cu  Cu2       1.0  0.626529505  0.10712627500000003  0.47610810729041075  1.0000
  Ge  Ge1       1.0  0.37652950500000004  0.7291331449999999  0.47610810729041075  1.0000
  Ge  Ge2       1.0  0.876529505  0.4851194050000001  0.47610810729041075  1.0000
  Ge  Ge3       1.0  0.37652950500000004  0.30291208500000005  0.45684518931450474  1.0000
  Ge  Ge4       1.0  0.876529505  0.911340465  0.45684518931450474  1.0000
  Co  Co5       1.0  0.376526015  0.954101745  0.49563824354654534  1.0000
  Co  Co6       1.0  0.8765246649999999  0.262639485  0.49596165098799294  1.0000
  Co  Co7       1.0  0.6252258049999999  0.6073244050000001  0.49498928046303736  1.0000
  Co  Co8       1.0  0.12780078499999997  0.607358225  0.4949902451499696  1.0000
  Cu  Cu3       1.0  0.123390845  0.06975549500000003  0.51622355313633  1.0000
  Cu  Cu4       1.0  0.629713995  0.06981890500000003  0.5162219473794875  1.0000
  Ge  Ge5       1.0  0.376611525  0.7217174249999999  0.5150486538328092  1.0000
  Ge  Ge6       1.0  0.876525775  0.4917575050000001  0.5151599318573724  1.0000
  Ge  Ge7       1.0  0.376459455  0.304000655  0.4963068948732581  1.0000
  Ge  Ge8       1.0  0.8765037950000001  0.9074648550000001  0.49488878967254063  1.0000
