data_image0
_chemical_formula_structural       COFe4Cu2Ge4Fe4Cu2Ge4
_chemical_formula_sum              "C1 O1 Fe8 Cu4 Ge8"
_cell_length_a       4.96200214
_cell_length_b       6.78898531
_cell_length_c       101.81299304
_cell_angle_alpha    90.0
_cell_angle_beta     90.0
_cell_angle_gamma    90.0

_space_group_name_H-M_alt    "P 1"
_space_group_IT_number       1

loop_
  _space_group_symop_operation_xyz
  'x, y, z'

loop_
  _atom_site_type_symbol
  _atom_site_label
  _atom_site_symmetry_multiplicity
  _atom_site_fract_x
  _atom_site_fract_y
  _atom_site_fract_z
  _atom_site_occupancy
  C   C1        1.0  0.8762653800000001  0.987024585  0.5320406540616962  1.0000
  O   O1        1.0  0.8761237100000001  0.976988465  0.543557115811779  1.0000
  Fe  Fe1       1.0  0.37604938000000004  0.8855128949999999  0.4564428841882209  1.0000
  Fe  Fe2       1.0  0.8760493800000001  0.20404603499999996  0.4564428841882209  1.0000
  Fe  Fe3       1.0  0.62604938  0.544779465  0.4564428841882209  1.0000
  Fe  Fe4       1.0  0.12604938  0.544779465  0.4564428841882209  1.0000
  Cu  Cu1       1.0  0.12604938  0.044779464999999984  0.47597194433694706  1.0000
  Cu  Cu2       1.0  0.62604938  0.044779464999999984  0.47597194433694706  1.0000
  Ge  Ge1       1.0  0.37604938000000004  0.669225705  0.47597194433694706  1.0000
  Ge  Ge2       1.0  0.8760493800000001  0.420333225  0.47597194433694706  1.0000
  Ge  Ge3       1.0  0.8760493800000001  0.8516548749999999  0.4564428841882209  1.0000
  Ge  Ge4       1.0  0.37604938000000004  0.23790405500000003  0.4564428841882209  1.0000
  Fe  Fe5       1.0  0.37602266999999995  0.896205305  0.4961548405441022  1.0000
  Fe  Fe6       1.0  0.8760106  0.19812912499999996  0.49569752932376193  1.0000
  Fe  Fe7       1.0  0.6260466  0.546986945  0.49517783134903287  1.0000
  Fe  Fe8       1.0  0.12590889  0.546967935  0.49518724591834934  1.0000
  Cu  Cu3       1.0  0.12373461999999999  0.022572175000000083  0.5166771736891896  1.0000
  Cu  Cu4       1.0  0.62860667  0.023011534999999972  0.5166815325754148  1.0000
  Ge  Ge5       1.0  0.37602148  0.6602182249999999  0.5148813063151098  1.0000
  Ge  Ge6       1.0  0.87574874  0.42118384499999995  0.5145461970169064  1.0000
  Ge  Ge7       1.0  0.8760915499999999  0.8465899849999999  0.49552489868134636  1.0000
  Ge  Ge8       1.0  0.37587992000000003  0.24501100499999998  0.4961127640122681  1.0000
