data_image0
_chemical_formula_structural       CORu4Sb4V4Ru4Sb4V4Ru4Sb4V4Ru4Sb4V4
_chemical_formula_sum              "C1 O1 Ru16 Sb16 V16"
_cell_length_a       8.57639032
_cell_length_b       8.57639032
_cell_length_c       106.38654248
_cell_angle_alpha    90.0
_cell_angle_beta     90.0
_cell_angle_gamma    90.0

_space_group_name_H-M_alt    "P 1"
_space_group_IT_number       1

loop_
  _space_group_symop_operation_xyz
  'x, y, z'

loop_
  _atom_site_type_symbol
  _atom_site_label
  _atom_site_symmetry_multiplicity
  _atom_site_fract_x
  _atom_site_fract_y
  _atom_site_fract_z
  _atom_site_occupancy
  C   C1        1.0  0.374995185  0.62254115  0.5533437396582499  1.0000
  O   O1        1.0  0.374985545  0.6225155400000001  0.5644036380198164  1.0000
  Ru  Ru1       1.0  0.12498761499999998  0.12253401000000003  0.43559636198018364  1.0000
  Ru  Ru2       1.0  0.374987615  0.37253401  0.4640981976575194  1.0000
  Ru  Ru3       1.0  0.12498761499999998  0.12253401000000003  0.4926000367550756  1.0000
  Ru  Ru4       1.0  0.374998415  0.3676052900000001  0.5211045880874232  1.0000
  Sb  Sb1       1.0  0.12498761499999998  0.37253401  0.47834911720629747  1.0000
  Sb  Sb2       1.0  0.374987615  0.12253401000000003  0.44984728152896175  1.0000
  Sb  Sb3       1.0  0.12702674499999997  0.37634049  0.5369540194732241  1.0000
  Sb  Sb4       1.0  0.374987615  0.12253401000000003  0.5068509528836332  1.0000
  V   V1        1.0  0.374987615  0.12253401000000003  0.47834911720629747  1.0000
  V   V2        1.0  0.12498761499999998  0.37253401  0.44984728152896175  1.0000
  V   V3        1.0  0.37497830499999996  0.12259363000000002  0.5337137129097876  1.0000
  V   V4        1.0  0.12498761499999998  0.37253401  0.5068509528836332  1.0000
  Ru  Ru5       1.0  0.12498761499999998  0.6225340100000001  0.43559636198018364  1.0000
  Ru  Ru6       1.0  0.374987615  0.87253401  0.4640981976575194  1.0000
  Ru  Ru7       1.0  0.12498761499999998  0.6225340100000001  0.4926000367550756  1.0000
  Ru  Ru8       1.0  0.374907605  0.87746599  0.5210944197721202  1.0000
  Sb  Sb5       1.0  0.12498761499999998  0.87253401  0.47834911720629747  1.0000
  Sb  Sb6       1.0  0.374987615  0.6225340100000001  0.44984728152896175  1.0000
  Sb  Sb7       1.0  0.127058915  0.8689321099999999  0.5369499801929103  1.0000
  Sb  Sb8       1.0  0.374987615  0.6225340100000001  0.5068509528836332  1.0000
  V   V5        1.0  0.374987615  0.6225340100000001  0.47834911720629747  1.0000
  V   V6        1.0  0.12498761499999998  0.87253401  0.44984728152896175  1.0000
  V   V7        1.0  0.375008685  0.6225701000000001  0.534877610497843  1.0000
  V   V8        1.0  0.12498761499999998  0.87253401  0.5068509528836332  1.0000
  Ru  Ru9       1.0  0.624987615  0.12253401000000003  0.43559636198018364  1.0000
  Ru  Ru10      1.0  0.8749876149999999  0.37253401  0.4640981976575194  1.0000
  Ru  Ru11      1.0  0.624987615  0.12253401000000003  0.4926000367550756  1.0000
  Ru  Ru12      1.0  0.875009765  0.37311135  0.5213069454284595  1.0000
  Sb  Sb9       1.0  0.624987615  0.37253401  0.47834911720629747  1.0000
  Sb  Sb10      1.0  0.8749876149999999  0.12253401000000003  0.44984728152896175  1.0000
  Sb  Sb11      1.0  0.622976405  0.37634534000000003  0.5369538279408806  1.0000
  Sb  Sb12      1.0  0.8749876149999999  0.12253401000000003  0.5068509528836332  1.0000
  V   V9        1.0  0.8749876149999999  0.12253401000000003  0.47834911720629747  1.0000
  V   V10       1.0  0.624987615  0.37253401  0.44984728152896175  1.0000
  V   V11       1.0  0.8750123850000001  0.12259074000000003  0.5336321987965633  1.0000
  V   V12       1.0  0.624987615  0.37253401  0.5068509528836332  1.0000
  Ru  Ru13      1.0  0.624987615  0.6225340100000001  0.43559636198018364  1.0000
  Ru  Ru14      1.0  0.8749876149999999  0.87253401  0.4640981976575194  1.0000
  Ru  Ru15      1.0  0.624987615  0.6225340100000001  0.4926000367550756  1.0000
  Ru  Ru16      1.0  0.874944065  0.8719557  0.5213117166359428  1.0000
  Sb  Sb13      1.0  0.624987615  0.87253401  0.47834911720629747  1.0000
  Sb  Sb14      1.0  0.8749876149999999  0.6225340100000001  0.44984728152896175  1.0000
  Sb  Sb15      1.0  0.622859365  0.86902672  0.5369490567333974  1.0000
  Sb  Sb16      1.0  0.8749876149999999  0.6225340100000001  0.5068509528836332  1.0000
  V   V13       1.0  0.8749876149999999  0.6225340100000001  0.47834911720629747  1.0000
  V   V14       1.0  0.624987615  0.87253401  0.44984728152896175  1.0000
  V   V15       1.0  0.874972455  0.62252649  0.5333940112264272  1.0000
  V   V16       1.0  0.624987615  0.87253401  0.5068509528836332  1.0000
