data_image0
_chemical_formula_structural       CONa6Pt2
_chemical_formula_sum              "C1 O1 Na6 Pt2"
_cell_length_a       4.88993502
_cell_length_b       4.88993502
_cell_length_c       101.3198048
_cell_angle_alpha    90.0
_cell_angle_beta     90.0
_cell_angle_gamma    90.0

_space_group_name_H-M_alt    "P 1"
_space_group_IT_number       1

loop_
  _space_group_symop_operation_xyz
  'x, y, z'

loop_
  _atom_site_type_symbol
  _atom_site_label
  _atom_site_symmetry_multiplicity
  _atom_site_fract_x
  _atom_site_fract_y
  _atom_site_fract_z
  _atom_site_occupancy
  C   C1        1.0  0.749999985  0.7499999549999999  0.5363998996613637  1.0000
  O   O1        1.0  0.7499999749999999  0.749999935  0.5478505406561238  1.0000
  Na  Na1       1.0  0.750000005  0.7499999749999999  0.5105640062771841  1.0000
  Na  Na2       1.0  0.24999999500000003  0.24999999499999997  0.5100588729883592  1.0000
  Na  Na3       1.0  0.250000005  0.749999985  0.4521494593438762  1.0000
  Na  Na4       1.0  0.250000005  0.24999998499999998  0.47146935246708127  1.0000
  Na  Na5       1.0  0.750000005  0.749999985  0.47146935246708127  1.0000
  Na  Na6       1.0  0.7499999749999999  0.249999955  0.4893846182630226  1.0000
  Pt  Pt1       1.0  0.750000005  0.24999998499999998  0.4521494593438762  1.0000
  Pt  Pt2       1.0  0.250000095  0.750000045  0.49066561063902936  1.0000
