data_image0
_chemical_formula_structural       COSn48Pd12
_chemical_formula_sum              "C1 O1 Sn48 Pd12"
_cell_length_a       11.7303077
_cell_length_b       14.755539187840785
_cell_length_c       107.27466527
_cell_angle_alpha    108.68501840578013
_cell_angle_beta     90.0
_cell_angle_gamma    90.0

_space_group_name_H-M_alt    "P 1"
_space_group_IT_number       1

loop_
  _space_group_symop_operation_xyz
  'x, y, z'

loop_
  _atom_site_type_symbol
  _atom_site_label
  _atom_site_symmetry_multiplicity
  _atom_site_fract_x
  _atom_site_fract_y
  _atom_site_fract_z
  _atom_site_occupancy
  C   C1        1.0  0.6241534349999999  0.05941712499999998  0.5419387714671371  1.0000
  O   O1        1.0  0.6703929649999999  0.09807869499999998  0.5518263055676355  1.0000
  Sn  Sn1       1.0  0.18551031499999998  0.6674666949999999  0.49621063580185765  1.0000
  Sn  Sn2       1.0  0.18551031499999998  0.000800024999999982  0.46725485231126  1.0000
  Sn  Sn3       1.0  0.17712382499999996  0.32988252500000004  0.5239055049029804  1.0000
  Sn  Sn4       1.0  0.18072345499999998  0.6569029849999999  0.5241611242533974  1.0000
  Sn  Sn5       1.0  0.18551031499999998  0.0011725849999999743  0.4969434557491385  1.0000
  Sn  Sn6       1.0  0.18551031499999998  0.334505915  0.4679876722585409  1.0000
  Sn  Sn7       1.0  0.4411938649999999  0.6225500449999999  0.5293743260380354  1.0000
  Sn  Sn8       1.0  0.4331768249999999  0.9458357149999999  0.5012281567103015  1.0000
  Sn  Sn9       1.0  0.4322075349999999  0.28151401499999995  0.4725909366547907  1.0000
  Sn  Sn10      1.0  0.4322075349999999  0.7204585949999999  0.49160737140560784  1.0000
  Sn  Sn11      1.0  0.4322075349999999  0.05379192499999997  0.46265158791501027  1.0000
  Sn  Sn12      1.0  0.43717312499999994  0.38945160500000003  0.5206760720322534  1.0000
  Sn  Sn13      1.0  0.4346837449999999  0.828900875  0.5235577714104384  1.0000
  Sn  Sn14      1.0  0.4322075349999999  0.167466695  0.4962106358018576  1.0000
  Sn  Sn15      1.0  0.4322075349999999  0.500800025  0.46725485231126  1.0000
  Sn  Sn16      1.0  0.4322075349999999  0.501172585  0.49694345574913845  1.0000
  Sn  Sn17      1.0  0.4322075349999999  0.8345059149999998  0.4679876722585409  1.0000
  Sn  Sn18      1.0  0.43174122499999995  0.16346537499999997  0.5245655995015372  1.0000
  Sn  Sn19      1.0  0.191359555  0.44104348499999996  0.49978497028938784  1.0000
  Sn  Sn20      1.0  0.18551031499999998  0.7815140149999998  0.4725909366547907  1.0000
  Sn  Sn21      1.0  0.17340356499999995  0.12051703499999998  0.5292351541129307  1.0000
  Sn  Sn22      1.0  0.17607174499999997  0.8888351549999999  0.52085855949473  1.0000
  Sn  Sn23      1.0  0.18551031499999998  0.22045859499999998  0.49160737140560784  1.0000
  Sn  Sn24      1.0  0.18551031499999998  0.553791925  0.46265158791501027  1.0000
  Sn  Sn25      1.0  0.678285415  0.503914175  0.5110513811713263  1.0000
  Sn  Sn26      1.0  0.6855103149999999  0.8341333649999999  0.48173274579390585  1.0000
  Sn  Sn27      1.0  0.6855103149999999  0.167466695  0.4527769588286141  1.0000
  Sn  Sn28      1.0  0.6876882549999999  0.8330197049999999  0.5113862513460958  1.0000
  Sn  Sn29      1.0  0.6855103149999999  0.167839245  0.48246556574118676  1.0000
  Sn  Sn30      1.0  0.6855103149999999  0.501172585  0.45350977877589504  1.0000
  Sn  Sn31      1.0  0.942971345  0.7818927049999999  0.5163688967492773  1.0000
  Sn  Sn32      1.0  0.932207535  0.11484734499999998  0.4870688301374365  1.0000
  Sn  Sn33      1.0  0.932207535  0.448180685  0.4581130466468389  1.0000
  Sn  Sn34      1.0  0.933535385  0.557482745  0.5060562511920356  1.0000
  Sn  Sn35      1.0  0.932207535  0.8871252649999999  0.47712947792296195  1.0000
  Sn  Sn36      1.0  0.932207535  0.22045859499999998  0.4481736944323644  1.0000
  Sn  Sn37      1.0  0.932207535  0.6674666949999999  0.4527769588286142  1.0000
  Sn  Sn38      1.0  0.936391655  0.002251394999999974  0.510507786118494  1.0000
  Sn  Sn39      1.0  0.932207535  0.334133365  0.48173274579390585  1.0000
  Sn  Sn40      1.0  0.932207535  0.6678392449999998  0.48246556574118676  1.0000
  Sn  Sn41      1.0  0.932207535  0.0011725849999999743  0.45350977877589504  1.0000
  Sn  Sn42      1.0  0.924586375  0.33131908499999996  0.511555149279721  1.0000
  Sn  Sn43      1.0  0.6855103149999999  0.6148473449999998  0.4870688301374365  1.0000
  Sn  Sn44      1.0  0.6855103149999999  0.9481806849999999  0.45811304664683894  1.0000
  Sn  Sn45      1.0  0.6706437449999999  0.28042709499999996  0.5163029053578313  1.0000
  Sn  Sn46      1.0  0.6855103149999999  0.7204585949999999  0.4481736944323644  1.0000
  Sn  Sn47      1.0  0.6816039649999999  0.05736800499999998  0.5060023795338121  1.0000
  Sn  Sn48      1.0  0.6855103149999999  0.387125265  0.477129477922962  1.0000
  Pd  Pd1       1.0  0.05885892499999997  0.500986305  0.48209915576754636  1.0000
  Pd  Pd2       1.0  0.05885892499999997  0.834319635  0.4531433688022546  1.0000
  Pd  Pd3       1.0  0.05702865499999997  0.165787735  0.509617030897656  1.0000
  Pd  Pd4       1.0  0.05885892499999997  0.834319635  0.496577045775498  1.0000
  Pd  Pd5       1.0  0.05885892499999997  0.16765297499999995  0.4676212622849004  1.0000
  Pd  Pd6       1.0  0.06538771499999997  0.48785104500000004  0.5218219149753024  1.0000
  Pd  Pd7       1.0  0.5588589249999999  0.6676529749999999  0.4676212622849005  1.0000
  Pd  Pd8       1.0  0.5573551149999999  0.999199975  0.5246092833564899  1.0000
  Pd  Pd9       1.0  0.5588589249999999  0.33431963499999995  0.49657704577549805  1.0000
  Pd  Pd10      1.0  0.558677005  0.666180755  0.5096302069379026  1.0000
  Pd  Pd11      1.0  0.5588589249999999  0.0009863049999999742  0.4820991557675463  1.0000
  Pd  Pd12      1.0  0.5588589249999999  0.33431963499999995  0.4531433688022546  1.0000
