data_image0
_chemical_formula_structural       COTi4Ga12Ti4Ga12
_chemical_formula_sum              "C1 O1 Ti8 Ga24"
_cell_length_a       9.679329950506222
_cell_length_b       5.42471717
_cell_length_c       102.54830303
_cell_angle_alpha    90.0
_cell_angle_beta     73.72656127404811
_cell_angle_gamma    73.72656127404811

_space_group_name_H-M_alt    "P 1"
_space_group_IT_number       1

loop_
  _space_group_symop_operation_xyz
  'x, y, z'

loop_
  _atom_site_type_symbol
  _atom_site_label
  _atom_site_symmetry_multiplicity
  _atom_site_fract_x
  _atom_site_fract_y
  _atom_site_fract_z
  _atom_site_occupancy
  C   C1        1.0  0.49285459500000006  0.7801578650000002  0.5501630210252024  1.0000
  O   O1        1.0  0.4152533950000001  0.8307868950000001  0.5614317696132965  1.0000
  Ti  Ti1       1.0  0.12495992500000007  0.4398312650000001  0.4914673727408587  1.0000
  Ti  Ti2       1.0  0.12219412500000006  0.9431302850000002  0.5183564611943183  1.0000
  Ti  Ti3       1.0  0.624959925  0.18983126500000003  0.5046921591228847  1.0000
  Ti  Ti4       1.0  0.633576815  0.690710985  0.53009750283775  1.0000
  Ga  Ga1       1.0  0.3807546950000001  0.5741036550000002  0.5249102934489421  1.0000
  Ga  Ga2       1.0  0.374959925  0.06483126500000011  0.4980797643448975  1.0000
  Ga  Ga3       1.0  0.3811858350000001  0.05686971500000007  0.5247620002281638  1.0000
  Ga  Ga4       1.0  0.374959925  0.5648312650000001  0.4980797643448975  1.0000
  Ga  Ga5       1.0  0.13568953500000003  0.43574764500000013  0.522116320561085  1.0000
  Ga  Ga6       1.0  0.12495992500000007  0.939831265  0.4914673727408587  1.0000
  Ga  Ga7       1.0  0.8773589550000002  0.8140212250000002  0.5108417890388645  1.0000
  Ga  Ga8       1.0  0.872852415  0.32101052500000016  0.5368610156506608  1.0000
  Ga  Ga9       1.0  0.8778058749999998  0.3155194750000002  0.5108776419608694  1.0000
  Ga  Ga10      1.0  0.875130135  0.8168077950000002  0.5366981857458544  1.0000
  Ga  Ga11      1.0  0.622455975  0.19612489500000002  0.5333969143248981  1.0000
  Ga  Ga12      1.0  0.624959925  0.6898312650000001  0.5046921591228847  1.0000
  Ti  Ti5       1.0  0.12495992500000007  0.4398312650000001  0.43856823038670356  1.0000
  Ti  Ti6       1.0  0.12495992500000007  0.939831265  0.4650178031507554  1.0000
  Ti  Ti7       1.0  0.624959925  0.18983126500000003  0.4517930167687295  1.0000
  Ti  Ti8       1.0  0.624959925  0.6898312650000001  0.4782425863588328  1.0000
  Ga  Ga13      1.0  0.374959925  0.5648312650000001  0.4716301947547942  1.0000
  Ga  Ga14      1.0  0.374959925  0.06483126500000011  0.44518062516469076  1.0000
  Ga  Ga15      1.0  0.374959925  0.06483126500000011  0.4716301947547942  1.0000
  Ga  Ga16      1.0  0.374959925  0.5648312650000001  0.44518062516469076  1.0000
  Ga  Ga17      1.0  0.12495992500000007  0.4398312650000001  0.4650178031507554  1.0000
  Ga  Ga18      1.0  0.12495992500000007  0.939831265  0.43856823038670356  1.0000
  Ga  Ga19      1.0  0.874959925  0.814831265  0.4584054083727682  1.0000
  Ga  Ga20      1.0  0.874959925  0.314831265  0.48485498113682  1.0000
  Ga  Ga21      1.0  0.874959925  0.314831265  0.4584054083727682  1.0000
  Ga  Ga22      1.0  0.874959925  0.814831265  0.48485498113682  1.0000
  Ga  Ga23      1.0  0.624959925  0.18983126500000003  0.4782425863588328  1.0000
  Ga  Ga24      1.0  0.624959925  0.6898312650000001  0.4517930167687295  1.0000
