data_image0
_chemical_formula_structural       CONb4Ge4As4Nb4Ge4As4
_chemical_formula_sum              "C1 O1 Nb8 Ge8 As8"
_cell_length_a       5.131157
_cell_length_b       8.06736928
_cell_length_c       100.786942
_cell_angle_alpha    90.0
_cell_angle_beta     90.0
_cell_angle_gamma    90.0

_space_group_name_H-M_alt    "P 1"
_space_group_IT_number       1

loop_
  _space_group_symop_operation_xyz
  'x, y, z'

loop_
  _atom_site_type_symbol
  _atom_site_label
  _atom_site_symmetry_multiplicity
  _atom_site_fract_x
  _atom_site_fract_y
  _atom_site_fract_z
  _atom_site_occupancy
  C   C1        1.0  0.37563087500000003  0.27964603  0.5478967025357524  1.0000
  O   O1        1.0  0.3755051650000001  0.2857179999999999  0.5594680809424416  1.0000
  Nb  Nb1       1.0  0.375543275  0.2809765099999999  0.5265776332915332  1.0000
  Nb  Nb2       1.0  0.875526625  0.2630937799999999  0.503818116653282  1.0000
  Nb  Nb3       1.0  0.873852245  0.71385978  0.5262839861719091  1.0000
  Nb  Nb4       1.0  0.375289545  0.74306172  0.5036866931408386  1.0000
  Ge  Ge1       1.0  0.6241045450000001  0.9999321299999999  0.5196136075469884  1.0000
  Ge  Ge2       1.0  0.12582202500000003  0.0021903299999999418  0.49144285058104026  1.0000
  Ge  Ge3       1.0  0.6258220250000001  0.0021903299999999418  0.49144285058104026  1.0000
  Ge  Ge4       1.0  0.12417797500000004  6.786999999994179e-05  0.519617340336413  1.0000
  As  As1       1.0  0.373863585  0.65250903  0.5305122132803298  1.0000
  As  As2       1.0  0.875537715  0.60866851  0.5030124053581988  1.0000
  As  As3       1.0  0.875787555  0.3676507999999999  0.5297313974302637  1.0000
  As  As4       1.0  0.37562472499999994  0.40030806999999996  0.5027330784651072  1.0000
  Nb  Nb5       1.0  0.37582202500000006  0.2626744699999999  0.4787151169365058  1.0000
  Nb  Nb6       1.0  0.875822025  0.2626744699999999  0.4532596527020928  1.0000
  Nb  Nb7       1.0  0.875822025  0.74170619  0.4787151169365058  1.0000
  Nb  Nb8       1.0  0.37582202500000006  0.74170619  0.4532596527020928  1.0000
  Ge  Ge5       1.0  0.6258220250000001  0.0021903299999999418  0.4659873863466272  1.0000
  Ge  Ge6       1.0  0.12582202500000003  0.0021903299999999418  0.44053191905755834  1.0000
  Ge  Ge7       1.0  0.6258220250000001  0.0021903299999999418  0.44053191905755834  1.0000
  Ge  Ge8       1.0  0.12582202500000003  0.0021903299999999418  0.4659873863466272  1.0000
  As  As5       1.0  0.37582202500000006  0.61265331  0.4787151169365058  1.0000
  As  As6       1.0  0.875822025  0.61265331  0.4532596527020928  1.0000
  As  As7       1.0  0.875822025  0.3917273499999999  0.4787151169365058  1.0000
  As  As8       1.0  0.37582202500000006  0.3917273499999999  0.4532596527020928  1.0000
