data_image0
_chemical_formula_structural       Ag8Al4CO
_chemical_formula_sum              "Ag8 Al4 C1 O1"
_cell_length_a       5.07150703
_cell_length_b       5.11457821352665
_cell_length_c       102.66882885
_cell_angle_alpha    90.0
_cell_angle_beta     90.0
_cell_angle_gamma    119.72181589165875

_space_group_name_H-M_alt    "P 1"
_space_group_IT_number       1

loop_
  _space_group_symop_operation_xyz
  'x, y, z'

loop_
  _atom_site_type_symbol
  _atom_site_label
  _atom_site_symmetry_multiplicity
  _atom_site_fract_x
  _atom_site_fract_y
  _atom_site_fract_z
  _atom_site_occupancy
  Ag  Ag1       1.0  0.65747648  0.7644483  0.4724822530049067  1.0000
  Ag  Ag2       1.0  0.9795163299999998  0.408528  0.4724822530049067  1.0000
  Ag  Ag3       1.0  0.020483670000000002  0.7644483  0.449753955093381  1.0000
  Ag  Ag4       1.0  0.34252352  0.408528  0.449753955093381  1.0000
  Ag  Ag5       1.0  0.6334643499999999  0.7082869499999999  0.5192864510035867  1.0000
  Ag  Ag6       1.0  0.9681887599999999  0.36468449  0.5192320903686867  1.0000
  Ag  Ag7       1.0  0.026004599999999933  0.7498550899999998  0.49654777353276325  1.0000
  Ag  Ag8       1.0  0.34482644999999995  0.39588404  0.49495443163150254  1.0000
  Al  Al1       1.0  0.32744929  0.08648814999999999  0.4724822530049067  1.0000
  Al  Al2       1.0  0.67255071  0.08648814999999999  0.449753955093381  1.0000
  Al  Al3       1.0  0.31740045  0.06649435999999999  0.5202715036369606  1.0000
  Al  Al4       1.0  0.6678523300000001  0.06375041  0.49647104688857296  1.0000
  C   C1        1.0  0.24468605  0.9362495900000001  0.5391724965645204  1.0000
  O   O1        1.0  0.21127607  0.87754999  0.550246044906619  1.0000
