data_image0
_chemical_formula_structural       COZnPd5SeZnPd5SeZnPd5SeZnPd5Se
_chemical_formula_sum              "C1 O1 Zn4 Pd20 Se4"
_cell_length_a       7.11613266
_cell_length_b       8.06310922
_cell_length_c       98.22088227
_cell_angle_alpha    90.0
_cell_angle_beta     90.0
_cell_angle_gamma    90.0

_space_group_name_H-M_alt    "P 1"
_space_group_IT_number       1

loop_
  _space_group_symop_operation_xyz
  'x, y, z'

loop_
  _atom_site_type_symbol
  _atom_site_label
  _atom_site_symmetry_multiplicity
  _atom_site_fract_x
  _atom_site_fract_y
  _atom_site_fract_z
  _atom_site_occupancy
  C   C1        1.0  0.03919907999999998  0.15361010999999997  0.5361341275130926  1.0000
  O   O1        1.0  0.04969642999999997  0.18081130999999998  0.5477703472487445  1.0000
  Zn  Zn1       1.0  0.26948478  0.38368116  0.5118813616667391  1.0000
  Pd  Pd1       1.0  0.5389703699999999  0.37254100999999995  0.4930272951970417  1.0000
  Pd  Pd2       1.0  0.9789106499999999  0.36435317999999994  0.49384229730211077  1.0000
  Pd  Pd3       1.0  0.4995257899999999  0.12105993999999998  0.5135688472349801  1.0000
  Pd  Pd4       1.0  0.06566615999999997  0.12527432  0.5168815358862278  1.0000
  Pd  Pd5       1.0  0.25522913999999997  0.12105478999999998  0.4924349148348759  1.0000
  Se  Se1       1.0  0.7524717899999999  0.12145338999999998  0.4942097803422662  1.0000
  Zn  Zn2       1.0  0.25846758999999997  0.3707457  0.47275255193620946  1.0000
  Pd  Pd6       1.0  0.5320882199999999  0.3707457  0.45222965275125543  1.0000
  Pd  Pd7       1.0  0.9848469599999999  0.3707457  0.45222965275125543  1.0000
  Pd  Pd8       1.0  0.5320882199999999  0.12074569999999998  0.47275255193620946  1.0000
  Pd  Pd9       1.0  0.9848469599999999  0.12074569999999998  0.47275255193620946  1.0000
  Pd  Pd10      1.0  0.25846758999999997  0.12074569999999998  0.45222965275125543  1.0000
  Se  Se2       1.0  0.7584675899999999  0.12074569999999998  0.45222965275125543  1.0000
  Zn  Zn3       1.0  0.26762672  0.8607381  0.5121806319245933  1.0000
  Pd  Pd11      1.0  0.53786949  0.8703831  0.493037118688162  1.0000
  Pd  Pd12      1.0  0.9794883099999999  0.8792543  0.4939983583561302  1.0000
  Pd  Pd13      1.0  0.5140512999999999  0.6222395399999999  0.5136674872682214  1.0000
  Pd  Pd14      1.0  0.015153039999999982  0.6217920099999998  0.5138993090165553  1.0000
  Pd  Pd15      1.0  0.25786486  0.62190151  0.4922918090664551  1.0000
  Se  Se3       1.0  0.7648721999999999  0.6218561400000001  0.49462537234273724  1.0000
  Zn  Zn4       1.0  0.25846758999999997  0.8707456999999998  0.47275255193620946  1.0000
  Pd  Pd16      1.0  0.5320882199999999  0.8707456999999998  0.45222965275125543  1.0000
  Pd  Pd17      1.0  0.9848469599999999  0.8707456999999998  0.45222965275125543  1.0000
  Pd  Pd18      1.0  0.5320882199999999  0.6207457000000001  0.47275255193620946  1.0000
  Pd  Pd19      1.0  0.9848469599999999  0.6207457000000001  0.47275255193620946  1.0000
  Pd  Pd20      1.0  0.25846758999999997  0.6207457000000001  0.45222965275125543  1.0000
  Se  Se4       1.0  0.7584675899999999  0.6207457000000001  0.45222965275125543  1.0000
