data_image0
_chemical_formula_structural       COCa2Zn4Si4Ca2Zn4Si4Ca2Zn4Si4Ca2Zn4Si4
_chemical_formula_sum              "C1 O1 Ca8 Zn16 Si16"
_cell_length_a       8.58632308
_cell_length_b       10.27642324
_cell_length_c       100.05213081
_cell_angle_alpha    90.0
_cell_angle_beta     90.0
_cell_angle_gamma    90.0

_space_group_name_H-M_alt    "P 1"
_space_group_IT_number       1

loop_
  _space_group_symop_operation_xyz
  'x, y, z'

loop_
  _atom_site_type_symbol
  _atom_site_label
  _atom_site_symmetry_multiplicity
  _atom_site_fract_x
  _atom_site_fract_y
  _atom_site_fract_z
  _atom_site_occupancy
  C   C1        1.0  0.12442853500000002  0.55770959  0.5328305958891504  1.0000
  O   O1        1.0  0.124427255  0.5577061099999999  0.5451204331377616  1.0000
  Ca  Ca1       1.0  0.12442897500000001  0.05770871000000002  0.47633418968569036  1.0000
  Ca  Ca2       1.0  0.374428975  0.55770871  0.4548795668622383  1.0000
  Zn  Zn1       1.0  0.12442897500000001  0.30770871  0.4548795668622383  1.0000
  Zn  Zn2       1.0  0.374428975  0.30770871  0.47633418968569036  1.0000
  Zn  Zn3       1.0  0.374428975  0.8077087099999999  0.47633418968569036  1.0000
  Zn  Zn4       1.0  0.12442897500000001  0.8077087099999999  0.4548795668622383  1.0000
  Si  Si1       1.0  0.374428975  0.17312613000000002  0.4548795668622383  1.0000
  Si  Si2       1.0  0.12442897500000001  0.44229129000000006  0.47633418968569036  1.0000
  Si  Si3       1.0  0.12442897500000001  0.67312613  0.47633418968569036  1.0000
  Si  Si4       1.0  0.374428975  0.9422912900000001  0.4548795668622383  1.0000
  Ca  Ca3       1.0  0.12442819500000002  0.05770915000000001  0.5184304771774016  1.0000
  Ca  Ca4       1.0  0.37328504500000004  0.5577083500000001  0.4984522220711385  1.0000
  Zn  Zn5       1.0  0.124427635  0.31553225  0.49819026798670435  1.0000
  Zn  Zn6       1.0  0.385208035  0.30990475  0.5206491602699849  1.0000
  Zn  Zn7       1.0  0.385212275  0.80551426  0.5206475352968197  1.0000
  Zn  Zn8       1.0  0.124427845  0.79988253  0.4981906614644948  1.0000
  Si  Si5       1.0  0.375327325  0.17355639  0.49873639413432047  1.0000
  Si  Si6       1.0  0.12442896500000002  0.39234552000000006  0.5226330422493223  1.0000
  Si  Si7       1.0  0.124428815  0.72307568  0.5226331053259147  1.0000
  Si  Si8       1.0  0.375329705  0.94185776  0.49873624695560503  1.0000
  Ca  Ca5       1.0  0.6244289749999999  0.05770871000000002  0.47633418968569036  1.0000
  Ca  Ca6       1.0  0.8744289749999999  0.55770871  0.4548795668622383  1.0000
  Zn  Zn9       1.0  0.6244289749999999  0.30770871  0.4548795668622383  1.0000
  Zn  Zn10      1.0  0.8744289749999999  0.30770871  0.47633418968569036  1.0000
  Zn  Zn11      1.0  0.8744289749999999  0.8077087099999999  0.47633418968569036  1.0000
  Zn  Zn12      1.0  0.6244289749999999  0.8077087099999999  0.4548795668622383  1.0000
  Si  Si9       1.0  0.8744289749999999  0.17312613000000002  0.4548795668622383  1.0000
  Si  Si10      1.0  0.6244289749999999  0.44229129000000006  0.47633418968569036  1.0000
  Si  Si11      1.0  0.6244289749999999  0.67312613  0.47633418968569036  1.0000
  Si  Si12      1.0  0.8744289749999999  0.9422912900000001  0.4548795668622383  1.0000
  Ca  Ca7       1.0  0.624428865  0.05770946000000002  0.5177159725719447  1.0000
  Ca  Ca8       1.0  0.875572745  0.5577083399999999  0.4984524833884497  1.0000
  Zn  Zn13      1.0  0.6244298250000001  0.31508454  0.4978517779665565  1.0000
  Zn  Zn14      1.0  0.863649925  0.30990303  0.5206498721343844  1.0000
  Zn  Zn15      1.0  0.8636520649999998  0.80551382  0.5206487788067835  1.0000
  Zn  Zn16      1.0  0.6244302049999999  0.80032899  0.4978522885865899  1.0000
  Si  Si13      1.0  0.8735299049999999  0.17355663000000002  0.4987366554516317  1.0000
  Si  Si14      1.0  0.6244286649999999  0.43991678000000006  0.5198696687525111  1.0000
  Si  Si15      1.0  0.6244291449999999  0.67549794  0.5198700141719454  1.0000
  Si  Si16      1.0  0.8735294749999999  0.9418631400000002  0.4987369708345935  1.0000
