data_image0
_chemical_formula_structural       CONi12Sb12Se12
_chemical_formula_sum              "C1 O1 Ni12 Sb12 Se12"
_cell_length_a       6.18407994
_cell_length_b       13.828023121053716
_cell_length_c       104.98243889
_cell_angle_alpha    71.56505117707799
_cell_angle_beta     90.0
_cell_angle_gamma    90.0

_space_group_name_H-M_alt    "P 1"
_space_group_IT_number       1

loop_
  _space_group_symop_operation_xyz
  'x, y, z'

loop_
  _atom_site_type_symbol
  _atom_site_label
  _atom_site_symmetry_multiplicity
  _atom_site_fract_x
  _atom_site_fract_y
  _atom_site_fract_z
  _atom_site_occupancy
  C   C1        1.0  0.03670866000000002  0.8445709099999998  0.532346604715437  1.0000
  O   O1        1.0  0.06186767000000002  0.81199214  0.5439506079254651  1.0000
  Ni  Ni1       1.0  0.50950684  0.70821617  0.46048863308149884  1.0000
  Ni  Ni2       1.0  0.48536388  0.37940285  0.5145658586466036  1.0000
  Ni  Ni3       1.0  0.50950684  0.04154950000000002  0.4882571199338963  1.0000
  Ni  Ni4       1.0  0.009506840000000023  0.5415495  0.48667317669132465  1.0000
  Ni  Ni5       1.0  0.009506840000000023  0.20821617  0.4589046898389271  1.0000
  Ni  Ni6       1.0  0.02040357000000002  0.88619848  0.5145054322025681  1.0000
  Ni  Ni7       1.0  0.50922433  0.043970900000000014  0.524920526632384  1.0000
  Ni  Ni8       1.0  0.49760228999999995  0.69773491  0.5012645834545283  1.0000
  Ni  Ni9       1.0  0.49049315999999993  0.36854494  0.4738448965375797  1.0000
  Ni  Ni10      1.0  0.8929093399999999  0.60812107  0.5152149414211545  1.0000
  Ni  Ni11      1.0  0.98119761  0.21868981999999998  0.5007708653514874  1.0000
  Ni  Ni12      1.0  0.9904931599999999  0.88122073  0.4733169132352438  1.0000
  Sb  Sb1       1.0  0.66166532  0.7654271999999998  0.5196150655191887  1.0000
  Sb  Sb2       1.0  0.6313456899999998  0.45398571  0.4911124176982887  1.0000
  Sb  Sb3       1.0  0.6313456899999998  0.12065237000000002  0.4633439341781093  1.0000
  Sb  Sb4       1.0  0.36865431  0.5415495  0.4567542328554851  1.0000
  Sb  Sb5       1.0  0.34765259  0.21078584000000003  0.5126896865362126  1.0000
  Sb  Sb6       1.0  0.36865431  0.87488283  0.4845227163756645  1.0000
  Sb  Sb7       1.0  0.8686543099999999  0.70821617  0.49040757691733844  1.0000
  Sb  Sb8       1.0  0.8686543099999999  0.37488282999999994  0.46263909339715903  1.0000
  Sb  Sb9       1.0  0.90399325  0.05828439000000002  0.5203186367250217  1.0000
  Sb  Sb10      1.0  0.13134569  0.7957799600000001  0.4560493920745348  1.0000
  Sb  Sb11      1.0  0.09835955  0.45731831  0.511920660569147  1.0000
  Sb  Sb12      1.0  0.13134569  0.12911329000000002  0.48381787559471423  1.0000
  Se  Se1       1.0  0.8753514999999998  0.62511717  0.46315796308283913  1.0000
  Se  Se2       1.0  0.8346640999999999  0.2955074  0.5189312010515286  1.0000
  Se  Se3       1.0  0.8753514999999998  0.9584504999999999  0.49092644660301854  1.0000
  Se  Se4       1.0  0.6246484999999999  0.87488283  0.4631970033507514  1.0000
  Se  Se5       1.0  0.5624709899999999  0.5292520199999999  0.5201223890689592  1.0000
  Se  Se6       1.0  0.6246484999999999  0.20821617  0.49096549020314895  1.0000
  Se  Se7       1.0  0.37535149999999995  0.6246484999999999  0.48400384668998436  1.0000
  Se  Se8       1.0  0.37535149999999995  0.29131516999999996  0.456235363169805  1.0000
  Se  Se9       1.0  0.40999975  0.95156715  0.5116013440999397  1.0000
  Se  Se10      1.0  0.17421011000000003  0.7171090900000001  0.5145122232631694  1.0000
  Se  Se11      1.0  0.1246485  0.37488282999999994  0.483964803089854  1.0000
  Se  Se12      1.0  0.1246485  0.04154950000000002  0.45619631956967455  1.0000
