data_image0
_chemical_formula_structural       COTi2Zn6Ti2Zn6Ti2Zn6Ti2Zn6
_chemical_formula_sum              "C1 O1 Ti8 Zn24"
_cell_length_a       5.60685423
_cell_length_b       7.9292893
_cell_length_c       103.64112539999999
_cell_angle_alpha    90.0
_cell_angle_beta     90.0
_cell_angle_gamma    90.0

_space_group_name_H-M_alt    "P 1"
_space_group_IT_number       1

loop_
  _space_group_symop_operation_xyz
  'x, y, z'

loop_
  _atom_site_type_symbol
  _atom_site_label
  _atom_site_symmetry_multiplicity
  _atom_site_fract_x
  _atom_site_fract_y
  _atom_site_fract_z
  _atom_site_occupancy
  C   C1        1.0  0.62369803  0.123733815  0.5455954265012717  1.0000
  O   O1        1.0  0.6236877000000001  0.12373081500000001  0.5571492942732729  1.0000
  Ti  Ti1       1.0  0.62371169  0.12373850500000001  0.5255111364190027  1.0000
  Ti  Ti2       1.0  0.12372994000000005  0.12373515500000001  0.4969494462009444  1.0000
  Zn  Zn1       1.0  0.37111037  0.381289625  0.5363106156637506  1.0000
  Zn  Zn2       1.0  0.8716368400000001  0.371202185  0.5099377593595276  1.0000
  Zn  Zn3       1.0  0.62372994  0.12373515500000001  0.4969494462009444  1.0000
  Zn  Zn4       1.0  0.12371350000000003  0.123739345  0.5250701711023678  1.0000
  Zn  Zn5       1.0  0.87628556  0.38129591499999993  0.5363110765850101  1.0000
  Zn  Zn6       1.0  0.3757875400000001  0.37120615500000004  0.509938012541628  1.0000
  Ti  Ti3       1.0  0.62372994  0.12373515500000001  0.46990007758679786  1.0000
  Ti  Ti4       1.0  0.12372994000000005  0.12373515500000001  0.442850705726727  1.0000
  Zn  Zn7       1.0  0.3737299400000001  0.373735155  0.4834247602709089  1.0000
  Zn  Zn8       1.0  0.87372994  0.373735155  0.45637539165676244  1.0000
  Zn  Zn9       1.0  0.62372994  0.12373515500000001  0.442850705726727  1.0000
  Zn  Zn10      1.0  0.12372994000000005  0.12373515500000001  0.46990007758679786  1.0000
  Zn  Zn11      1.0  0.87372994  0.373735155  0.4834247602709089  1.0000
  Zn  Zn12      1.0  0.3737299400000001  0.373735155  0.45637539165676244  1.0000
  Ti  Ti5       1.0  0.62371518  0.623734765  0.5229932047257972  1.0000
  Ti  Ti6       1.0  0.12372994000000005  0.623735155  0.4969494462009444  1.0000
  Zn  Zn13      1.0  0.3711109000000001  0.866183165  0.5363104566134567  1.0000
  Zn  Zn14      1.0  0.8716379200000001  0.876269185  0.509938191067468  1.0000
  Zn  Zn15      1.0  0.62372994  0.623735155  0.4969494462009444  1.0000
  Zn  Zn16      1.0  0.12371998000000003  0.6237340650000001  0.524959929773209  1.0000
  Zn  Zn17      1.0  0.8762865  0.866177735  0.5363108104192124  1.0000
  Zn  Zn18      1.0  0.37578703  0.876266335  0.5099385156599042  1.0000
  Ti  Ti7       1.0  0.62372994  0.623735155  0.46990007758679786  1.0000
  Ti  Ti8       1.0  0.12372994000000005  0.623735155  0.442850705726727  1.0000
  Zn  Zn19      1.0  0.3737299400000001  0.873735155  0.4834247602709089  1.0000
  Zn  Zn20      1.0  0.87372994  0.873735155  0.45637539165676244  1.0000
  Zn  Zn21      1.0  0.62372994  0.623735155  0.442850705726727  1.0000
  Zn  Zn22      1.0  0.12372994000000005  0.623735155  0.46990007758679786  1.0000
  Zn  Zn23      1.0  0.87372994  0.873735155  0.4834247602709089  1.0000
  Zn  Zn24      1.0  0.3737299400000001  0.873735155  0.45637539165676244  1.0000
