data_image0
_chemical_formula_structural       COCo6As6Co6As6
_chemical_formula_sum              "C1 O1 Co12 As12"
_cell_length_a       9.480361465454124
_cell_length_b       5.06688839
_cell_length_c       98.66591859
_cell_angle_alpha    90.0
_cell_angle_beta     100.89339463304496
_cell_angle_gamma    90.0

_space_group_name_H-M_alt    "P 1"
_space_group_IT_number       1

loop_
  _space_group_symop_operation_xyz
  'x, y, z'

loop_
  _atom_site_type_symbol
  _atom_site_label
  _atom_site_symmetry_multiplicity
  _atom_site_fract_x
  _atom_site_fract_y
  _atom_site_fract_z
  _atom_site_occupancy
  C   C1        1.0  0.41054479  0.8769991699999999  0.5303440907672787  1.0000
  O   O1        1.0  0.3970431399999999  0.8759622300000001  0.5420885795422398  1.0000
  Co  Co1       1.0  0.80240823  0.63170733  0.5058428916201163  1.0000
  Co  Co2       1.0  0.44560870999999996  0.6363032599999999  0.516579153656307  1.0000
  Co  Co3       1.0  0.14728718999999998  0.63082291  0.4943216210097195  1.0000
  Co  Co4       1.0  0.82395674  0.13878274999999998  0.5077472914965775  1.0000
  Co  Co5       1.0  0.4450530599999999  0.11729591  0.5165996683440591  1.0000
  Co  Co6       1.0  0.14891906999999996  0.12708211  0.4944492560115087  1.0000
  As  As1       1.0  0.9683281400000001  0.41486949999999995  0.5244449718773615  1.0000
  As  As2       1.0  0.58989548  0.36697592999999995  0.5036951133442359  1.0000
  As  As3       1.0  0.23225122999999992  0.37795024999999993  0.5153225251651757  1.0000
  As  As4       1.0  0.68678874  0.8827040899999999  0.521835971937985  1.0000
  As  As5       1.0  0.3632375799999999  0.87717218  0.49688908023170764  1.0000
  As  As6       1.0  0.031671859999999954  0.86682147  0.5116672267594689  1.0000
  Co  Co7       1.0  0.81476966  0.63060047  0.47001705315449427  1.0000
  Co  Co8       1.0  0.48143632999999997  0.63060047  0.48212268294587657  1.0000
  Co  Co9       1.0  0.14810298999999996  0.63060047  0.4579114204577603  1.0000
  Co  Co10      1.0  0.81476966  0.13060047  0.47001705315449427  1.0000
  Co  Co11      1.0  0.48143632999999997  0.13060047  0.48212268294587657  1.0000
  Co  Co12      1.0  0.14810298999999996  0.13060047  0.4579114204577603  1.0000
  As  As7       1.0  0.9258807700000001  0.38060046999999997  0.49019310474369926  1.0000
  As  As8       1.0  0.5925474399999999  0.38060046999999997  0.465981842255583  1.0000
  As  As9       1.0  0.25921409999999995  0.38060046999999997  0.47808747495231696  1.0000
  As  As10      1.0  0.70365855  0.88060047  0.4861578938447879  1.0000
  As  As11      1.0  0.3703252099999999  0.88060047  0.4619466313566716  1.0000
  As  As12      1.0  0.03699187999999995  0.88060047  0.4740522640534056  1.0000
