data_image0
_chemical_formula_structural       COAl8Ir4Ru4Al8Ir4Ru4Al8Ir4Ru4Al8Ir4Ru4
_chemical_formula_sum              "C1 O1 Al32 Ir16 Ru16"
_cell_length_a       8.54429472
_cell_length_b       8.54429472
_cell_length_c       106.25037244
_cell_angle_alpha    90.0
_cell_angle_beta     90.0
_cell_angle_gamma    90.0

_space_group_name_H-M_alt    "P 1"
_space_group_IT_number       1

loop_
  _space_group_symop_operation_xyz
  'x, y, z'

loop_
  _atom_site_type_symbol
  _atom_site_label
  _atom_site_symmetry_multiplicity
  _atom_site_fract_x
  _atom_site_fract_y
  _atom_site_fract_z
  _atom_site_occupancy
  C   C1        1.0  0.6232628400000001  0.6232523100000001  0.5534373652373026  1.0000
  O   O1        1.0  0.62326887  0.62326914  0.5645476202053211  1.0000
  Al  Al1       1.0  0.37432114000000005  0.12326855000000002  0.533416745368395  1.0000
  Al  Al2       1.0  0.37410282  0.12326868000000002  0.5061897166029581  1.0000
  Al  Al3       1.0  0.12326867999999999  0.37410224000000003  0.506189750720836  1.0000
  Al  Al4       1.0  0.12326860999999999  0.37432170000000003  0.5334166907797904  1.0000
  Al  Al5       1.0  0.37326854  0.12326828000000001  0.4780997272904143  1.0000
  Al  Al6       1.0  0.37326854  0.12326828000000001  0.4496681600187321  1.0000
  Al  Al7       1.0  0.12326854  0.37326828  0.4496681600187321  1.0000
  Al  Al8       1.0  0.12326854  0.37326828  0.4780997272904143  1.0000
  Ir  Ir1       1.0  0.37326854  0.37326828  0.49231550751446757  1.0000
  Ir  Ir2       1.0  0.12326871  0.12326880000000001  0.5210053061811304  1.0000
  Ir  Ir3       1.0  0.37326854  0.37326828  0.4354523797946788  1.0000
  Ir  Ir4       1.0  0.12326854  0.12326828000000001  0.46388394365457314  1.0000
  Ru  Ru1       1.0  0.12326854  0.12326828000000001  0.49231550751446757  1.0000
  Ru  Ru2       1.0  0.3750208  0.37502067000000006  0.5217560803218088  1.0000
  Ru  Ru3       1.0  0.12326854  0.12326828000000001  0.4354523797946788  1.0000
  Ru  Ru4       1.0  0.37326854  0.37326828  0.46388394365457314  1.0000
  Al  Al9       1.0  0.38581737  0.62326948  0.5341536335327288  1.0000
  Al  Al10      1.0  0.36980566000000004  0.6232684000000001  0.5061287718374927  1.0000
  Al  Al11      1.0  0.12326869000000001  0.87243468  0.5061897302501093  1.0000
  Al  Al12      1.0  0.12326860999999999  0.8722158  0.5334167112505172  1.0000
  Al  Al13      1.0  0.37326854  0.62326828  0.4780997272904143  1.0000
  Al  Al14      1.0  0.37326854  0.62326828  0.4496681600187321  1.0000
  Al  Al15      1.0  0.12326854  0.87326828  0.4496681600187321  1.0000
  Al  Al16      1.0  0.12326854  0.87326828  0.4780997272904143  1.0000
  Ir  Ir5       1.0  0.37326854  0.87326828  0.49231550751446757  1.0000
  Ir  Ir6       1.0  0.12326857000000001  0.62326876  0.5214544236917141  1.0000
  Ir  Ir7       1.0  0.37326854  0.87326828  0.4354523797946788  1.0000
  Ir  Ir8       1.0  0.12326854  0.62326828  0.46388394365457314  1.0000
  Ru  Ru5       1.0  0.12326854  0.62326828  0.49231550751446757  1.0000
  Ru  Ru6       1.0  0.37501977999999997  0.8715174  0.5217559097324187  1.0000
  Ru  Ru7       1.0  0.12326854  0.62326828  0.4354523797946788  1.0000
  Ru  Ru8       1.0  0.37326854  0.87326828  0.46388394365457314  1.0000
  Al  Al17      1.0  0.87221625  0.12326855000000002  0.5334167521919707  1.0000
  Al  Al18      1.0  0.87243439  0.12326868000000002  0.5061897097793824  1.0000
  Al  Al19      1.0  0.6232685700000001  0.36980498  0.506128768425705  1.0000
  Al  Al20      1.0  0.6232689499999999  0.38581868  0.5341538314164213  1.0000
  Al  Al21      1.0  0.8732685400000001  0.12326828000000001  0.4780997272904143  1.0000
  Al  Al22      1.0  0.8732685400000001  0.12326828000000001  0.4496681600187321  1.0000
  Al  Al23      1.0  0.62326854  0.37326828  0.4496681600187321  1.0000
  Al  Al24      1.0  0.62326854  0.37326828  0.4780997272904143  1.0000
  Ir  Ir9       1.0  0.8732685400000001  0.37326828  0.49231550751446757  1.0000
  Ir  Ir10      1.0  0.6232687100000001  0.12326838000000001  0.5214545533396505  1.0000
  Ir  Ir11      1.0  0.8732685400000001  0.37326828  0.4354523797946788  1.0000
  Ir  Ir12      1.0  0.62326854  0.12326828000000001  0.46388394365457314  1.0000
  Ru  Ru9       1.0  0.62326854  0.12326828000000001  0.49231550751446757  1.0000
  Ru  Ru10      1.0  0.8715167899999999  0.37502034  0.5217560154978406  1.0000
  Ru  Ru11      1.0  0.62326854  0.12326828000000001  0.4354523797946788  1.0000
  Ru  Ru12      1.0  0.8732685400000001  0.37326828  0.46388394365457314  1.0000
  Al  Al25      1.0  0.86072007  0.62326946  0.5341535175319436  1.0000
  Al  Al26      1.0  0.8767314600000001  0.62326839  0.5061287616021294  1.0000
  Al  Al27      1.0  0.6232685700000001  0.87673172  0.5061287445431903  1.0000
  Al  Al28      1.0  0.62326894  0.86071895  0.5341534902376411  1.0000
  Al  Al29      1.0  0.8732685400000001  0.62326828  0.4780997272904143  1.0000
  Al  Al30      1.0  0.8732685400000001  0.62326828  0.4496681600187321  1.0000
  Al  Al31      1.0  0.62326854  0.87326828  0.4496681600187321  1.0000
  Al  Al32      1.0  0.62326854  0.87326828  0.4780997272904143  1.0000
  Ir  Ir13      1.0  0.8732685400000001  0.87326828  0.49231550751446757  1.0000
  Ir  Ir14      1.0  0.6232687000000001  0.6232687300000002  0.519454536037188  1.0000
  Ir  Ir15      1.0  0.8732685400000001  0.87326828  0.4354523797946788  1.0000
  Ir  Ir16      1.0  0.62326854  0.62326828  0.46388394365457314  1.0000
  Ru  Ru13      1.0  0.62326854  0.62326828  0.49231550751446757  1.0000
  Ru  Ru14      1.0  0.8715178000000001  0.87151773  0.5217558483202382  1.0000
  Ru  Ru15      1.0  0.62326854  0.62326828  0.4354523797946788  1.0000
  Ru  Ru16      1.0  0.8732685400000001  0.87326828  0.46388394365457314  1.0000
