data_image0
_chemical_formula_structural       COV2Cu6Se8
_chemical_formula_sum              "C1 O1 V2 Cu6 Se8"
_cell_length_a       5.70576026
_cell_length_b       8.06916354
_cell_length_c       102.27665417
_cell_angle_alpha    90.0
_cell_angle_beta     90.0
_cell_angle_gamma    90.0

_space_group_name_H-M_alt    "P 1"
_space_group_IT_number       1

loop_
  _space_group_symop_operation_xyz
  'x, y, z'

loop_
  _atom_site_type_symbol
  _atom_site_label
  _atom_site_symmetry_multiplicity
  _atom_site_fract_x
  _atom_site_fract_y
  _atom_site_fract_z
  _atom_site_occupancy
  C   C1        1.0  0.8926843050000001  0.9953300949999999  0.5322482978261759  1.0000
  O   O1        1.0  0.820375815  0.9893700950000001  0.543029210774852  1.0000
  V   V1        1.0  0.11279058500000001  0.508301645  0.4773242270308852  1.0000
  V   V2        1.0  0.10731569500000002  0.004669905000000053  0.5166675177160753  1.0000
  Cu  Cu1       1.0  0.11279058500000001  0.258301645  0.4576003623621022  1.0000
  Cu  Cu2       1.0  0.118703915  0.755923405  0.49717557098179543  1.0000
  Cu  Cu3       1.0  0.612790585  0.508301645  0.4773242270308852  1.0000
  Cu  Cu4       1.0  0.615241315  0.004730065000000053  0.5169410703620305  1.0000
  Cu  Cu5       1.0  0.11279058500000001  0.7583016450000001  0.4576003623621022  1.0000
  Cu  Cu6       1.0  0.11847075500000001  0.257378125  0.497381374519477  1.0000
  Se  Se1       1.0  0.870770425  0.508301645  0.4582299354990563  1.0000
  Se  Se2       1.0  0.873674035  0.006887515000000054  0.49745730035308766  1.0000
  Se  Se3       1.0  0.875698505  0.506922775  0.4963758424312074  1.0000
  Se  Se4       1.0  0.870770425  0.008301645000000054  0.45697078922514794  1.0000
  Se  Se5       1.0  0.335919065  0.23838049500000003  0.5184318032095154  1.0000
  Se  Se6       1.0  0.35481074500000004  0.7503218050000001  0.4773242270308852  1.0000
  Se  Se7       1.0  0.33831398500000004  0.770502165  0.5179354813464452  1.0000
  Se  Se8       1.0  0.35481074500000004  0.26628148500000004  0.4773242270308852  1.0000
