data_image0
_chemical_formula_structural       COFe6Sb6As6
_chemical_formula_sum              "C1 O1 Fe6 Sb6 As6"
_cell_length_a       6.384327970774248
_cell_length_b       7.013667010462739
_cell_length_c       105.89475132
_cell_angle_alpha    61.1766224660272
_cell_angle_beta     67.5139097624608
_cell_angle_gamma    77.85041175753427

_space_group_name_H-M_alt    "P 1"
_space_group_IT_number       1

loop_
  _space_group_symop_operation_xyz
  'x, y, z'

loop_
  _atom_site_type_symbol
  _atom_site_label
  _atom_site_symmetry_multiplicity
  _atom_site_fract_x
  _atom_site_fract_y
  _atom_site_fract_z
  _atom_site_occupancy
  C   C1        1.0  0.15921499499999997  0.641381535  0.5392015704421125  1.0000
  O   O1        1.0  0.11575198499999997  0.550637835  0.5525052347744679  1.0000
  Fe  Fe1       1.0  0.552331195  0.09122211499999999  0.4911863238627921  1.0000
  Fe  Fe2       1.0  0.885664525  0.424555445  0.462939130506382  1.0000
  Fe  Fe3       1.0  0.23346361499999999  0.7762853949999999  0.518964404817784  1.0000
  Fe  Fe4       1.0  0.864364075  0.4468001549999999  0.5034408807384927  1.0000
  Fe  Fe5       1.0  0.187826165  0.773474625  0.47574195858194224  1.0000
  Fe  Fe6       1.0  0.521159495  0.106807955  0.44749476522553217  1.0000
  Sb  Sb1       1.0  0.6287334749999999  0.7356999750000001  0.46753326609510265  1.0000
  Sb  Sb2       1.0  0.854204835  0.05052590499999999  0.5251496312382813  1.0000
  Sb  Sb3       1.0  0.286819655  0.38741993499999994  0.49719930795108336  1.0000
  Sb  Sb4       1.0  0.8720418250000002  0.5672036349999999  0.5231863249096491  1.0000
  Sb  Sb5       1.0  0.20118521499999995  0.949474095  0.4917884974825901  1.0000
  Sb  Sb6       1.0  0.534518555  0.282807435  0.46354130751584294  1.0000
  As  As1       1.0  0.781002135  0.8023324549999999  0.4860832947884879  1.0000
  As  As2       1.0  0.11433547499999996  0.13566579499999998  0.45783610482174064  1.0000
  As  As3       1.0  0.473191185  0.512426655  0.5118862259325645  1.0000
  As  As4       1.0  0.564307395  0.9026836349999999  0.5166049960376171  1.0000
  As  As5       1.0  0.858560795  0.26355313499999994  0.48936951537640055  1.0000
  As  As6       1.0  0.191894125  0.596886465  0.46112232540965337  1.0000
