data_image0
_chemical_formula_structural       COAl8Co4Ru4Al8Co4Ru4Al8Co4Ru4Al8Co4Ru4
_chemical_formula_sum              "C1 O1 Al32 Co16 Ru16"
_cell_length_a       8.35385422
_cell_length_b       8.35385422
_cell_length_c       105.44240178
_cell_angle_alpha    90.0
_cell_angle_beta     90.0
_cell_angle_gamma    90.0

_space_group_name_H-M_alt    "P 1"
_space_group_IT_number       1

loop_
  _space_group_symop_operation_xyz
  'x, y, z'

loop_
  _atom_site_type_symbol
  _atom_site_label
  _atom_site_symmetry_multiplicity
  _atom_site_fract_x
  _atom_site_fract_y
  _atom_site_fract_z
  _atom_site_occupancy
  C   C1        1.0  0.5875188050000001  0.6597985399999999  0.5582767021870465  1.0000
  O   O1        1.0  0.638755535  0.61120797  0.5677161762566149  1.0000
  Al  Al1       1.0  0.374217855  0.12430276000000001  0.5017656613125203  1.0000
  Al  Al2       1.0  0.12459542500000004  0.37430815000000006  0.5017456044086704  1.0000
  Al  Al3       1.0  0.12448273500000005  0.37445851  0.52874896329667  1.0000
  Al  Al4       1.0  0.3746544050000001  0.12412851999999999  0.528770704214066  1.0000
  Al  Al5       1.0  0.37453448500000003  0.12481636000000002  0.44628925684829346  1.0000
  Al  Al6       1.0  0.12453448500000004  0.37481635999999996  0.44628925684829346  1.0000
  Al  Al7       1.0  0.12453448500000004  0.37481635999999996  0.47430012978071906  1.0000
  Al  Al8       1.0  0.37453448500000003  0.12481636000000002  0.47430012978071906  1.0000
  Co  Co1       1.0  0.3754830350000001  0.37509444  0.5166742769320072  1.0000
  Co  Co2       1.0  0.12453448500000004  0.12481636000000002  0.4883055628856274  1.0000
  Co  Co3       1.0  0.37453448500000003  0.37481635999999996  0.46029469331450623  1.0000
  Co  Co4       1.0  0.12453448500000004  0.12481636000000002  0.43228382374338514  1.0000
  Ru  Ru1       1.0  0.12478433500000005  0.1246203  0.5169460989029374  1.0000
  Ru  Ru2       1.0  0.37453448500000003  0.37481635999999996  0.4883055628856274  1.0000
  Ru  Ru3       1.0  0.12453448500000004  0.12481636000000002  0.46029469331450623  1.0000
  Ru  Ru4       1.0  0.37453448500000003  0.37481635999999996  0.43228382374338514  1.0000
  Al  Al9       1.0  0.37350153500000005  0.6248354300000001  0.5019146981919915  1.0000
  Al  Al10      1.0  0.12505773500000006  0.8751554500000001  0.5017650898907583  1.0000
  Al  Al11      1.0  0.12524111500000004  0.874743  0.5287688050770332  1.0000
  Al  Al12      1.0  0.37640624500000003  0.6226786900000001  0.5291121556073612  1.0000
  Al  Al13      1.0  0.37453448500000003  0.6248163600000001  0.44628925684829346  1.0000
  Al  Al14      1.0  0.12453448500000004  0.87481636  0.44628925684829346  1.0000
  Al  Al15      1.0  0.12453448500000004  0.87481636  0.47430012978071906  1.0000
  Al  Al16      1.0  0.37453448500000003  0.6248163600000001  0.47430012978071906  1.0000
  Co  Co5       1.0  0.37650314500000004  0.87285836  0.5169025128677065  1.0000
  Co  Co6       1.0  0.12453448500000004  0.6248163600000001  0.4883055628856274  1.0000
  Co  Co7       1.0  0.37453448500000003  0.87481636  0.46029469331450623  1.0000
  Co  Co8       1.0  0.12453448500000004  0.6248163600000001  0.43228382374338514  1.0000
  Ru  Ru5       1.0  0.12437482500000005  0.6245856200000001  0.5171137674931577  1.0000
  Ru  Ru6       1.0  0.37453448500000003  0.87481636  0.4883055628856274  1.0000
  Ru  Ru7       1.0  0.12453448500000004  0.6248163600000001  0.46029469331450623  1.0000
  Ru  Ru8       1.0  0.37453448500000003  0.87481636  0.43228382374338514  1.0000
  Al  Al17      1.0  0.875047565  0.12475591  0.5017451506325652  1.0000
  Al  Al18      1.0  0.6246716350000001  0.37374388000000003  0.5018965942060462  1.0000
  Al  Al19      1.0  0.624727005  0.37719564  0.5290786770147107  1.0000
  Al  Al20      1.0  0.8748970549999999  0.12487979  0.5287475750779186  1.0000
  Al  Al21      1.0  0.874534485  0.12481636000000002  0.44628925684829346  1.0000
  Al  Al22      1.0  0.6245344850000001  0.37481635999999996  0.44628925684829346  1.0000
  Al  Al23      1.0  0.6245344850000001  0.37481635999999996  0.47430012978071906  1.0000
  Al  Al24      1.0  0.874534485  0.12481636000000002  0.47430012978071906  1.0000
  Co  Co9       1.0  0.8740266050000001  0.3753591  0.5166701223596663  1.0000
  Co  Co10      1.0  0.6245344850000001  0.12481636000000002  0.4883055628856274  1.0000
  Co  Co11      1.0  0.874534485  0.37481635999999996  0.46029469331450623  1.0000
  Co  Co12      1.0  0.6245344850000001  0.12481636000000002  0.43228382374338514  1.0000
  Ru  Ru9       1.0  0.624793585  0.12500236  0.5171073608468132  1.0000
  Ru  Ru10      1.0  0.874534485  0.37481635999999996  0.4883055628856274  1.0000
  Ru  Ru11      1.0  0.6245344850000001  0.12481636000000002  0.46029469331450623  1.0000
  Ru  Ru12      1.0  0.874534485  0.37481635999999996  0.43228382374338514  1.0000
  Al  Al25      1.0  0.8756251749999999  0.6246844100000001  0.5018948732181508  1.0000
  Al  Al26      1.0  0.624516095  0.87587148  0.5019159082616054  1.0000
  Al  Al27      1.0  0.6266884450000001  0.8729855500000001  0.5291229353108381  1.0000
  Al  Al28      1.0  0.8721622950000001  0.62466389  0.5290769089685526  1.0000
  Al  Al29      1.0  0.874534485  0.6248163600000001  0.44628925684829346  1.0000
  Al  Al30      1.0  0.6245344850000001  0.87481636  0.44628925684829346  1.0000
  Al  Al31      1.0  0.6245344850000001  0.87481636  0.47430012978071906  1.0000
  Al  Al32      1.0  0.874534485  0.6248163600000001  0.47430012978071906  1.0000
  Co  Co13      1.0  0.8743132750000001  0.873902  0.5166708248723031  1.0000
  Co  Co14      1.0  0.6245344850000001  0.6248163600000001  0.4883055628856274  1.0000
  Co  Co15      1.0  0.874534485  0.87481636  0.46029469331450623  1.0000
  Co  Co16      1.0  0.6245344850000001  0.6248163600000001  0.43228382374338514  1.0000
  Ru  Ru13      1.0  0.624986615  0.6244109800000001  0.5167249149840435  1.0000
  Ru  Ru14      1.0  0.874534485  0.87481636  0.4883055628856274  1.0000
  Ru  Ru15      1.0  0.6245344850000001  0.6248163600000001  0.46029469331450623  1.0000
  Ru  Ru16      1.0  0.874534485  0.87481636  0.43228382374338514  1.0000
