data_image0
_chemical_formula_structural       COAl8Co4Ir4Al8Co4Ir4Al8Co4Ir4Al8Co4Ir4
_chemical_formula_sum              "C1 O1 Al32 Co16 Ir16"
_cell_length_a       8.38423438
_cell_length_b       8.38423438
_cell_length_c       105.5712939
_cell_angle_alpha    90.0
_cell_angle_beta     90.0
_cell_angle_gamma    90.0

_space_group_name_H-M_alt    "P 1"
_space_group_IT_number       1

loop_
  _space_group_symop_operation_xyz
  'x, y, z'

loop_
  _atom_site_type_symbol
  _atom_site_label
  _atom_site_symmetry_multiplicity
  _atom_site_fract_x
  _atom_site_fract_y
  _atom_site_fract_z
  _atom_site_occupancy
  C   C1        1.0  0.37873852  0.37873766000000003  0.5515314382043648  1.0000
  O   O1        1.0  0.37873909  0.3787382799999999  0.5629945641374254  1.0000
  Al  Al1       1.0  0.12125397000000002  0.37872580999999994  0.507441523213918  1.0000
  Al  Al2       1.0  0.37872711000000003  0.12125365  0.5074413109411086  1.0000
  Al  Al3       1.0  0.37873038  0.15033274  0.5361091042805108  1.0000
  Al  Al4       1.0  0.150336  0.37872976  0.5361092895980429  1.0000
  Al  Al5       1.0  0.12873944  0.3787388  0.4510446405927478  1.0000
  Al  Al6       1.0  0.37873944  0.12873880000000001  0.4510446405927478  1.0000
  Al  Al7       1.0  0.37873944  0.12873880000000001  0.47912305679191325  1.0000
  Al  Al8       1.0  0.12873944  0.3787388  0.47912305679191325  1.0000
  Co  Co1       1.0  0.37873944  0.3787388  0.4931622615220864  1.0000
  Co  Co2       1.0  0.12981128  0.12980939  0.5222508031557535  1.0000
  Co  Co3       1.0  0.37873944  0.3787388  0.4370054358625746  1.0000
  Co  Co4       1.0  0.12873944  0.12873880000000001  0.4650838486923305  1.0000
  Ir  Ir1       1.0  0.12873944  0.12873880000000001  0.4931622615220864  1.0000
  Ir  Ir2       1.0  0.37873944  0.37873866999999994  0.5194930727442776  1.0000
  Ir  Ir3       1.0  0.12873944  0.12873880000000001  0.4370054358625746  1.0000
  Ir  Ir4       1.0  0.37873944  0.3787388  0.4650838486923305  1.0000
  Al  Al9       1.0  0.13154725  0.87874635  0.5074644217220649  1.0000
  Al  Al10      1.0  0.37875161999999996  0.63622376  0.5074412974634699  1.0000
  Al  Al11      1.0  0.37874917  0.60714501  0.5361090537393658  1.0000
  Al  Al12      1.0  0.12559446  0.8787418600000001  0.5350816364944154  1.0000
  Al  Al13      1.0  0.12873944  0.8787387999999999  0.4510446405927478  1.0000
  Al  Al14      1.0  0.37873944  0.6287388  0.4510446405927478  1.0000
  Al  Al15      1.0  0.37873944  0.6287388  0.47912305679191325  1.0000
  Al  Al16      1.0  0.12873944  0.8787387999999999  0.47912305679191325  1.0000
  Co  Co5       1.0  0.37873944  0.8787387999999999  0.4931622615220864  1.0000
  Co  Co6       1.0  0.12981652999999999  0.62766327  0.5222498293963576  1.0000
  Co  Co7       1.0  0.37873944  0.8787387999999999  0.4370054358625746  1.0000
  Co  Co8       1.0  0.12873944  0.6287388  0.4650838486923305  1.0000
  Ir  Ir5       1.0  0.12873944  0.6287388  0.4931622615220864  1.0000
  Ir  Ir6       1.0  0.37873942  0.8787385699999999  0.5232865832755155  1.0000
  Ir  Ir7       1.0  0.12873944  0.6287388  0.4370054358625746  1.0000
  Ir  Ir8       1.0  0.37873944  0.8787387999999999  0.4650838486923305  1.0000
  Al  Al17      1.0  0.63622496  0.37875158000000003  0.5074415198445084  1.0000
  Al  Al18      1.0  0.87874603  0.13154907  0.5074646643195615  1.0000
  Al  Al19      1.0  0.87874235  0.12558981  0.5350818757225023  1.0000
  Al  Al20      1.0  0.60714332  0.3787483299999999  0.5361092457957172  1.0000
  Al  Al21      1.0  0.62873944  0.3787388  0.4510446405927478  1.0000
  Al  Al22      1.0  0.8787394399999999  0.12873880000000001  0.4510446405927478  1.0000
  Al  Al23      1.0  0.8787394399999999  0.12873880000000001  0.47912305679191325  1.0000
  Al  Al24      1.0  0.62873944  0.3787388  0.47912305679191325  1.0000
  Co  Co9       1.0  0.8787394399999999  0.3787388  0.4931622615220864  1.0000
  Co  Co10      1.0  0.6276622500000001  0.12981432  0.5222498159187189  1.0000
  Co  Co11      1.0  0.8787394399999999  0.3787388  0.4370054358625746  1.0000
  Co  Co12      1.0  0.62873944  0.12873880000000001  0.4650838486923305  1.0000
  Ir  Ir9       1.0  0.62873944  0.12873880000000001  0.4931622615220864  1.0000
  Ir  Ir10      1.0  0.87873954  0.37873892  0.5232875974678275  1.0000
  Ir  Ir11      1.0  0.62873944  0.12873880000000001  0.4370054358625746  1.0000
  Ir  Ir12      1.0  0.8787394399999999  0.3787388  0.4650838486923305  1.0000
  Al  Al25      1.0  0.62593163  0.8787314  0.5074644149832455  1.0000
  Al  Al26      1.0  0.8787330299999999  0.62592858  0.5074646474725131  1.0000
  Al  Al27      1.0  0.8787359399999999  0.631888  0.5350818656142733  1.0000
  Al  Al28      1.0  0.6318843700000001  0.87873539  0.5350816061697283  1.0000
  Al  Al29      1.0  0.62873944  0.8787387999999999  0.4510446405927478  1.0000
  Al  Al30      1.0  0.8787394399999999  0.6287388  0.4510446405927478  1.0000
  Al  Al31      1.0  0.8787394399999999  0.6287388  0.47912305679191325  1.0000
  Al  Al32      1.0  0.62873944  0.8787387999999999  0.47912305679191325  1.0000
  Co  Co13      1.0  0.8787394399999999  0.8787387999999999  0.4931622615220864  1.0000
  Co  Co14      1.0  0.6276678699999999  0.62766841  0.5222505740358956  1.0000
  Co  Co15      1.0  0.8787394399999999  0.8787387999999999  0.4370054358625746  1.0000
  Co  Co16      1.0  0.62873944  0.6287388  0.4650838486923305  1.0000
  Ir  Ir13      1.0  0.62873944  0.6287388  0.4931622615220864  1.0000
  Ir  Ir14      1.0  0.87873954  0.8787388500000001  0.5215352517314414  1.0000
  Ir  Ir15      1.0  0.62873944  0.6287388  0.4370054358625746  1.0000
  Ir  Ir16      1.0  0.8787394399999999  0.8787387999999999  0.4650838486923305  1.0000
