data_image0
_chemical_formula_structural       COAl8Rh4Ru4Al8Rh4Ru4Al8Rh4Ru4Al8Rh4Ru4
_chemical_formula_sum              "C1 O1 Al32 Rh16 Ru16"
_cell_length_a       8.52928424
_cell_length_b       8.52928424
_cell_length_c       106.18668832
_cell_angle_alpha    90.0
_cell_angle_beta     90.0
_cell_angle_gamma    90.0

_space_group_name_H-M_alt    "P 1"
_space_group_IT_number       1

loop_
  _space_group_symop_operation_xyz
  'x, y, z'

loop_
  _atom_site_type_symbol
  _atom_site_label
  _atom_site_symmetry_multiplicity
  _atom_site_fract_x
  _atom_site_fract_y
  _atom_site_fract_z
  _atom_site_occupancy
  C   C1        1.0  0.50000514  0.62326697  0.5526100587937972  1.0000
  O   O1        1.0  0.49999943999999996  0.62326786  0.5638170463913112  1.0000
  Al  Al1       1.0  0.25132985  0.12326780999999996  0.5340367120424258  1.0000
  Al  Al2       1.0  0.25103027999999994  0.12326785999999999  0.5068614336357486  1.0000
  Al  Al3       1.0  2.9999999944677655e-08  0.37429808000000003  0.5068614302279121  1.0000
  Al  Al4       1.0  5.999999994467765e-08  0.37459723999999994  0.5340367563443016  1.0000
  Al  Al5       1.0  0.25000018999999996  0.12326782999999998  0.4787809111452178  1.0000
  Al  Al6       1.0  0.25000018999999996  0.12326782999999998  0.4503822705156407  1.0000
  Al  Al7       1.0  1.8999999994467766e-07  0.37326782999999997  0.4503822705156407  1.0000
  Al  Al8       1.0  1.8999999994467766e-07  0.37326782999999997  0.4787809111452178  1.0000
  Rh  Rh1       1.0  0.25000018999999996  0.37326782999999997  0.49298022805216973  1.0000
  Rh  Rh2       1.0  0.9999999399999999  0.12326785  0.5216772827095549  1.0000
  Rh  Rh3       1.0  0.25000018999999996  0.37326782999999997  0.4361829536086888  1.0000
  Rh  Rh4       1.0  1.8999999994467766e-07  0.12326782999999998  0.46458159083042927  1.0000
  Ru  Ru1       1.0  1.8999999994467766e-07  0.12326782999999998  0.49298022805216973  1.0000
  Ru  Ru2       1.0  0.25196364999999993  0.37523164999999997  0.5224734998769716  1.0000
  Ru  Ru3       1.0  1.8999999994467766e-07  0.12326782999999998  0.4361829536086888  1.0000
  Ru  Ru4       1.0  0.25000018999999996  0.37326782999999997  0.46458159083042927  1.0000
  Al  Al9       1.0  0.26475632999999993  0.62326793  0.5349734172737978  1.0000
  Al  Al10      1.0  0.24653565  0.62326782  0.5068124153140522  1.0000
  Al  Al11      1.0  1.9999999944677678e-08  0.8722375900000001  0.5068614268200755  1.0000
  Al  Al12      1.0  6.000000007944095e-08  0.8719384800000001  0.5340367597521382  1.0000
  Al  Al13      1.0  0.25000018999999996  0.6232678300000001  0.4787809111452178  1.0000
  Al  Al14      1.0  0.25000018999999996  0.6232678300000001  0.4503822705156407  1.0000
  Al  Al15      1.0  1.8999999994467766e-07  0.87326783  0.4503822705156407  1.0000
  Al  Al16      1.0  1.8999999994467766e-07  0.87326783  0.4787809111452178  1.0000
  Rh  Rh5       1.0  0.25000018999999996  0.87326783  0.49298022805216973  1.0000
  Rh  Rh6       1.0  1.4999999994467768e-07  0.62326786  0.5221821162160752  1.0000
  Rh  Rh7       1.0  0.25000018999999996  0.87326783  0.4361829536086888  1.0000
  Rh  Rh8       1.0  1.8999999994467766e-07  0.6232678300000001  0.46458159083042927  1.0000
  Ru  Ru5       1.0  1.8999999994467766e-07  0.6232678300000001  0.49298022805216973  1.0000
  Ru  Ru6       1.0  0.25196356  0.87130415  0.5224734794299519  1.0000
  Ru  Ru7       1.0  1.8999999994467766e-07  0.6232678300000001  0.4361829536086888  1.0000
  Ru  Ru8       1.0  0.25000018999999996  0.87326783  0.46458159083042927  1.0000
  Al  Al17      1.0  0.74867014  0.12326781999999999  0.5340366950032427  1.0000
  Al  Al18      1.0  0.74896995  0.12326785  0.5068614472670951  1.0000
  Al  Al19      1.0  0.50000014  0.36980346999999997  0.5068124289453987  1.0000
  Al  Al20      1.0  0.49999967999999995  0.38802399  0.5349733593405755  1.0000
  Al  Al21      1.0  0.7500001899999998  0.12326782999999998  0.4787809111452178  1.0000
  Al  Al22      1.0  0.7500001899999998  0.12326782999999998  0.4503822705156407  1.0000
  Al  Al23      1.0  0.50000019  0.37326782999999997  0.4503822705156407  1.0000
  Al  Al24      1.0  0.50000019  0.37326782999999997  0.4787809111452178  1.0000
  Rh  Rh9       1.0  0.7500001899999998  0.37326782999999997  0.49298022805216973  1.0000
  Rh  Rh10      1.0  0.4999999699999999  0.12326781999999999  0.5221819833104477  1.0000
  Rh  Rh11      1.0  0.7500001899999998  0.37326782999999997  0.4361829536086888  1.0000
  Rh  Rh12      1.0  0.50000019  0.12326782999999998  0.46458159083042927  1.0000
  Ru  Ru9       1.0  0.50000019  0.12326782999999998  0.49298022805216973  1.0000
  Ru  Ru10      1.0  0.7480370799999999  0.37523119000000005  0.5224731965795139  1.0000
  Ru  Ru11      1.0  0.50000019  0.12326782999999998  0.4361829536086888  1.0000
  Ru  Ru12      1.0  0.7500001899999998  0.37326782999999997  0.46458159083042927  1.0000
  Al  Al25      1.0  0.7352432499999999  0.6232679200000001  0.5349736217439939  1.0000
  Al  Al26      1.0  0.7534646899999999  0.62326782  0.5068124323532353  1.0000
  Al  Al27      1.0  0.50000014  0.8767321900000001  0.5068124255375621  1.0000
  Al  Al28      1.0  0.4999996599999999  0.8585117999999999  0.534973328670046  1.0000
  Al  Al29      1.0  0.7500001899999998  0.6232678300000001  0.4787809111452178  1.0000
  Al  Al30      1.0  0.7500001899999998  0.6232678300000001  0.4503822705156407  1.0000
  Al  Al31      1.0  0.50000019  0.87326783  0.4503822705156407  1.0000
  Al  Al32      1.0  0.50000019  0.87326783  0.4787809111452178  1.0000
  Rh  Rh13      1.0  0.7500001899999998  0.87326783  0.49298022805216973  1.0000
  Rh  Rh14      1.0  0.4999999199999999  0.6232678700000001  0.5198845221078555  1.0000
  Rh  Rh15      1.0  0.7500001899999998  0.87326783  0.4361829536086888  1.0000
  Rh  Rh16      1.0  0.50000019  0.6232678300000001  0.46458159083042927  1.0000
  Ru  Ru13      1.0  0.50000019  0.6232678300000001  0.49298022805216973  1.0000
  Ru  Ru14      1.0  0.74803716  0.8713046000000001  0.5224731795403308  1.0000
  Ru  Ru15      1.0  0.50000019  0.6232678300000001  0.4361829536086888  1.0000
  Ru  Ru16      1.0  0.7500001899999998  0.87326783  0.46458159083042927  1.0000
