data_image0
_chemical_formula_structural       COGa3Cu3Pt6Ga3Cu3Pt6Ga3Cu3Pt6Ga3Cu3Pt6
_chemical_formula_sum              "C1 O1 Ga12 Cu12 Pt24"
_cell_length_a       8.08104574
_cell_length_b       8.241597479095452
_cell_length_c       102.43628582
_cell_angle_alpha    77.72399126524107
_cell_angle_beta     90.0
_cell_angle_gamma    90.0

_space_group_name_H-M_alt    "P 1"
_space_group_IT_number       1

loop_
  _space_group_symop_operation_xyz
  'x, y, z'

loop_
  _atom_site_type_symbol
  _atom_site_label
  _atom_site_symmetry_multiplicity
  _atom_site_fract_x
  _atom_site_fract_y
  _atom_site_fract_z
  _atom_site_occupancy
  C   C1        1.0  0.12257782499999997  0.19428474000000007  0.5479209922798685  1.0000
  O   O1        1.0  0.12257727499999997  0.15432364000000007  0.5596970828783535  1.0000
  Ga  Ga1       1.0  0.37257769499999993  0.8341166600000001  0.44909870666353136  1.0000
  Ga  Ga2       1.0  0.37257769499999993  0.16745000000000002  0.46669028574730104  1.0000
  Ga  Ga3       1.0  0.37257769499999993  0.5007833300000001  0.48428186166458664  1.0000
  Cu  Cu1       1.0  0.12257769499999997  0.0007833300000000291  0.48428186166458664  1.0000
  Cu  Cu2       1.0  0.12257769499999997  0.33411666  0.44909870666353136  1.0000
  Cu  Cu3       1.0  0.12257769499999997  0.66745  0.46669028574730104  1.0000
  Pt  Pt1       1.0  0.37257769499999993  0.16745000000000002  0.4403029171216466  1.0000
  Pt  Pt2       1.0  0.37257769499999993  0.5007833300000001  0.4578944962054162  1.0000
  Pt  Pt3       1.0  0.37257769499999993  0.8341166600000001  0.47548607212270183  1.0000
  Pt  Pt4       1.0  0.12257769499999997  0.0007833300000000291  0.4578944962054162  1.0000
  Pt  Pt5       1.0  0.12257769499999997  0.33411666  0.47548607212270183  1.0000
  Pt  Pt6       1.0  0.12257769499999997  0.66745  0.4403029171216466  1.0000
  Ga  Ga4       1.0  0.37257769499999993  0.8341166600000001  0.5018734407483564  1.0000
  Ga  Ga5       1.0  0.3776370149999999  0.17423476000000004  0.5193884035857033  1.0000
  Ga  Ga6       1.0  0.38548728499999996  0.52368603  0.5357549301801258  1.0000
  Cu  Cu4       1.0  0.12257833499999997  0.01690817000000003  0.5354254290234677  1.0000
  Cu  Cu5       1.0  0.12257769499999997  0.33411666  0.5018734407483564  1.0000
  Cu  Cu6       1.0  0.12257776499999998  0.66991618  0.5207219683146214  1.0000
  Pt  Pt7       1.0  0.37257769499999993  0.16745000000000002  0.4930776512064715  1.0000
  Pt  Pt8       1.0  0.367733795  0.5010963800000001  0.5104586052752264  1.0000
  Pt  Pt9       1.0  0.3720611449999999  0.84175638  0.5278362978654801  1.0000
  Pt  Pt10      1.0  0.12257822499999996  0.0012200400000000292  0.5103193781410323  1.0000
  Pt  Pt11      1.0  0.12257843499999996  0.3470606000000001  0.5306903163744039  1.0000
  Pt  Pt12      1.0  0.12257769499999997  0.66745  0.4930776512064715  1.0000
  Ga  Ga7       1.0  0.8725776949999999  0.8341166600000001  0.44909870666353136  1.0000
  Ga  Ga8       1.0  0.8725776949999999  0.16745000000000002  0.46669028574730104  1.0000
  Ga  Ga9       1.0  0.8725776949999999  0.5007833300000001  0.48428186166458664  1.0000
  Cu  Cu7       1.0  0.6225776949999999  0.0007833300000000291  0.48428186166458664  1.0000
  Cu  Cu8       1.0  0.6225776949999999  0.33411666  0.44909870666353136  1.0000
  Cu  Cu9       1.0  0.6225776949999999  0.66745  0.46669028574730104  1.0000
  Pt  Pt13      1.0  0.8725776949999999  0.16745000000000002  0.4403029171216466  1.0000
  Pt  Pt14      1.0  0.8725776949999999  0.5007833300000001  0.4578944962054162  1.0000
  Pt  Pt15      1.0  0.8725776949999999  0.8341166600000001  0.47548607212270183  1.0000
  Pt  Pt16      1.0  0.6225776949999999  0.0007833300000000291  0.4578944962054162  1.0000
  Pt  Pt17      1.0  0.6225776949999999  0.33411666  0.47548607212270183  1.0000
  Pt  Pt18      1.0  0.6225776949999999  0.66745  0.4403029171216466  1.0000
  Ga  Ga10      1.0  0.8725776949999999  0.8341166600000001  0.5018734407483564  1.0000
  Ga  Ga11      1.0  0.867522795  0.17423516000000003  0.5193883275900877  1.0000
  Ga  Ga12      1.0  0.8596670949999999  0.5236886900000001  0.5357552753268797  1.0000
  Cu  Cu10      1.0  0.6225783349999999  0.012886620000000027  0.5353710953248247  1.0000
  Cu  Cu11      1.0  0.6225776949999999  0.33411666  0.5018734407483564  1.0000
  Cu  Cu12      1.0  0.622578055  0.67396522  0.5199931640284117  1.0000
  Pt  Pt19      1.0  0.8725776949999999  0.16745000000000002  0.4930776512064715  1.0000
  Pt  Pt20      1.0  0.877422725  0.50109672  0.5104587540999735  1.0000
  Pt  Pt21      1.0  0.8730952249999999  0.84175719  0.527836316864384  1.0000
  Pt  Pt22      1.0  0.6225781049999999  0.9992166699999999  0.5100784878721201  1.0000
  Pt  Pt23      1.0  0.622579335  0.34552466000000004  0.5282160036256689  1.0000
  Pt  Pt24      1.0  0.6225776949999999  0.66745  0.4930776512064715  1.0000
