data_image0
_chemical_formula_structural       COMn4Pt4Sb4Mn4Pt4Sb4Mn4Pt4Sb4Mn4Pt4Sb4
_chemical_formula_sum              "C1 O1 Mn16 Pt16 Sb16"
_cell_length_a       8.66440032
_cell_length_b       8.66440032
_cell_length_c       106.75993736000001
_cell_angle_alpha    90.0
_cell_angle_beta     90.0
_cell_angle_gamma    90.0

_space_group_name_H-M_alt    "P 1"
_space_group_IT_number       1

loop_
  _space_group_symop_operation_xyz
  'x, y, z'

loop_
  _atom_site_type_symbol
  _atom_site_label
  _atom_site_symmetry_multiplicity
  _atom_site_fract_x
  _atom_site_fract_y
  _atom_site_fract_z
  _atom_site_occupancy
  C   C1        1.0  0.62484995  0.37479467000000005  0.5526993608421992  1.0000
  O   O1        1.0  0.6248474700000001  0.37463798000000004  0.5637763181850057  1.0000
  Mn  Mn1       1.0  0.12485127000000004  0.37469724000000004  0.47926409831978706  1.0000
  Mn  Mn2       1.0  0.37485127000000007  0.12469724000000001  0.45057048502110286  1.0000
  Mn  Mn3       1.0  0.12484550000000004  0.37492253  0.5336092799270964  1.0000
  Mn  Mn4       1.0  0.37485127000000007  0.12469724000000001  0.5079577081752379  1.0000
  Pt  Pt1       1.0  0.37485127000000007  0.37469724000000004  0.464917291670445  1.0000
  Pt  Pt2       1.0  0.12485127000000004  0.12469724000000001  0.43622368181499416  1.0000
  Pt  Pt3       1.0  0.37700117  0.37460977  0.5217025653322772  1.0000
  Pt  Pt4       1.0  0.12485127000000004  0.12469724000000001  0.49361090152589576  1.0000
  Sb  Sb1       1.0  0.12485127000000004  0.37469724000000004  0.45057048502110286  1.0000
  Sb  Sb2       1.0  0.37485127000000007  0.12469724000000001  0.47926409831978706  1.0000
  Sb  Sb3       1.0  0.12485127000000004  0.37469724000000004  0.5079577081752379  1.0000
  Sb  Sb4       1.0  0.3753132700000001  0.13182384  0.5379850854464391  1.0000
  Mn  Mn5       1.0  0.12485127000000004  0.8746972400000002  0.47926409831978706  1.0000
  Mn  Mn6       1.0  0.37485127000000007  0.62469724  0.45057048502110286  1.0000
  Mn  Mn7       1.0  0.12486016000000004  0.87501834  0.533250360729013  1.0000
  Mn  Mn8       1.0  0.37485127000000007  0.62469724  0.5079577081752379  1.0000
  Pt  Pt5       1.0  0.37485127000000007  0.8746972400000002  0.464917291670445  1.0000
  Pt  Pt6       1.0  0.12485127000000004  0.62469724  0.43622368181499416  1.0000
  Pt  Pt7       1.0  0.3745530900000001  0.87452567  0.522408021861424  1.0000
  Pt  Pt8       1.0  0.12485127000000004  0.62469724  0.49361090152589576  1.0000
  Sb  Sb5       1.0  0.12485127000000004  0.8746972400000002  0.45057048502110286  1.0000
  Sb  Sb6       1.0  0.37485127000000007  0.62469724  0.47926409831978706  1.0000
  Sb  Sb7       1.0  0.12485127000000004  0.8746972400000002  0.5079577081752379  1.0000
  Sb  Sb8       1.0  0.3753357500000001  0.6173059100000001  0.5379916103735812  1.0000
  Mn  Mn9       1.0  0.6248512700000001  0.37469724000000004  0.47926409831978706  1.0000
  Mn  Mn10      1.0  0.8748512700000002  0.12469724000000001  0.45057048502110286  1.0000
  Mn  Mn11      1.0  0.6248545500000001  0.37514093000000004  0.536012656784724  1.0000
  Mn  Mn12      1.0  0.8748512700000002  0.12469724000000001  0.5079577081752379  1.0000
  Pt  Pt9       1.0  0.8748512700000002  0.37469724000000004  0.464917291670445  1.0000
  Pt  Pt10      1.0  0.6248512700000001  0.12469724000000001  0.43622368181499416  1.0000
  Pt  Pt11      1.0  0.8727064700000001  0.37456354000000003  0.5216992839309229  1.0000
  Pt  Pt12      1.0  0.6248512700000001  0.12469724000000001  0.49361090152589576  1.0000
  Sb  Sb9       1.0  0.6248512700000001  0.37469724000000004  0.45057048502110286  1.0000
  Sb  Sb10      1.0  0.8748512700000002  0.12469724000000001  0.47926409831978706  1.0000
  Sb  Sb11      1.0  0.6248512700000001  0.37469724000000004  0.5079577081752379  1.0000
  Sb  Sb12      1.0  0.8743626600000002  0.13184137  0.5379881636970275  1.0000
  Mn  Mn13      1.0  0.6248512700000001  0.8746972400000002  0.47926409831978706  1.0000
  Mn  Mn14      1.0  0.8748512700000002  0.62469724  0.45057048502110286  1.0000
  Mn  Mn15      1.0  0.6248406900000001  0.87530276  0.5334910909433742  1.0000
  Mn  Mn16      1.0  0.8748512700000002  0.62469724  0.5079577081752379  1.0000
  Pt  Pt13      1.0  0.8748512700000002  0.8746972400000002  0.464917291670445  1.0000
  Pt  Pt14      1.0  0.6248512700000001  0.62469724  0.43622368181499416  1.0000
  Pt  Pt15      1.0  0.8751545000000001  0.87452708  0.5224102048713491  1.0000
  Pt  Pt16      1.0  0.6248512700000001  0.62469724  0.49361090152589576  1.0000
  Sb  Sb13      1.0  0.6248512700000001  0.8746972400000002  0.45057048502110286  1.0000
  Sb  Sb14      1.0  0.8748512700000002  0.62469724  0.47926409831978706  1.0000
  Sb  Sb15      1.0  0.6248512700000001  0.8746972400000002  0.5079577081752379  1.0000
  Sb  Sb16      1.0  0.8744077000000001  0.6172775600000001  0.5379917963081805  1.0000
