data_image0
_chemical_formula_structural       COAs4Pd4Se4As4Pd4Se4
_chemical_formula_sum              "C1 O1 As8 Pd8 Se8"
_cell_length_a       6.2337312
_cell_length_b       6.2337312
_cell_length_c       107.40238719999999
_cell_angle_alpha    90.0
_cell_angle_beta     90.0
_cell_angle_gamma    90.0

_space_group_name_H-M_alt    "P 1"
_space_group_IT_number       1

loop_
  _space_group_symop_operation_xyz
  'x, y, z'

loop_
  _atom_site_type_symbol
  _atom_site_label
  _atom_site_symmetry_multiplicity
  _atom_site_fract_x
  _atom_site_fract_y
  _atom_site_fract_z
  _atom_site_occupancy
  C   C1        1.0  0.05792652  0.97262043  0.5505473269192113  1.0000
  O   O1        1.0  0.08087479000000002  0.9526342  0.5611729348187762  1.0000
  As  As1       1.0  0.8833814100000001  0.38585144000000005  0.48138480859623023  1.0000
  As  As2       1.0  0.38338141000000003  0.11908861999999999  0.4678475139494741  1.0000
  As  As3       1.0  0.6166185900000001  0.6190886200000001  0.45236435982797996  1.0000
  As  As4       1.0  0.11661859  0.88585144  0.43882706518122383  1.0000
  Pd  Pd1       1.0  0.5068082300000001  0.49566180000000004  0.474221007218438  1.0000
  Pd  Pd2       1.0  0.49319177000000003  0.9956618  0.44599086655901604  1.0000
  Pd  Pd3       1.0  0.99319177  0.5092782600000001  0.44520055845018774  1.0000
  Pd  Pd4       1.0  0.006808229999999999  0.00927826  0.47501131880972036  1.0000
  Se  Se1       1.0  0.61338753  0.8890824999999999  0.48119727496633463  1.0000
  Se  Se2       1.0  0.11338753000000001  0.61585756  0.46803504757936976  1.0000
  Se  Se3       1.0  0.88661247  0.11585756000000001  0.45217682619808436  1.0000
  Se  Se4       1.0  0.38661247000000004  0.38908250000000005  0.4390145988111195  1.0000
  As  As5       1.0  0.84587181  0.3798708700000001  0.5393309555245304  1.0000
  As  As6       1.0  0.38134634000000006  0.10171852  0.5260848288560025  1.0000
  As  As7       1.0  0.6166185900000001  0.6190886200000001  0.5104052608469345  1.0000
  As  As8       1.0  0.11661859  0.88585144  0.49686796620017826  1.0000
  Pd  Pd5       1.0  0.49104151000000007  0.48017409000000005  0.531446289652954  1.0000
  Pd  Pd6       1.0  0.49319177000000003  0.9956618  0.5040317675779706  1.0000
  Pd  Pd7       1.0  0.99319177  0.5092782600000001  0.5032414559866882  1.0000
  Pd  Pd8       1.0  0.9827965400000002  0.0043382  0.5329449428334669  1.0000
  Se  Se5       1.0  0.57542597  0.8667499000000001  0.5400052038891844  1.0000
  Se  Se6       1.0  0.09227533000000002  0.5956700600000001  0.5269269628451322  1.0000
  Se  Se7       1.0  0.88661247  0.11585756000000001  0.510217727217039  1.0000
  Se  Se8       1.0  0.38661247000000004  0.38908250000000005  0.49705549983007397  1.0000
