data_image0
_chemical_formula_structural       COZn4Cu4As4Zn4Cu4As4
_chemical_formula_sum              "C1 O1 Zn8 Cu8 As8"
_cell_length_a       5.99169563
_cell_length_b       9.51655847124369
_cell_length_c       103.54095504
_cell_angle_alpha    116.13964617037038
_cell_angle_beta     90.0
_cell_angle_gamma    90.0

_space_group_name_H-M_alt    "P 1"
_space_group_IT_number       1

loop_
  _space_group_symop_operation_xyz
  'x, y, z'

loop_
  _atom_site_type_symbol
  _atom_site_label
  _atom_site_symmetry_multiplicity
  _atom_site_fract_x
  _atom_site_fract_y
  _atom_site_fract_z
  _atom_site_occupancy
  C   C1        1.0  0.16125124500000002  0.6926085599999999  0.5403226636680805  1.0000
  O   O1        1.0  0.15438195500000002  0.73874384  0.5527160780139594  1.0000
  Zn  Zn1       1.0  0.14068316500000003  0.86406629  0.4702645736272232  1.0000
  Zn  Zn2       1.0  0.640683165  0.63073255  0.4810625235339419  1.0000
  Zn  Zn3       1.0  0.14068316500000003  0.36406628999999996  0.4474730278651213  1.0000
  Zn  Zn4       1.0  0.640683165  0.13073255000000003  0.4582709777718399  1.0000
  Cu  Cu1       1.0  0.128737225  0.63466798  0.4812516294130227  1.0000
  Cu  Cu2       1.0  0.628737225  0.36013086000000005  0.4472839219860405  1.0000
  Cu  Cu3       1.0  0.128737225  0.13466798000000005  0.45840058253255295  1.0000
  Cu  Cu4       1.0  0.628737225  0.8601308599999999  0.47013496886651024  1.0000
  As  As1       1.0  0.8854906749999999  0.88385671  0.45063630206968813  1.0000
  As  As2       1.0  0.38549067499999995  0.6109421300000001  0.4598315280639091  1.0000
  As  As3       1.0  0.8854906749999999  0.38385671  0.46870402333515393  1.0000
  As  As4       1.0  0.38549067499999995  0.11094213000000003  0.477899249329375  1.0000
  Zn  Zn5       1.0  0.11450932500000004  0.87115703  0.5125467460197825  1.0000
  Zn  Zn6       1.0  0.7666594449999999  0.6934222200000001  0.5126145885677994  1.0000
  Zn  Zn7       1.0  0.14068316500000003  0.36406628999999996  0.48796540480311945  1.0000
  Zn  Zn8       1.0  0.6006366649999999  0.15775622000000003  0.50299650230091  1.0000
  Cu  Cu5       1.0  0.11500880500000002  0.6288864700000001  0.5208213664864525  1.0000
  Cu  Cu6       1.0  0.628737225  0.36013086000000005  0.4877762989240387  1.0000
  Cu  Cu7       1.0  0.138243885  0.14497873000000003  0.5003828780996799  1.0000
  Cu  Cu8       1.0  0.543924805  0.8890578699999999  0.5052253161062329  1.0000
  As  As5       1.0  0.8854906749999999  0.88385671  0.49112867900768625  1.0000
  As  As6       1.0  0.37929406499999996  0.61356282  0.5011130528375766  1.0000
  As  As7       1.0  0.8851205050000001  0.37798964  0.5078889694490175  1.0000
  As  As8       1.0  0.33071147500000003  0.12250955000000004  0.5203952020358259  1.0000
