data_image0
_chemical_formula_structural       COZn6Rh2Zn6Rh2Zn6Rh2Zn6Rh2
_chemical_formula_sum              "C1 O1 Zn24 Rh8"
_cell_length_a       7.5064626
_cell_length_b       8.22914382
_cell_length_c       100.0258504
_cell_angle_alpha    90.0
_cell_angle_beta     90.0
_cell_angle_gamma    90.0

_space_group_name_H-M_alt    "P 1"
_space_group_IT_number       1

loop_
  _space_group_symop_operation_xyz
  'x, y, z'

loop_
  _atom_site_type_symbol
  _atom_site_label
  _atom_site_symmetry_multiplicity
  _atom_site_fract_x
  _atom_site_fract_y
  _atom_site_fract_z
  _atom_site_occupancy
  C   C1        1.0  0.620610935  0.15498570000000003  0.5320024890145101  1.0000
  O   O1        1.0  0.618269725  0.17197727000000002  0.5436563883150369  1.0000
  Zn  Zn1       1.0  0.12351105500000001  0.36491992  0.4563436116849631  1.0000
  Zn  Zn2       1.0  0.37351105500000004  0.36491992  0.47510491831215473  1.0000
  Zn  Zn3       1.0  0.12351105500000001  0.6149199200000001  0.47510491831215473  1.0000
  Zn  Zn4       1.0  0.37351105500000004  0.8649199200000001  0.47510491831215473  1.0000
  Zn  Zn5       1.0  0.12351105500000001  0.8649199200000001  0.4563436116849631  1.0000
  Zn  Zn6       1.0  0.37351105500000004  0.11491992000000004  0.4563436116849631  1.0000
  Rh  Rh1       1.0  0.12351105500000001  0.11491992000000004  0.47510491831215473  1.0000
  Rh  Rh2       1.0  0.37351105500000004  0.6149199200000001  0.4563436116849631  1.0000
  Zn  Zn7       1.0  0.123453795  0.36567675000000005  0.4937678346437753  1.0000
  Zn  Zn8       1.0  0.370762645  0.35248100000000004  0.5129299127986144  1.0000
  Zn  Zn9       1.0  0.12403744500000001  0.6154350000000001  0.511846466852653  1.0000
  Zn  Zn10      1.0  0.37358195499999997  0.8856694599999999  0.5136298716334979  1.0000
  Zn  Zn11      1.0  0.123786995  0.8625952600000001  0.49405080918027644  1.0000
  Zn  Zn12      1.0  0.37673468499999996  0.11495239000000003  0.49362019967056914  1.0000
  Rh  Rh3       1.0  0.123565915  0.11488534000000004  0.510798508293403  1.0000
  Rh  Rh4       1.0  0.378786985  0.6139043000000001  0.49428202652495906  1.0000
  Zn  Zn13      1.0  0.623511055  0.36491992  0.4563436116849631  1.0000
  Zn  Zn14      1.0  0.873511055  0.36491992  0.47510491831215473  1.0000
  Zn  Zn15      1.0  0.623511055  0.6149199200000001  0.47510491831215473  1.0000
  Zn  Zn16      1.0  0.873511055  0.8649199200000001  0.47510491831215473  1.0000
  Zn  Zn17      1.0  0.623511055  0.8649199200000001  0.4563436116849631  1.0000
  Zn  Zn18      1.0  0.873511055  0.11491992000000004  0.4563436116849631  1.0000
  Rh  Rh5       1.0  0.623511055  0.11491992000000004  0.47510491831215473  1.0000
  Rh  Rh6       1.0  0.873511055  0.6149199200000001  0.4563436116849631  1.0000
  Zn  Zn19      1.0  0.623657175  0.36608606  0.49392853048820307  1.0000
  Zn  Zn20      1.0  0.876546205  0.3517759200000001  0.5129336380436583  1.0000
  Zn  Zn21      1.0  0.6235221350000001  0.62255358  0.5120873350134646  1.0000
  Zn  Zn22      1.0  0.873521995  0.88463694  0.5135547273472901  1.0000
  Zn  Zn23      1.0  0.623292435  0.86759416  0.4940964516870391  1.0000
  Zn  Zn24      1.0  0.870599825  0.11433054000000004  0.49359590602984377  1.0000
  Rh  Rh7       1.0  0.6238030250000001  0.12085960000000004  0.5135120236115975  1.0000
  Rh  Rh8       1.0  0.8687071449999999  0.6136870799999999  0.4943402556171117  1.0000
