data_image0
_chemical_formula_structural       COCo4Zn52
_chemical_formula_sum              "C1 O1 Co4 Zn52"
_cell_length_a       14.170412010312678
_cell_length_b       6.697268582923171
_cell_length_c       101.45369875
_cell_angle_alpha    89.18105791051944
_cell_angle_beta     86.07086256320649
_cell_angle_gamma    95.36581175909888

_space_group_name_H-M_alt    "P 1"
_space_group_IT_number       1

loop_
  _space_group_symop_operation_xyz
  'x, y, z'

loop_
  _atom_site_type_symbol
  _atom_site_label
  _atom_site_symmetry_multiplicity
  _atom_site_fract_x
  _atom_site_fract_y
  _atom_site_fract_z
  _atom_site_occupancy
  C   C1        1.0  0.534151875  0.40406382  0.5376282164372892  1.0000
  O   O1        1.0  0.5283958350000001  0.40519561000000004  0.5493529930613674  1.0000
  Co  Co1       1.0  0.979175845  0.8143474199999999  0.49587754392382555  1.0000
  Co  Co2       1.0  0.5411670250000001  0.40224567000000006  0.5203977519639172  1.0000
  Co  Co3       1.0  0.8363187049999999  0.67149028  0.45158752970309163  1.0000
  Co  Co4       1.0  0.40774727499999996  0.24291885  0.4737325383636089  1.0000
  Zn  Zn1       1.0  0.05121288499999999  0.89149122  0.5189971941595509  1.0000
  Zn  Zn2       1.0  0.47917584500000004  0.31434742000000004  0.4958775439238256  1.0000
  Zn  Zn3       1.0  0.771431385  0.02716891000000005  0.5265422537010823  1.0000
  Zn  Zn4       1.0  0.205038225  0.42432937000000004  0.5057448218038689  1.0000
  Zn  Zn5       1.0  0.32195500499999996  0.7792347499999999  0.5090847696986692  1.0000
  Zn  Zn6       1.0  0.891617795  0.35677677  0.5275233066984282  1.0000
  Zn  Zn7       1.0  0.421781595  0.07969372000000002  0.5202600738041951  1.0000
  Zn  Zn8       1.0  0.8660670149999999  0.47984676000000004  0.49512946613343495  1.0000
  Zn  Zn9       1.0  0.657852075  0.7359097699999999  0.5188439772920166  1.0000
  Zn  Zn10      1.0  0.092284675  0.14884808000000002  0.49662561861391535  1.0000
  Zn  Zn11      1.0  0.6115041849999999  0.09711774000000004  0.5045506696282555  1.0000
  Zn  Zn12      1.0  0.174165455  0.65138049  0.5264837324224181  1.0000
  Zn  Zn13      1.0  0.164294395  0.78327565  0.49576301881077983  1.0000
  Zn  Zn14      1.0  0.7196002149999999  0.38567331  0.5219428054895537  1.0000
  Zn  Zn15      1.0  0.470041685  0.7350219799999999  0.5284388317372107  1.0000
  Zn  Zn16      1.0  0.9185041549999999  0.10084822000000002  0.5092433252842509  1.0000
  Zn  Zn17      1.0  0.7940572950000001  0.8454191899999999  0.4959920659365704  1.0000
  Zn  Zn18      1.0  0.3576631350000001  0.42375587  0.5189995472878889  1.0000
  Zn  Zn19      1.0  0.588005625  0.05519554000000003  0.5299886442246372  1.0000
  Zn  Zn20      1.0  0.020824154999999997  0.5201555500000001  0.5096353242222147  1.0000
  Zn  Zn21      1.0  0.22737322499999998  0.06977769000000004  0.5211647074861252  1.0000
  Zn  Zn22      1.0  0.6598868449999999  0.49182862000000005  0.49681806668828443  1.0000
  Zn  Zn23      1.0  0.5059105150000001  0.6874028999999999  0.5033380923647474  1.0000
  Zn  Zn24      1.0  0.075914065  0.26933353  0.5265064545272776  1.0000
  Zn  Zn25      1.0  0.859996315  0.71009416  0.518453447896651  1.0000
  Zn  Zn26      1.0  0.2984648450000001  0.13686622000000007  0.4949370180590657  1.0000
  Zn  Zn27      1.0  0.9077472750000001  0.7429188500000001  0.4737325383636089  1.0000
  Zn  Zn28      1.0  0.336318705  0.17149028000000002  0.4515875297030916  1.0000
  Zn  Zn29      1.0  0.6349695550000001  0.85709669  0.48419434543431855  1.0000
  Zn  Zn30      1.0  0.063540985  0.28566811000000003  0.462049339874102  1.0000
  Zn  Zn31      1.0  0.18052499500000002  0.6287410099999999  0.4632707281925986  1.0000
  Zn  Zn32      1.0  0.7519535650000001  0.20016958000000007  0.48541573375281516  1.0000
  Zn  Zn33      1.0  0.29463844499999997  0.9084181899999999  0.4729844605732184  1.0000
  Zn  Zn34      1.0  0.723209875  0.33698962  0.45083945501300193  1.0000
  Zn  Zn35      1.0  0.5208561050000001  0.5774195  0.4744806130536987  1.0000
  Zn  Zn36      1.0  0.949427535  0.005990930000000018  0.4523356074934822  1.0000
  Zn  Zn37      1.0  0.4742713850000001  0.93846708  0.46084426223832686  1.0000
  Zn  Zn38      1.0  0.045699955  0.5098956499999999  0.48298926779854345  1.0000
  Zn  Zn39      1.0  0.021437254999999995  0.6404184999999999  0.45147300769034676  1.0000
  Zn  Zn40      1.0  0.5928658250000001  0.21184707000000005  0.4736180132505633  1.0000
  Zn  Zn41      1.0  0.341223165  0.5473706200000001  0.4866208144888911  1.0000
  Zn  Zn42      1.0  0.769794595  0.9759420499999999  0.4644758058283736  1.0000
  Zn  Zn43      1.0  0.651200155  0.7025620499999999  0.4517020548161373  1.0000
  Zn  Zn44      1.0  0.222628725  0.27399061999999996  0.4738470603763539  1.0000
  Zn  Zn45      1.0  0.452143915  0.93196079  0.486996161711041  1.0000
  Zn  Zn46      1.0  0.880715335  0.36053222  0.46485115615082445  1.0000
  Zn  Zn47      1.0  0.088458275  0.92040005  0.47467306112806795  1.0000
  Zn  Zn48      1.0  0.517029705  0.34897148  0.45252805556785136  1.0000
  Zn  Zn49      1.0  0.36335063500000003  0.5538769  0.460468911915876  1.0000
  Zn  Zn50      1.0  0.9347792149999999  0.12530547000000006  0.4826139174760927  1.0000
  Zn  Zn51      1.0  0.727036275  0.5654376400000001  0.47279201249884917  1.0000
  Zn  Zn52      1.0  0.155607705  0.9940090699999999  0.4506470069386326  1.0000
