data_image0
_chemical_formula_structural       COMnVMnVMnVMnVMnVMnVMnVMnVMnVMnVMnVMnV
_chemical_formula_sum              "C1 O1 Mn12 V12"
_cell_length_a       5.75710454
_cell_length_b       5.75710454
_cell_length_c       98.7855227
_cell_angle_alpha    90.0
_cell_angle_beta     90.0
_cell_angle_gamma    90.0

_space_group_name_H-M_alt    "P 1"
_space_group_IT_number       1

loop_
  _space_group_symop_operation_xyz
  'x, y, z'

loop_
  _atom_site_type_symbol
  _atom_site_label
  _atom_site_symmetry_multiplicity
  _atom_site_fract_x
  _atom_site_fract_y
  _atom_site_fract_z
  _atom_site_occupancy
  C   C1        1.0  0.50000032  0.6244818249999999  0.5391131087484934  1.0000
  O   O1        1.0  0.50000074  0.624482145  0.5510531848082738  1.0000
  Mn  Mn1       1.0  4.800000000263442e-07  0.12448197499999998  0.4635165223275675  1.0000
  V   V1        1.0  0.25000048  0.374481975  0.44894681519172625  1.0000
  Mn  Mn2       1.0  1.2400000000263442e-06  0.12448247499999998  0.49217601918801973  1.0000
  V   V2        1.0  0.25000048  0.374481975  0.4780862294634088  1.0000
  Mn  Mn3       1.0  0.99999626  0.12447801499999997  0.519709513716127  1.0000
  V   V3        1.0  0.24886573000000003  0.3734436849999999  0.5074940177405335  1.0000
  Mn  Mn4       1.0  4.800000000263442e-07  0.624481975  0.4635165223275675  1.0000
  V   V4        1.0  0.25000048  0.874481975  0.44894681519172625  1.0000
  Mn  Mn5       1.0  1.1700000000263442e-06  0.624482225  0.4921110849172567  1.0000
  V   V5        1.0  0.25000048  0.874481975  0.4780862294634088  1.0000
  Mn  Mn6       1.0  0.9999995199999999  0.6244806049999999  0.5200238318360513  1.0000
  V   V6        1.0  0.24886584000000003  0.875521985  0.5074940235684163  1.0000
  Mn  Mn7       1.0  0.50000048  0.12448197499999998  0.4635165223275675  1.0000
  V   V7        1.0  0.7500004800000001  0.374481975  0.44894681519172625  1.0000
  Mn  Mn8       1.0  0.50000112  0.12448246499999997  0.49211264970380303  1.0000
  V   V8        1.0  0.7500004800000001  0.374481975  0.4780862294634088  1.0000
  Mn  Mn9       1.0  0.49999887000000004  0.12448114499999999  0.5200254432456606  1.0000
  V   V9        1.0  0.7511380599999999  0.37344392499999995  0.5074940206544749  1.0000
  Mn  Mn10      1.0  0.50000048  0.624481975  0.4635165223275675  1.0000
  V   V10       1.0  0.7500004800000001  0.874481975  0.44894681519172625  1.0000
  Mn  Mn11      1.0  0.50000111  0.624482245  0.4921691830814316  1.0000
  V   V11       1.0  0.7500004800000001  0.874481975  0.4780862294634088  1.0000
  Mn  Mn12      1.0  0.49999179000000005  0.624478665  0.5205381949488923  1.0000
  V   V12       1.0  0.7511379500000002  0.8755217949999999  0.5074940381381235  1.0000
