data_image0
_chemical_formula_structural       COAs12Ca6Mn12
_chemical_formula_sum              "C1 O1 As12 Ca6 Mn12"
_cell_length_a       9.677090172381055
_cell_length_b       7.920225818772576
_cell_length_c       100.46934032
_cell_angle_alpha    90.213154318925
_cell_angle_beta     94.68536010698863
_cell_angle_gamma    71.68505077757546

_space_group_name_H-M_alt    "P 1"
_space_group_IT_number       1

loop_
  _space_group_symop_operation_xyz
  'x, y, z'

loop_
  _atom_site_type_symbol
  _atom_site_label
  _atom_site_symmetry_multiplicity
  _atom_site_fract_x
  _atom_site_fract_y
  _atom_site_fract_z
  _atom_site_occupancy
  C   C1        1.0  0.8938091050000001  0.8987079  0.5407867081097235  1.0000
  O   O1        1.0  0.812723945  0.8765371599999999  0.5478234796909819  1.0000
  As  As1       1.0  0.9329051349999999  0.21052711999999987  0.4774490252182278  1.0000
  As  As2       1.0  0.5995718050000001  0.4605271199999998  0.45217652030901795  1.0000
  As  As3       1.0  0.266238475  0.83552712  0.4648127727636229  1.0000
  As  As4       1.0  0.8634154850000001  0.7052340099999999  0.46744703997129067  1.0000
  As  As5       1.0  0.530082155  0.08023400999999983  0.4800832893931952  1.0000
  As  As6       1.0  0.19674881500000002  0.33023400999999986  0.4548107875166858  1.0000
  As  As7       1.0  0.9537310850000001  0.33344163999999976  0.5142341246458634  1.0000
  As  As8       1.0  0.5995718050000001  0.5855271199999998  0.4900852746401323  1.0000
  As  As9       1.0  0.26693255499999996  0.9367242399999999  0.5026285232732115  1.0000
  As  As10      1.0  0.842370885  0.8345944999999998  0.5073382341265007  1.0000
  As  As11      1.0  0.536491475  0.16759760999999984  0.5186229879332955  1.0000
  As  As12      1.0  0.209983215  0.44382802999999993  0.49203122501365915  1.0000
  Ca  Ca1       1.0  0.064826975  0.83288056  0.48508428201666376  1.0000
  Ca  Ca2       1.0  0.731493645  0.08288055999999984  0.45981178014015434  1.0000
  Ca  Ca3       1.0  0.398160315  0.45788055999999994  0.47244803259475926  1.0000
  Ca  Ca4       1.0  0.06298192499999998  0.9488682300000001  0.5224863752316915  1.0000
  Ca  Ca5       1.0  0.734448965  0.20845542999999983  0.4982015692694274  1.0000
  Ca  Ca6       1.0  0.414623165  0.55887382  0.5115910686725915  1.0000
  Mn  Mn1       1.0  0.748426335  0.48962934999999985  0.4718061342721217  1.0000
  Mn  Mn2       1.0  0.415093005  0.86462935  0.4844423867267266  1.0000
  Mn  Mn3       1.0  0.081759665  0.11462934999999988  0.4591698818175167  1.0000
  Mn  Mn4       1.0  0.04789428499999998  0.4261317699999999  0.47308992788469645  1.0000
  Mn  Mn5       1.0  0.714560955  0.8011317699999997  0.48572618033930137  1.0000
  Mn  Mn6       1.0  0.381227625  0.051131769999999854  0.4604536784627919  1.0000
  Mn  Mn7       1.0  0.9010887350000001  0.5495610099999998  0.49372240126377787  1.0000
  Mn  Mn8       1.0  0.442423865  0.9317719099999999  0.5197889338431061  1.0000
  Mn  Mn9       1.0  0.10141465499999999  0.22763915999999984  0.49657505625609666  1.0000
  Mn  Mn10      1.0  0.04626891499999999  0.5558083399999998  0.5082709441507638  1.0000
  Mn  Mn11      1.0  0.577336625  0.8883121599999999  0.506070089247714  1.0000
  Mn  Mn12      1.0  0.378314245  0.1590433799999998  0.49918452204033076  1.0000
