data_image0
_chemical_formula_structural       CONa12Se14Si4
_chemical_formula_sum              "C1 O1 Na12 Se14 Si4"
_cell_length_a       7.306886023043705
_cell_length_b       7.306886022822163
_cell_length_c       116.88339834
_cell_angle_alpha    92.1585786970739
_cell_angle_beta     92.15857869700842
_cell_angle_gamma    98.1454261131667

_space_group_name_H-M_alt    "P 1"
_space_group_IT_number       1

loop_
  _space_group_symop_operation_xyz
  'x, y, z'

loop_
  _atom_site_type_symbol
  _atom_site_label
  _atom_site_symmetry_multiplicity
  _atom_site_fract_x
  _atom_site_fract_y
  _atom_site_fract_z
  _atom_site_occupancy
  C   C1        1.0  0.7419975999999998  0.45590758000000003  0.5639007454833082  1.0000
  O   O1        1.0  0.7313919399999997  0.51576208  0.5731058012563209  1.0000
  Na  Na1       1.0  0.9951925899999999  0.13553866  0.4647121652451719  1.0000
  Na  Na2       1.0  0.0048074099999999165  0.81867725  0.5316237838924586  1.0000
  Na  Na3       1.0  0.9934057099999999  0.97065886  0.4981382140229273  1.0000
  Na  Na4       1.0  0.1600723799999999  0.13732553  0.43128612047854203  1.0000
  Na  Na5       1.0  0.2500525399999999  0.5229968  0.4885898299710908  1.0000
  Na  Na6       1.0  0.6077344399999998  0.8806786999999999  0.44083450453037865  1.0000
  Na  Na7       1.0  0.7367588899999998  0.4183209299999999  0.5076865940636384  1.0000
  Na  Na8       1.0  0.3777439099999999  0.06334688  0.5507610202416287  1.0000
  Na  Na9       1.0  0.10139009999999993  0.6348637  0.45028683817021525  1.0000
  Na  Na10      1.0  0.49586753999999994  0.02934114  0.4791374963312541  1.0000
  Na  Na11      1.0  0.8663615199999999  0.38081889  0.5433437592185543  1.0000
  Na  Na12      1.0  0.4909438899999999  0.91197659  0.517138927703475  1.0000
  Se  Se1       1.0  0.5407071199999998  0.5900241299999999  0.4647121652451719  1.0000
  Se  Se2       1.0  0.42775606999999993  0.357483  0.5331882552172531  1.0000
  Se  Se3       1.0  0.8375423499999999  0.30598643000000003  0.4839340965099593  1.0000
  Se  Se4       1.0  0.8247448099999999  0.2931888899999999  0.4454902379915101  1.0000
  Se  Se5       1.0  0.14926906999999992  0.63533129  0.5123423315358954  1.0000
  Se  Se6       1.0  0.1713446499999999  0.68966332  0.5524616010891152  1.0000
  Se  Se7       1.0  0.6341658699999999  0.74084896  0.49374628827693895  1.0000
  Se  Se8       1.0  0.38988228999999985  0.49656538000000006  0.43567804221340495  1.0000
  Se  Se9       1.0  0.35264555999999986  0.20046877000000002  0.5025301357577903  1.0000
  Se  Se10      1.0  0.9302624699999997  0.77808568  0.42689419874367923  1.0000
  Se  Se11      1.0  0.0445195999999999  0.7743882799999999  0.47421803537749013  1.0000
  Se  Se12      1.0  0.3563429599999999  0.08621164  0.45520629912397925  1.0000
  Se  Se13      1.0  0.9422918199999999  0.16692944  0.5220583926683645  1.0000
  Se  Se14      1.0  0.6437943  0.85800398  0.5409203133832388  1.0000
  Si  Si1       1.0  0.7764890399999999  0.59444733  0.4793156464606519  1.0000
  Si  Si2       1.0  0.5362839099999998  0.35424219999999995  0.45010868804081755  1.0000
  Si  Si3       1.0  0.4494071999999999  0.60817896  0.5473146692064066  1.0000
  Si  Si4       1.0  0.21032237999999995  0.34687039000000003  0.5169607815852028  1.0000
