data_image0
_chemical_formula_structural       COCu6Ge2Cu6Ge2Cu6Ge2Cu6Ge2
_chemical_formula_sum              "C1 O1 Cu24 Ge8"
_cell_length_a       5.39323687
_cell_length_b       8.5835549
_cell_length_c       102.34724059
_cell_angle_alpha    90.0
_cell_angle_beta     90.0
_cell_angle_gamma    90.0

_space_group_name_H-M_alt    "P 1"
_space_group_IT_number       1

loop_
  _space_group_symop_operation_xyz
  'x, y, z'

loop_
  _atom_site_type_symbol
  _atom_site_label
  _atom_site_symmetry_multiplicity
  _atom_site_fract_x
  _atom_site_fract_y
  _atom_site_fract_z
  _atom_site_occupancy
  C   C1        1.0  0.62591811  0.15261902499999996  0.544849106450986  1.0000
  O   O1        1.0  0.6261571399999999  0.17456891499999996  0.556055959184404  1.0000
  Cu  Cu1       1.0  0.8694266200000001  0.12591115499999997  0.504834298233157  1.0000
  Cu  Cu2       1.0  0.38122002000000005  0.37169041499999994  0.48932736204658667  1.0000
  Cu  Cu3       1.0  0.12782566  0.375569075  0.5122376797852694  1.0000
  Cu  Cu4       1.0  0.6321700200000001  0.3774128749999999  0.512146043128701  1.0000
  Cu  Cu5       1.0  0.11683625000000002  0.12523141499999996  0.5255272895387144  1.0000
  Cu  Cu6       1.0  0.62989914  0.12616065499999995  0.5269634572480543  1.0000
  Ge  Ge1       1.0  0.8812200200000001  0.37169041499999994  0.4890945915382193  1.0000
  Ge  Ge2       1.0  0.38309756  0.12544082499999995  0.5053132367730756  1.0000
  Cu  Cu7       1.0  0.8812200200000001  0.12169041499999997  0.45937820560058384  1.0000
  Cu  Cu8       1.0  0.38122002000000005  0.37169041499999994  0.44417680816342486  1.0000
  Cu  Cu9       1.0  0.13222135000000002  0.37169041499999994  0.4669013178370026  1.0000
  Cu  Cu10      1.0  0.6302186900000001  0.37169041499999994  0.4669013178370026  1.0000
  Cu  Cu11      1.0  0.13021869000000003  0.12169041499999997  0.4818042498101679  1.0000
  Cu  Cu12      1.0  0.6322213499999999  0.12169041499999997  0.4818042498101679  1.0000
  Ge  Ge3       1.0  0.8812200200000001  0.37169041499999994  0.4439440408155962  1.0000
  Ge  Ge4       1.0  0.38122002000000005  0.12169041499999997  0.4596109761089512  1.0000
  Cu  Cu13      1.0  0.88316375  0.6262564449999999  0.504315606438554  1.0000
  Cu  Cu14      1.0  0.38122002000000005  0.871690415  0.48932736204658667  1.0000
  Cu  Cu15      1.0  0.12683759  0.876242615  0.5123356248769109  1.0000
  Cu  Cu16      1.0  0.6303822400000001  0.878309585  0.512378940058613  1.0000
  Cu  Cu17      1.0  0.12868465000000004  0.6256359549999999  0.5254990501262001  1.0000
  Cu  Cu18      1.0  0.64728167  0.6280852149999999  0.5255285095066193  1.0000
  Ge  Ge5       1.0  0.8812200200000001  0.871690415  0.4890945915382193  1.0000
  Ge  Ge6       1.0  0.38351501000000005  0.625376525  0.5049206567902403  1.0000
  Cu  Cu19      1.0  0.8812200200000001  0.621690415  0.45937820560058384  1.0000
  Cu  Cu20      1.0  0.38122002000000005  0.871690415  0.44417680816342486  1.0000
  Cu  Cu21      1.0  0.13222135000000002  0.871690415  0.4669013178370026  1.0000
  Cu  Cu22      1.0  0.6302186900000001  0.871690415  0.4669013178370026  1.0000
  Cu  Cu23      1.0  0.13021869000000003  0.621690415  0.4818042498101679  1.0000
  Cu  Cu24      1.0  0.6322213499999999  0.621690415  0.4818042498101679  1.0000
  Ge  Ge7       1.0  0.8812200200000001  0.871690415  0.4439440408155962  1.0000
  Ge  Ge8       1.0  0.38122002000000005  0.621690415  0.4596109761089512  1.0000
