data_image0
_chemical_formula_structural       CONb4Ge4As4Nb4Ge4As4Nb4Ge4As4Nb4Ge4As4
_chemical_formula_sum              "C1 O1 Nb16 Ge16 As16"
_cell_length_a       7.25655182
_cell_length_b       16.537659280522053
_cell_length_c       99.02620728
_cell_angle_alpha    102.6734872652677
_cell_angle_beta     90.0
_cell_angle_gamma    90.0

_space_group_name_H-M_alt    "P 1"
_space_group_IT_number       1

loop_
  _space_group_symop_operation_xyz
  'x, y, z'

loop_
  _atom_site_type_symbol
  _atom_site_label
  _atom_site_symmetry_multiplicity
  _atom_site_fract_x
  _atom_site_fract_y
  _atom_site_fract_z
  _atom_site_occupancy
  C   C1        1.0  0.6239177550000001  0.64830404  0.5373470812031443  1.0000
  O   O1        1.0  0.6239177250000001  0.66056244  0.5494768688279064  1.0000
  Nb  Nb1       1.0  0.37391779500000005  0.37267443  0.4528873495856803  1.0000
  Nb  Nb2       1.0  0.37391779500000005  0.87267443  0.4712071257826062  1.0000
  Nb  Nb3       1.0  0.12391779500000005  0.13315856999999998  0.4624313726137687  1.0000
  Nb  Nb4       1.0  0.12391779500000005  0.63315857  0.48075114881069464  1.0000
  Ge  Ge1       1.0  0.12391779500000005  0.002916500000000009  0.4759791372966505  1.0000
  Ge  Ge2       1.0  0.12391779500000005  0.5029165  0.45765936109972455  1.0000
  Ge  Ge3       1.0  0.37391779500000005  0.002916500000000009  0.45765936109972455  1.0000
  Ge  Ge4       1.0  0.37391779500000005  0.5029165  0.4759791372966505  1.0000
  As  As1       1.0  0.37391779500000005  0.19768501  0.48311536722428133  1.0000
  As  As2       1.0  0.37391779500000005  0.6976850099999999  0.4647955910273554  1.0000
  As  As3       1.0  0.12391779500000005  0.30814799  0.4688429073690195  1.0000
  As  As4       1.0  0.12391779500000005  0.80814799  0.4505231311720936  1.0000
  Nb  Nb5       1.0  0.3735628350000001  0.36803858000000006  0.48942601130806046  1.0000
  Nb  Nb6       1.0  0.3740993650000001  0.87009204  0.506089383689201  1.0000
  Nb  Nb7       1.0  0.12391779500000005  0.13526412000000002  0.49867075660986754  1.0000
  Nb  Nb8       1.0  0.12391778500000007  0.6284208400000001  0.5147482215119317  1.0000
  Ge  Ge5       1.0  0.12391779500000005  0.99632059  0.5147516978726628  1.0000
  Ge  Ge6       1.0  0.12391780500000005  0.49726843000000004  0.49500730553072336  1.0000
  Ge  Ge7       1.0  0.3735230550000001  0.00496769000000001  0.4959290892521762  1.0000
  Ge  Ge8       1.0  0.37175336500000006  0.50314594  0.5145921927108535  1.0000
  As  As5       1.0  0.3733770350000001  0.21397725  0.5177157497263998  1.0000
  As  As6       1.0  0.37348959500000006  0.69942153  0.5021921781281123  1.0000
  As  As7       1.0  0.12391780500000005  0.31287141  0.5083900368761306  1.0000
  As  As8       1.0  0.12391779500000005  0.80814799  0.4871626835659455  1.0000
  Nb  Nb9       1.0  0.8739177950000001  0.37267443  0.4528873495856803  1.0000
  Nb  Nb10      1.0  0.8739177950000001  0.87267443  0.4712071257826062  1.0000
  Nb  Nb11      1.0  0.623917795  0.13315856999999998  0.4624313726137687  1.0000
  Nb  Nb12      1.0  0.623917795  0.63315857  0.48075114881069464  1.0000
  Ge  Ge9       1.0  0.623917795  0.002916500000000009  0.4759791372966505  1.0000
  Ge  Ge10      1.0  0.623917795  0.5029165  0.45765936109972455  1.0000
  Ge  Ge11      1.0  0.8739177950000001  0.002916500000000009  0.45765936109972455  1.0000
  Ge  Ge12      1.0  0.8739177950000001  0.5029165  0.4759791372966505  1.0000
  As  As9       1.0  0.8739177950000001  0.19768501  0.48311536722428133  1.0000
  As  As10      1.0  0.8739177950000001  0.6976850099999999  0.4647955910273554  1.0000
  As  As11      1.0  0.623917795  0.30814799  0.4688429073690195  1.0000
  As  As12      1.0  0.623917795  0.80814799  0.4505231311720936  1.0000
  Nb  Nb13      1.0  0.8742727450000001  0.36803858000000006  0.48942601717038886  1.0000
  Nb  Nb14      1.0  0.8737362250000001  0.87009204  0.506089383689201  1.0000
  Nb  Nb15      1.0  0.623917795  0.13477855000000002  0.49866936137571244  1.0000
  Nb  Nb16      1.0  0.6239178050000002  0.62869954  0.5152484451993619  1.0000
  Ge  Ge13      1.0  0.623917795  0.9970834999999999  0.5147221575999408  1.0000
  Ge  Ge14      1.0  0.6239177750000001  0.49618365999999997  0.4950852598423965  1.0000
  Ge  Ge15      1.0  0.874312535  0.004967680000000008  0.49592908925217627  1.0000
  Ge  Ge16      1.0  0.8760822149999999  0.50314594  0.5145921897796893  1.0000
  As  As13      1.0  0.874458555  0.21397725  0.5177157497263998  1.0000
  As  As14      1.0  0.8743459950000001  0.69942153  0.5021921751969481  1.0000
  As  As15      1.0  0.6239177850000001  0.31073259  0.5078624126658382  1.0000
  As  As16      1.0  0.623917795  0.80814799  0.4871626835659455  1.0000
