data_image0
_chemical_formula_structural       COCa2Cu4Ge4Ca2Cu4Ge4Ca2Cu4Ge4Ca2Cu4Ge4
_chemical_formula_sum              "C1 O1 Ca8 Cu16 Ge16"
_cell_length_a       8.41418898
_cell_length_b       10.42802638
_cell_length_c       99.44966145000001
_cell_angle_alpha    90.0
_cell_angle_beta     90.0
_cell_angle_gamma    90.0

_space_group_name_H-M_alt    "P 1"
_space_group_IT_number       1

loop_
  _space_group_symop_operation_xyz
  'x, y, z'

loop_
  _atom_site_type_symbol
  _atom_site_label
  _atom_site_symmetry_multiplicity
  _atom_site_fract_x
  _atom_site_fract_y
  _atom_site_fract_z
  _atom_site_occupancy
  C   C1        1.0  0.12338964999999999  0.5608177699999999  0.5348833271338691  1.0000
  O   O1        1.0  0.12339229999999997  0.5608247099999999  0.5468617963523752  1.0000
  Ca  Ca1       1.0  0.12339205999999997  0.060823359999999986  0.4742900826353198  1.0000
  Ca  Ca2       1.0  0.37339206  0.56082336  0.45313820364762486  1.0000
  Cu  Cu1       1.0  0.12339205999999997  0.31082336  0.45313820364762486  1.0000
  Cu  Cu2       1.0  0.37339206  0.31082336  0.4742900826353198  1.0000
  Cu  Cu3       1.0  0.37339206  0.8108233599999999  0.4742900826353198  1.0000
  Cu  Cu4       1.0  0.12339205999999997  0.8108233599999999  0.45313820364762486  1.0000
  Ge  Ge1       1.0  0.12339205999999997  0.43917664  0.4742900826353198  1.0000
  Ge  Ge2       1.0  0.37339206  0.18247007999999998  0.45313820364762486  1.0000
  Ge  Ge3       1.0  0.37339206  0.9391766399999999  0.45313820364762486  1.0000
  Ge  Ge4       1.0  0.12339205999999997  0.68247008  0.4742900826353198  1.0000
  Ca  Ca3       1.0  0.12339357999999999  0.06083044999999999  0.5148613299337097  1.0000
  Ca  Ca4       1.0  0.37017145999999995  0.5608198799999999  0.49605825081923993  1.0000
  Cu  Cu5       1.0  0.12338866999999998  0.30739525  0.49537934275313195  1.0000
  Cu  Cu6       1.0  0.37832534999999995  0.32363258  0.5148323243614739  1.0000
  Cu  Cu7       1.0  0.37832247  0.79800162  0.5148314270987492  1.0000
  Cu  Cu8       1.0  0.12338863999999998  0.8142493399999999  0.4953802548221721  1.0000
  Ge  Ge5       1.0  0.12339524999999997  0.42343323999999993  0.5189971721442435  1.0000
  Ge  Ge6       1.0  0.37485081000000003  0.18281588999999998  0.4955328812845113  1.0000
  Ge  Ge7       1.0  0.37485017  0.9388328499999998  0.49553112525548265  1.0000
  Ge  Ge8       1.0  0.12339460999999997  0.69821286  0.5189969115530891  1.0000
  Ca  Ca5       1.0  0.6233920599999999  0.060823359999999986  0.4742900826353198  1.0000
  Ca  Ca6       1.0  0.87339206  0.56082336  0.45313820364762486  1.0000
  Cu  Cu9       1.0  0.6233920599999999  0.31082336  0.45313820364762486  1.0000
  Cu  Cu10      1.0  0.87339206  0.31082336  0.4742900826353198  1.0000
  Cu  Cu11      1.0  0.87339206  0.8108233599999999  0.4742900826353198  1.0000
  Cu  Cu12      1.0  0.6233920599999999  0.8108233599999999  0.45313820364762486  1.0000
  Ge  Ge9       1.0  0.6233920599999999  0.43917664  0.4742900826353198  1.0000
  Ge  Ge10      1.0  0.87339206  0.18247007999999998  0.45313820364762486  1.0000
  Ge  Ge11      1.0  0.87339206  0.9391766399999999  0.45313820364762486  1.0000
  Ge  Ge12      1.0  0.6233920599999999  0.68247008  0.4742900826353198  1.0000
  Ca  Ca7       1.0  0.62339017  0.06082398999999999  0.5149323232556887  1.0000
  Ca  Ca8       1.0  0.87661136  0.56082006  0.496057874738824  1.0000
  Cu  Cu13      1.0  0.6233929799999999  0.31609242  0.496273599795671  1.0000
  Cu  Cu14      1.0  0.8684616599999999  0.32363506999999997  0.5148312316553835  1.0000
  Cu  Cu15      1.0  0.86846437  0.79799955  0.5148303758503425  1.0000
  Cu  Cu16      1.0  0.6233930699999999  0.8055562499999999  0.4962739462634557  1.0000
  Ge  Ge13      1.0  0.6233914399999999  0.4400744  0.5188646704260508  1.0000
  Ge  Ge14      1.0  0.87193377  0.18284098999999998  0.4955333047451371  1.0000
  Ge  Ge15      1.0  0.8719345299999999  0.93880781  0.4955315605611609  1.0000
  Ge  Ge16      1.0  0.6233912  0.6815802499999999  0.5188640544833224  1.0000
