data_image0
_chemical_formula_structural       COMn4Pt4Sn4Mn4Pt4Sn4Mn4Pt4Sn4Mn4Pt4Sn4
_chemical_formula_sum              "C1 O1 Mn16 Pt16 Sn16"
_cell_length_a       8.64855308
_cell_length_b       8.64855308
_cell_length_c       106.69270317
_cell_angle_alpha    90.0
_cell_angle_beta     90.0
_cell_angle_gamma    90.0

_space_group_name_H-M_alt    "P 1"
_space_group_IT_number       1

loop_
  _space_group_symop_operation_xyz
  'x, y, z'

loop_
  _atom_site_type_symbol
  _atom_site_label
  _atom_site_symmetry_multiplicity
  _atom_site_fract_x
  _atom_site_fract_y
  _atom_site_fract_z
  _atom_site_occupancy
  C   C1        1.0  0.37496623  0.124826115  0.5527087936277431  1.0000
  O   O1        1.0  0.37496578  0.12482028499999999  0.563805126723375  1.0000
  Mn  Mn1       1.0  0.37496486  0.124820975  0.47918364158013227  1.0000
  Mn  Mn2       1.0  0.12496486000000004  0.374820975  0.4505244638574947  1.0000
  Mn  Mn3       1.0  0.37496454  0.12480950499999999  0.5359242898832348  1.0000
  Mn  Mn4       1.0  0.12496486000000004  0.374820975  0.50784281930277  1.0000
  Pt  Pt1       1.0  0.12496486000000004  0.124820975  0.4361948732766251  1.0000
  Pt  Pt2       1.0  0.37496486  0.374820975  0.46485405099926275  1.0000
  Pt  Pt3       1.0  0.12496486000000004  0.124820975  0.4935132321610019  1.0000
  Pt  Pt4       1.0  0.37492099  0.37613240500000006  0.5218453031869659  1.0000
  Sn  Sn1       1.0  0.12496486000000004  0.374820975  0.47918364158013227  1.0000
  Sn  Sn2       1.0  0.37496486  0.124820975  0.4505244638574947  1.0000
  Sn  Sn3       1.0  0.13059756000000003  0.37428746500000004  0.5380397018285226  1.0000
  Sn  Sn4       1.0  0.37496486  0.124820975  0.50784281930277  1.0000
  Mn  Mn5       1.0  0.37496486  0.624820975  0.47918364158013227  1.0000
  Mn  Mn6       1.0  0.12496486000000004  0.874820975  0.4505244638574947  1.0000
  Mn  Mn7       1.0  0.37496942  0.624830615  0.534454875317896  1.0000
  Mn  Mn8       1.0  0.12496486000000004  0.874820975  0.50784281930277  1.0000
  Pt  Pt5       1.0  0.12496486000000004  0.624820975  0.4361948732766251  1.0000
  Pt  Pt6       1.0  0.37496486  0.874820975  0.46485405099926275  1.0000
  Pt  Pt7       1.0  0.12496486000000004  0.624820975  0.4935132321610019  1.0000
  Pt  Pt8       1.0  0.37498291  0.873524525  0.5218485944070672  1.0000
  Sn  Sn5       1.0  0.12496486000000004  0.874820975  0.47918364158013227  1.0000
  Sn  Sn6       1.0  0.37496486  0.624820975  0.4505244638574947  1.0000
  Sn  Sn7       1.0  0.13054330000000003  0.875150095  0.538026230868087  1.0000
  Sn  Sn8       1.0  0.37496486  0.624820975  0.50784281930277  1.0000
  Mn  Mn9       1.0  0.8749648600000001  0.124820975  0.47918364158013227  1.0000
  Mn  Mn10      1.0  0.6249648600000001  0.374820975  0.4505244638574947  1.0000
  Mn  Mn11      1.0  0.8749440900000001  0.12482177500000001  0.5338404454502876  1.0000
  Mn  Mn12      1.0  0.6249648600000001  0.374820975  0.50784281930277  1.0000
  Pt  Pt9       1.0  0.6249648600000001  0.124820975  0.4361948732766251  1.0000
  Pt  Pt10      1.0  0.8749648600000001  0.374820975  0.46485405099926275  1.0000
  Pt  Pt11      1.0  0.6249648600000001  0.124820975  0.4935132321610019  1.0000
  Pt  Pt12      1.0  0.8750351399999999  0.374467375  0.5224740431557672  1.0000
  Sn  Sn9       1.0  0.6249648600000001  0.374820975  0.47918364158013227  1.0000
  Sn  Sn10      1.0  0.8749648600000001  0.124820975  0.4505244638574947  1.0000
  Sn  Sn11      1.0  0.6194614  0.374544025  0.5380223653180412  1.0000
  Sn  Sn12      1.0  0.8749648600000001  0.124820975  0.50784281930277  1.0000
  Mn  Mn13      1.0  0.8749648600000001  0.624820975  0.47918364158013227  1.0000
  Mn  Mn14      1.0  0.6249648600000001  0.874820975  0.4505244638574947  1.0000
  Mn  Mn15      1.0  0.8749226400000001  0.6248398149999999  0.533838921928339  1.0000
  Mn  Mn16      1.0  0.6249648600000001  0.874820975  0.50784281930277  1.0000
  Pt  Pt13      1.0  0.6249648600000001  0.624820975  0.4361948732766251  1.0000
  Pt  Pt14      1.0  0.8749648600000001  0.874820975  0.46485405099926275  1.0000
  Pt  Pt15      1.0  0.6249648600000001  0.624820975  0.4935132321610019  1.0000
  Pt  Pt16      1.0  0.87496448  0.875190495  0.5224773515713758  1.0000
  Sn  Sn13      1.0  0.6249648600000001  0.874820975  0.47918364158013227  1.0000
  Sn  Sn14      1.0  0.8749648600000001  0.624820975  0.4505244638574947  1.0000
  Sn  Sn15      1.0  0.61934833  0.875117645  0.5380256634163454  1.0000
  Sn  Sn16      1.0  0.8749648600000001  0.624820975  0.50784281930277  1.0000
