data_image0
_chemical_formula_structural       COAu20In10Ti10
_chemical_formula_sum              "C1 O1 Au20 In10 Ti10"
_cell_length_a       4.74713986
_cell_length_b       14.241419584233848
_cell_length_c       103.90135955
_cell_angle_alpha    98.04946697061634
_cell_angle_beta     90.0
_cell_angle_gamma    90.0

_space_group_name_H-M_alt    "P 1"
_space_group_IT_number       1

loop_
  _space_group_symop_operation_xyz
  'x, y, z'

loop_
  _atom_site_type_symbol
  _atom_site_label
  _atom_site_symmetry_multiplicity
  _atom_site_fract_x
  _atom_site_fract_y
  _atom_site_fract_z
  _atom_site_occupancy
  C   C1        1.0  0.7499955299999999  0.91295848  0.5522764261724169  1.0000
  O   O1        1.0  0.74999862  0.8986491600000001  0.563054424634295  1.0000
  Au  Au1       1.0  0.24999724999999998  0.19766281  0.4532597793842221  1.0000
  Au  Au2       1.0  0.24999867999999997  0.051337279999999964  0.5381607732300472  1.0000
  Au  Au3       1.0  0.24999724999999998  0.6643294700000001  0.4750120492336843  1.0000
  Au  Au4       1.0  0.24999761999999998  0.5989765199999999  0.519052546425866  1.0000
  Au  Au5       1.0  0.24999724999999998  0.13099613999999998  0.4967643223459874  1.0000
  Au  Au6       1.0  0.24999724999999998  0.96432947  0.44238364119665  1.0000
  Au  Au7       1.0  0.24999858999999997  0.8366480500000001  0.5293693227630958  1.0000
  Au  Au8       1.0  0.24999724999999998  0.43099613999999997  0.4641359143089532  1.0000
  Au  Au9       1.0  0.24999724999999998  0.36432946999999993  0.5076404572707185  1.0000
  Au  Au10      1.0  0.24999724999999998  0.89766281  0.4858881874212563  1.0000
  Au  Au11      1.0  0.7499972499999998  0.9309961400000001  0.4641359143089531  1.0000
  Au  Au12      1.0  0.7499972499999998  0.46432946999999997  0.4423836411966501  1.0000
  Au  Au13      1.0  0.7499972499999998  0.3976628099999999  0.48588818742125617  1.0000
  Au  Au14      1.0  0.7499960499999999  0.32505833999999995  0.5295859525525761  1.0000
  Au  Au15      1.0  0.7499972499999998  0.86432947  0.5076404572707185  1.0000
  Au  Au16      1.0  0.7499972499999998  0.16432946999999995  0.4750120492336843  1.0000
  Au  Au17      1.0  0.7499972499999998  0.6976628100000001  0.453259779384222  1.0000
  Au  Au18      1.0  0.7499972499999998  0.6309961399999999  0.4967643223459874  1.0000
  Au  Au19      1.0  0.74999421  0.5453875  0.5373757272069944  1.0000
  Au  Au20      1.0  0.7499986999999999  0.12624289999999996  0.5276757419810928  1.0000
  In  In1       1.0  0.24999724999999998  0.04766280999999997  0.46957398340273915  1.0000
  In  In2       1.0  0.24999724999999998  0.58099614  0.44782171029043605  1.0000
  In  In3       1.0  0.24999724999999998  0.51432947  0.4913262532522015  1.0000
  In  In4       1.0  0.24999482999999997  0.43275478999999994  0.535699788605217  1.0000
  In  In5       1.0  0.24999697999999998  0.98567053  0.5120982874160519  1.0000
  In  In6       1.0  0.7499972499999998  0.24766280999999996  0.5022023914397733  1.0000
  In  In7       1.0  0.7499972499999998  0.7809961400000001  0.4804501183274703  1.0000
  In  In8       1.0  0.7500008699999999  0.72019074  0.5265802855981797  1.0000
  In  In9       1.0  0.7499972499999998  0.31432947  0.45869784521516715  1.0000
  In  In10      1.0  0.7499972499999998  0.84766281  0.43694557536570494  1.0000
  Ti  Ti1       1.0  0.7499972499999998  0.014329469999999967  0.4913262532522014  1.0000
  Ti  Ti2       1.0  0.7499972499999998  0.5476628099999999  0.46957398340273915  1.0000
  Ti  Ti3       1.0  0.7499963599999999  0.48443242999999997  0.5124622116279337  1.0000
  Ti  Ti4       1.0  0.7499972499999998  0.08099613999999997  0.44782171029043605  1.0000
  Ti  Ti5       1.0  0.7500051700000001  0.9449497600000001  0.5330454708742451  1.0000
  Ti  Ti6       1.0  0.24999963999999997  0.21549625999999997  0.5233538091552336  1.0000
  Ti  Ti7       1.0  0.24999724999999998  0.74766281  0.5022023914397734  1.0000
  Ti  Ti8       1.0  0.24999724999999998  0.34766280999999993  0.4369455753657049  1.0000
  Ti  Ti9       1.0  0.24999724999999998  0.28099614  0.48045011832747025  1.0000
  Ti  Ti10      1.0  0.24999724999999998  0.8143294699999999  0.45869784521516715  1.0000
