data_image0
_chemical_formula_structural       COCa4Mn8As8Ca4Mn8As8
_chemical_formula_sum              "C1 O1 Ca8 Mn16 As16"
_cell_length_a       6.80985652
_cell_length_b       14.301949587665298
_cell_length_c       101.45337996
_cell_angle_alpha    97.90045008224297
_cell_angle_beta     90.0
_cell_angle_gamma    76.22708148928359

_space_group_name_H-M_alt    "P 1"
_space_group_IT_number       1

loop_
  _space_group_symop_operation_xyz
  'x, y, z'

loop_
  _atom_site_type_symbol
  _atom_site_label
  _atom_site_symmetry_multiplicity
  _atom_site_fract_x
  _atom_site_fract_y
  _atom_site_fract_z
  _atom_site_occupancy
  C   C1        1.0  0.12704582000000011  0.44489455999999994  0.538700420471288  1.0000
  O   O1        1.0  0.18510581000000012  0.4975343199999999  0.5477220995148397  1.0000
  Ca  Ca1       1.0  0.7563497600000001  0.56794428  0.4690300543077133  1.0000
  Ca  Ca2       1.0  0.006349760000000057  0.06794427999999997  0.459341681932761  1.0000
  Ca  Ca3       1.0  0.5063497600000001  0.06794427999999997  0.47871842668266557  1.0000
  Ca  Ca4       1.0  0.2563497600000001  0.56794428  0.4884067990576178  1.0000
  Mn  Mn1       1.0  0.7690492800000002  0.8758785799999999  0.45562007272604454  1.0000
  Mn  Mn2       1.0  0.01904928000000002  0.37587857999999996  0.4846851898509013  1.0000
  Mn  Mn3       1.0  0.5190492800000001  0.37587857999999996  0.4653084451009968  1.0000
  Mn  Mn4       1.0  0.26904928000000017  0.8758785799999999  0.474996817475949  1.0000
  Mn  Mn5       1.0  0.49365023999999996  0.76000998  0.4533749187645251  1.0000
  Mn  Mn6       1.0  0.7436502400000001  0.26000998  0.48244003588938195  1.0000
  Mn  Mn7       1.0  0.24365024000000005  0.26000998  0.4630632911394774  1.0000
  Mn  Mn8       1.0  0.99365024  0.76000998  0.47275166351442965  1.0000
  As  As1       1.0  0.40740838  0.9324937  0.45671709100540936  1.0000
  As  As2       1.0  0.65740838  0.4324936999999999  0.4857822081302662  1.0000
  As  As3       1.0  0.15740838000000015  0.4324936999999999  0.46640546338036165  1.0000
  As  As4       1.0  0.9074083800000001  0.9324937  0.47609383575531394  1.0000
  As  As5       1.0  0.8552911400000003  0.7033948599999998  0.45227790048516037  1.0000
  As  As6       1.0  0.10529114000000003  0.20339485999999996  0.48134301761001713  1.0000
  As  As7       1.0  0.6052911400000001  0.20339485999999996  0.4619662728601126  1.0000
  As  As8       1.0  0.3552911400000002  0.7033948599999998  0.4716546452350649  1.0000
  Ca  Ca5       1.0  0.7696126700000003  0.5662755899999999  0.5080041038675219  1.0000
  Ca  Ca6       1.0  0.018742030000000055  0.06750629999999998  0.498963389109928  1.0000
  Ca  Ca7       1.0  0.51650449  0.06802111999999998  0.5169427667360067  1.0000
  Ca  Ca8       1.0  0.30663074000000007  0.5510418399999999  0.5279342391466463  1.0000
  Mn  Mn9       1.0  0.7690492800000002  0.8758785799999999  0.49437356222585366  1.0000
  Mn  Mn10      1.0  0.06021693000000007  0.38379926  0.5237777041776922  1.0000
  Mn  Mn11      1.0  0.5404331900000001  0.37451024  0.5045164138237056  1.0000
  Mn  Mn12      1.0  0.14943645000000005  0.82292545  0.4970353255003335  1.0000
  Mn  Mn13      1.0  0.49365023999999996  0.76000998  0.4921284082643342  1.0000
  Mn  Mn14      1.0  0.8889655700000001  0.31817130999999993  0.5043132773325849  1.0000
  Mn  Mn15      1.0  0.28166632999999996  0.26674520999999995  0.5000940857218077  1.0000
  Mn  Mn16      1.0  0.038131350000000064  0.7578994199999999  0.5092122423525388  1.0000
  As  As9       1.0  0.40740838  0.9324937  0.4954705805052184  1.0000
  As  As10      1.0  0.71266581  0.41747979999999996  0.5243069776353265  1.0000
  As  As11      1.0  0.1721855000000001  0.4346028799999999  0.504662285058462  1.0000
  As  As12      1.0  0.9080934999999999  0.92583834  0.5148524004121078  1.0000
  As  As13      1.0  0.8552911400000003  0.7033948599999998  0.4910313899849694  1.0000
  As  As14      1.0  0.13840837000000006  0.21640245999999996  0.5186753515440058  1.0000
  As  As15      1.0  0.6366366400000001  0.20248085999999996  0.5014703337439956  1.0000
  As  As16      1.0  0.38581362999999996  0.7039607499999999  0.5121623253883391  1.0000
