data_image0
_chemical_formula_structural       COGa4Mn8W4Ga4Mn8W4Ga4Mn8W4Ga4Mn8W4
_chemical_formula_sum              "C1 O1 Ga16 Mn32 W16"
_cell_length_a       8.37566948
_cell_length_b       8.37566948
_cell_length_c       105.53495608
_cell_angle_alpha    90.0
_cell_angle_beta     90.0
_cell_angle_gamma    90.0

_space_group_name_H-M_alt    "P 1"
_space_group_IT_number       1

loop_
  _space_group_symop_operation_xyz
  'x, y, z'

loop_
  _atom_site_type_symbol
  _atom_site_label
  _atom_site_symmetry_multiplicity
  _atom_site_fract_x
  _atom_site_fract_y
  _atom_site_fract_z
  _atom_site_occupancy
  C   C1        1.0  0.3775428199999999  0.37743966999999995  0.5482719085121441  1.0000
  O   O1        1.0  0.3776169  0.37765965999999995  0.560056046966821  1.0000
  Ga  Ga1       1.0  0.37759637999999995  0.37756607  0.4960627279214803  1.0000
  Ga  Ga2       1.0  0.12837900999999993  0.12840628  0.5241288900244065  1.0000
  Ga  Ga3       1.0  0.37759637999999995  0.37756607  0.4399439530331789  1.0000
  Ga  Ga4       1.0  0.12759637999999995  0.12756607  0.4680033404773296  1.0000
  Mn  Mn1       1.0  0.3775829899999999  0.12235527  0.509971718571759  1.0000
  Mn  Mn2       1.0  0.37755701999999997  0.1652834  0.5376615099944625  1.0000
  Mn  Mn3       1.0  0.16533120999999995  0.37753089  0.537661206953066  1.0000
  Mn  Mn4       1.0  0.12237713999999995  0.37754318000000003  0.5099728633948126  1.0000
  Mn  Mn5       1.0  0.37759637999999995  0.12756607  0.4539736450716909  1.0000
  Mn  Mn6       1.0  0.37759637999999995  0.12756607  0.4820330358829683  1.0000
  Mn  Mn7       1.0  0.12759637999999995  0.37756607  0.4820330358829683  1.0000
  Mn  Mn8       1.0  0.12759637999999995  0.37756607  0.4539736450716909  1.0000
  W   W1        1.0  0.12759637999999995  0.12756607  0.4960627279214803  1.0000
  W   W2        1.0  0.37757781999999995  0.37753774  0.5220784647957897  1.0000
  W   W3        1.0  0.12759637999999995  0.12756607  0.4399439530331789  1.0000
  W   W4        1.0  0.37759637999999995  0.37756607  0.4680033404773296  1.0000
  Ga  Ga5       1.0  0.37759637999999995  0.87756607  0.4960627279214803  1.0000
  Ga  Ga6       1.0  0.12836947999999992  0.6267040700000001  0.5241235059889284  1.0000
  Ga  Ga7       1.0  0.37759637999999995  0.87756607  0.4399439530331789  1.0000
  Ga  Ga8       1.0  0.12759637999999995  0.62756607  0.4680033404773296  1.0000
  Mn  Mn9       1.0  0.37757067999999994  0.63274851  0.5099728431920528  1.0000
  Mn  Mn10      1.0  0.37754952999999997  0.5897526399999999  0.5376580889938084  1.0000
  Mn  Mn11      1.0  0.12464665999999995  0.8774905  0.536924826460906  1.0000
  Mn  Mn12      1.0  0.13021822999999996  0.8775690199999999  0.5102472673793601  1.0000
  Mn  Mn13      1.0  0.37759637999999995  0.62756607  0.4539736450716909  1.0000
  Mn  Mn14      1.0  0.37759637999999995  0.62756607  0.4820330358829683  1.0000
  Mn  Mn15      1.0  0.12759637999999995  0.87756607  0.4820330358829683  1.0000
  Mn  Mn16      1.0  0.12759637999999995  0.87756607  0.4539736450716909  1.0000
  W   W5        1.0  0.12759637999999995  0.62756607  0.4960627279214803  1.0000
  W   W6        1.0  0.37764555999999994  0.87759778  0.5253363450003279  1.0000
  W   W7        1.0  0.12759637999999995  0.62756607  0.4399439530331789  1.0000
  W   W8        1.0  0.37759637999999995  0.87756607  0.4680033404773296  1.0000
  Ga  Ga9       1.0  0.87759638  0.37756607  0.4960627279214803  1.0000
  Ga  Ga10      1.0  0.6268261599999999  0.12835006999999998  0.5241282671059803  1.0000
  Ga  Ga11      1.0  0.87759638  0.37756607  0.4399439530331789  1.0000
  Ga  Ga12      1.0  0.62759638  0.12756607  0.4680033404773296  1.0000
  Mn  Mn17      1.0  0.87760087  0.13018159  0.5102470081106097  1.0000
  Mn  Mn18      1.0  0.8775723  0.12458341  0.5369345574568608  1.0000
  Mn  Mn19      1.0  0.5898011799999999  0.37751404  0.5376622709650805  1.0000
  Mn  Mn20      1.0  0.63278408  0.3775286  0.5099716007223271  1.0000
  Mn  Mn21      1.0  0.87759638  0.12756607  0.4539736450716909  1.0000
  Mn  Mn22      1.0  0.87759638  0.12756607  0.4820330358829683  1.0000
  Mn  Mn23      1.0  0.62759638  0.37756607  0.4820330358829683  1.0000
  Mn  Mn24      1.0  0.62759638  0.37756607  0.4539736450716909  1.0000
  W   W9        1.0  0.62759638  0.12756607  0.4960627279214803  1.0000
  W   W10       1.0  0.8775937499999998  0.37748813  0.5253428098834535  1.0000
  W   W11       1.0  0.62759638  0.12756607  0.4399439530331789  1.0000
  W   W12       1.0  0.87759638  0.37756607  0.4680033404773296  1.0000
  Ga  Ga13      1.0  0.87759638  0.87756607  0.4960627279214803  1.0000
  Ga  Ga14      1.0  0.6268129499999999  0.62668612  0.5241199671388423  1.0000
  Ga  Ga15      1.0  0.87759638  0.87756607  0.4399439530331789  1.0000
  Ga  Ga16      1.0  0.62759638  0.62756607  0.4680033404773296  1.0000
  Mn  Mn25      1.0  0.8775992499999998  0.62498229  0.5102510890680828  1.0000
  Mn  Mn26      1.0  0.8775323999999999  0.63068486  0.5369147654865416  1.0000
  Mn  Mn27      1.0  0.63071815  0.87744891  0.5369144860150313  1.0000
  Mn  Mn28      1.0  0.6250361999999999  0.8775663899999999  0.5102537423638657  1.0000
  Mn  Mn29      1.0  0.87759638  0.62756607  0.4539736450716909  1.0000
  Mn  Mn30      1.0  0.87759638  0.62756607  0.4820330358829683  1.0000
  Mn  Mn31      1.0  0.62759638  0.87756607  0.4820330358829683  1.0000
  Mn  Mn32      1.0  0.62759638  0.87756607  0.4539736450716909  1.0000
  W   W13       1.0  0.62759638  0.62756607  0.4960627279214803  1.0000
  W   W14       1.0  0.87762286  0.87764473  0.5242762792582932  1.0000
  W   W15       1.0  0.62759638  0.62756607  0.4399439530331789  1.0000
  W   W16       1.0  0.87759638  0.87756607  0.4680033404773296  1.0000
