data_image0
_chemical_formula_structural       CONa4Al4Si4Na4Al4Si4
_chemical_formula_sum              "C1 O1 Na8 Al8 Si8"
_cell_length_a       5.87480763
_cell_length_b       7.43899507
_cell_length_c       105.24884575
_cell_angle_alpha    90.0
_cell_angle_beta     90.0
_cell_angle_gamma    90.0

_space_group_name_H-M_alt    "P 1"
_space_group_IT_number       1

loop_
  _space_group_symop_operation_xyz
  'x, y, z'

loop_
  _atom_site_type_symbol
  _atom_site_label
  _atom_site_symmetry_multiplicity
  _atom_site_fract_x
  _atom_site_fract_y
  _atom_site_fract_z
  _atom_site_occupancy
  C   C1        1.0  0.8751470400000001  0.07223335000000002  0.5505959007500126  1.0000
  O   O1        1.0  0.87543867  0.18260069000000004  0.5588080106899582  1.0000
  Na  Na1       1.0  0.8747389  0.46089245  0.5432322038292153  1.0000
  Na  Na2       1.0  0.37446929999999995  0.50440216  0.5109656594012895  1.0000
  Na  Na3       1.0  0.3747161399999999  0.7810969  0.5394505422694519  1.0000
  Na  Na4       1.0  0.87446562  0.7693825299999999  0.5109646178325246  1.0000
  Al  Al1       1.0  0.6149495199999999  0.14916379000000002  0.5248547812855373  1.0000
  Al  Al2       1.0  0.12456133000000001  0.13689081000000003  0.4970102522148028  1.0000
  Al  Al3       1.0  0.62456133  0.13689081000000003  0.4970102522148028  1.0000
  Al  Al4       1.0  0.13423858  0.14937626  0.5248570285287569  1.0000
  Si  Si1       1.0  0.87468751  0.91481249  0.5378830951474239  1.0000
  Si  Si2       1.0  0.37442883  0.9226611800000001  0.5106215163736941  1.0000
  Si  Si3       1.0  0.37468507999999995  0.35422127000000003  0.5376346424823776  1.0000
  Si  Si4       1.0  0.8744305200000001  0.35112095000000004  0.5106213656643873  1.0000
  Na  Na5       1.0  0.8745613299999999  0.50207451  0.48305568565133855  1.0000
  Na  Na6       1.0  0.3745613299999999  0.50207451  0.4551465558735059  1.0000
  Na  Na7       1.0  0.3745613299999999  0.77170711  0.48305568565133855  1.0000
  Na  Na8       1.0  0.8745613299999999  0.77170711  0.4551465558735059  1.0000
  Al  Al5       1.0  0.62456133  0.13689081000000003  0.46910111908787433  1.0000
  Al  Al6       1.0  0.12456133000000001  0.13689081000000003  0.44119198931004167  1.0000
  Al  Al7       1.0  0.62456133  0.13689081000000003  0.44119198931004167  1.0000
  Al  Al8       1.0  0.12456133000000001  0.13689081000000003  0.46910111908787433  1.0000
  Si  Si5       1.0  0.8745613299999999  0.9277666499999999  0.48305568565133855  1.0000
  Si  Si6       1.0  0.3745613299999999  0.9277666499999999  0.4551465558735059  1.0000
  Si  Si7       1.0  0.3745613299999999  0.34601497000000003  0.48305568565133855  1.0000
  Si  Si8       1.0  0.8745613299999999  0.34601497000000003  0.4551465558735059  1.0000
