data_image0
_chemical_formula_structural       COAu4Ca2Ge4
_chemical_formula_sum              "C1 O1 Au4 Ca2 Ge4"
_cell_length_a       6.166690161258666
_cell_length_b       4.55838563
_cell_length_c       99.30177768
_cell_angle_alpha    90.0
_cell_angle_beta     87.7610012864983
_cell_angle_gamma    111.69079174430323

_space_group_name_H-M_alt    "P 1"
_space_group_IT_number       1

loop_
  _space_group_symop_operation_xyz
  'x, y, z'

loop_
  _atom_site_type_symbol
  _atom_site_label
  _atom_site_symmetry_multiplicity
  _atom_site_fract_x
  _atom_site_fract_y
  _atom_site_fract_z
  _atom_site_occupancy
  C   C1        1.0  0.12537558  0.9033266649999998  0.5407993968149266  1.0000
  O   O1        1.0  0.12535471999999998  0.9909366949999998  0.5518614933009519  1.0000
  Au  Au1       1.0  0.5889309899999999  0.997945855  0.4902925169703437  1.0000
  Au  Au2       1.0  0.7662161200000001  0.49614080499999996  0.5127148391275194  1.0000
  Au  Au3       1.0  0.30321671  0.8550887149999998  0.44813850669904803  1.0000
  Au  Au4       1.0  0.44607385  0.4265172849999999  0.46921551183469584  1.0000
  Ca  Ca1       1.0  0.18387845999999997  0.308832825  0.49870767752585476  1.0000
  Ca  Ca2       1.0  0.8746452800000001  0.14080299499999982  0.4586770077914816  1.0000
  Ge  Ge1       1.0  0.15280987999999995  0.859197005  0.521110332729145  1.0000
  Ge  Ge2       1.0  0.56834082  0.9051176649999998  0.5173651102914952  1.0000
  Ge  Ge3       1.0  0.8139080799999999  0.6104344049999999  0.4847603666107104  1.0000
  Ge  Ge4       1.0  0.22109675999999995  0.814028745  0.4747476621943291  1.0000
