data_image0
_chemical_formula_structural       COCa2Mn4As4Ca2Mn4As4
_chemical_formula_sum              "C1 O1 Ca4 Mn8 As8"
_cell_length_a       6.87545841
_cell_length_b       6.80985652
_cell_length_c       101.45337996
_cell_angle_alpha    90.0
_cell_angle_beta     90.0
_cell_angle_gamma    90.0

_space_group_name_H-M_alt    "P 1"
_space_group_IT_number       1

loop_
  _space_group_symop_operation_xyz
  'x, y, z'

loop_
  _atom_site_type_symbol
  _atom_site_label
  _atom_site_symmetry_multiplicity
  _atom_site_fract_x
  _atom_site_fract_y
  _atom_site_fract_z
  _atom_site_occupancy
  C   C1        1.0  0.24646967500000003  0.163785265  0.5354132270308875  1.0000
  O   O1        1.0  0.36751324500000004  0.19380120500000003  0.5429509450533958  1.0000
  Ca  Ca1       1.0  0.001920295000000038  0.561722475  0.45704905494660425  1.0000
  Ca  Ca2       1.0  0.001920295000000038  0.06172247500000003  0.4764257996965088  1.0000
  Mn  Mn1       1.0  0.38605169500000003  0.39505580500000004  0.4764257996965088  1.0000
  Mn  Mn2       1.0  0.38605169500000003  0.8950558049999999  0.45704905494660425  1.0000
  Mn  Mn3       1.0  0.6177888950000001  0.7283891450000001  0.4764257996965088  1.0000
  Mn  Mn4       1.0  0.6177888950000001  0.22838914500000002  0.45704905494660425  1.0000
  As  As1       1.0  0.272821445  0.7283891450000001  0.4764257996965088  1.0000
  As  As2       1.0  0.272821445  0.22838914500000002  0.45704905494660425  1.0000
  As  As3       1.0  0.7310191450000001  0.39505580500000004  0.4764257996965088  1.0000
  As  As4       1.0  0.7310191450000001  0.8950558049999999  0.45704905494660425  1.0000
  Ca  Ca3       1.0  0.992563255  0.572361815  0.4965118356134721  1.0000
  Ca  Ca4       1.0  0.998079705  0.07683038500000003  0.5156806012362082  1.0000
  Mn  Mn5       1.0  0.484003155  0.5694399550000001  0.4985822330393015  1.0000
  Mn  Mn6       1.0  0.395770815  0.9382775250000001  0.4943065233394377  1.0000
  Mn  Mn7       1.0  0.613995215  0.706361985  0.5121942753152222  1.0000
  Mn  Mn8       1.0  0.6136208350000001  0.24604363500000004  0.4963921555370592  1.0000
  As  As5       1.0  0.282495795  0.7697491250000001  0.5136501571079135  1.0000
  As  As6       1.0  0.26880333500000003  0.25971589500000003  0.49674080363055356  1.0000
  As  As7       1.0  0.7192885949999999  0.38963125500000007  0.5166719651020799  1.0000
  As  As8       1.0  0.7326907049999999  0.9113913650000002  0.4951857501080927  1.0000
