data_image0
_chemical_formula_structural       COAu8Ca4Na4
_chemical_formula_sum              "C1 O1 Au8 Ca4 Na4"
_cell_length_a       5.1564394
_cell_length_b       7.29230654
_cell_length_c       100.93863643
_cell_angle_alpha    90.0
_cell_angle_beta     90.0
_cell_angle_gamma    90.0

_space_group_name_H-M_alt    "P 1"
_space_group_IT_number       1

loop_
  _space_group_symop_operation_xyz
  'x, y, z'

loop_
  _atom_site_type_symbol
  _atom_site_label
  _atom_site_symmetry_multiplicity
  _atom_site_fract_x
  _atom_site_fract_y
  _atom_site_fract_z
  _atom_site_occupancy
  C   C1        1.0  0.999995015  0.917023205  0.5473804798214544  1.0000
  O   O1        1.0  9.995000000017794e-06  0.793493395  0.5546989086925844  1.0000
  Au  Au1       1.0  0.500004985  0.8340432550000001  0.4453010913074156  1.0000
  Au  Au2       1.0  0.500006625  0.8286449750000001  0.49566433933923765  1.0000
  Au  Au3       1.0  4.985000000017795e-06  0.8340432550000001  0.4708435366044569  1.0000
  Au  Au4       1.0  6.0150000000177945e-06  0.8409540450000001  0.5212449144001435  1.0000
  Au  Au5       1.0  4.985000000017795e-06  0.334043255  0.4708435366044569  1.0000
  Au  Au6       1.0  6.125000000017796e-06  0.325831615  0.5204833091480705  1.0000
  Au  Au7       1.0  0.500004985  0.334043255  0.4453010913074156  1.0000
  Au  Au8       1.0  0.500006185  0.34296236500000005  0.4959390176984601  1.0000
  Ca  Ca1       1.0  6.2750000000177945e-06  0.5858122750000001  0.49664877382790173  1.0000
  Ca  Ca2       1.0  4.985000000017795e-06  0.584043255  0.4453010913074156  1.0000
  Ca  Ca3       1.0  0.500006595  0.082976795  0.5196560281363249  1.0000
  Ca  Ca4       1.0  0.500004985  0.084043255  0.4708435366044569  1.0000
  Na  Na1       1.0  5.775000000017795e-06  0.08318942500000001  0.49563136199764446  1.0000
  Na  Na2       1.0  4.985000000017795e-06  0.084043255  0.4453010913074156  1.0000
  Na  Na3       1.0  0.500005355  0.583401245  0.5232341172081371  1.0000
  Na  Na4       1.0  0.500004985  0.584043255  0.4708435366044569  1.0000
