data_image0
_chemical_formula_structural       COAg4Ca8Sn4
_chemical_formula_sum              "C1 O1 Ag4 Ca8 Sn4"
_cell_length_a       5.42951673
_cell_length_b       7.6784962
_cell_length_c       102.57710039
_cell_angle_alpha    90.0
_cell_angle_beta     90.0
_cell_angle_gamma    90.0

_space_group_name_H-M_alt    "P 1"
_space_group_IT_number       1

loop_
  _space_group_symop_operation_xyz
  'x, y, z'

loop_
  _atom_site_type_symbol
  _atom_site_label
  _atom_site_symmetry_multiplicity
  _atom_site_fract_x
  _atom_site_fract_y
  _atom_site_fract_z
  _atom_site_occupancy
  C   C1        1.0  6.344000000003501e-05  0.999407285  0.5438774672128218  1.0000
  O   O1        1.0  0.000131390000000035  0.0011934950000000093  0.555249594412918  1.0000
  Ag  Ag1       1.0  6.106000000003501e-05  0.0006212550000000091  0.4447504055870821  1.0000
  Ag  Ag2       1.0  0.000259410000000035  0.0005927150000000091  0.4979666223818134  1.0000
  Ag  Ag3       1.0  0.49944769  0.500667395  0.5208820336644524  1.0000
  Ag  Ag4       1.0  0.5000610600000001  0.5006212550000001  0.4712159446491285  1.0000
  Ca  Ca1       1.0  0.5000610600000001  0.25062125500000004  0.4447504055870821  1.0000
  Ca  Ca2       1.0  0.5001799400000001  0.24718346500000005  0.49707780262377926  1.0000
  Ca  Ca3       1.0  0.9999372599999999  0.23525364500000004  0.5241703812589318  1.0000
  Ca  Ca4       1.0  6.106000000003501e-05  0.25062125500000004  0.4712159446491285  1.0000
  Ca  Ca5       1.0  6.106000000003501e-05  0.7506212550000001  0.4712159446491285  1.0000
  Ca  Ca6       1.0  0.9999389399999999  0.766351685  0.5241998596361398  1.0000
  Ca  Ca7       1.0  0.5000610600000001  0.7506212550000001  0.4447504055870821  1.0000
  Ca  Ca8       1.0  0.50018477  0.7540427949999999  0.4970983631725882  1.0000
  Sn  Sn1       1.0  6.106000000003501e-05  0.5006212550000001  0.4447504055870821  1.0000
  Sn  Sn2       1.0  0.00019124000000003498  0.500226535  0.4992059877463402  1.0000
  Sn  Sn3       1.0  0.49982352  0.0014556350000000092  0.5235235560480314  1.0000
  Sn  Sn4       1.0  0.5000610600000001  0.0006212550000000091  0.4712159446491285  1.0000
