data_image0
_chemical_formula_structural       CORe30Pt10
_chemical_formula_sum              "C1 O1 Re30 Pt10"
_cell_length_a       14.814396578492383
_cell_length_b       7.146597333195481
_cell_length_c       98.58638933
_cell_angle_alpha    85.4570774750913
_cell_angle_beta     81.48510980606021
_cell_angle_gamma    53.68204279722811

_space_group_name_H-M_alt    "P 1"
_space_group_IT_number       1

loop_
  _space_group_symop_operation_xyz
  'x, y, z'

loop_
  _atom_site_type_symbol
  _atom_site_label
  _atom_site_symmetry_multiplicity
  _atom_site_fract_x
  _atom_site_fract_y
  _atom_site_fract_z
  _atom_site_occupancy
  C   C1        1.0  0.65011486  0.11698569000000002  0.5360586245972546  1.0000
  O   O1        1.0  0.6503365300000001  0.05259550000000002  0.5474385090735358  1.0000
  Re  Re1       1.0  0.44350833000000006  0.8336157400000002  0.47398722784596037  1.0000
  Re  Re2       1.0  0.84580084  0.62956459  0.4882483454690412  1.0000
  Re  Re3       1.0  0.04350832999999994  0.03361574000000002  0.4594890829998244  1.0000
  Re  Re4       1.0  0.24165371000000002  0.44306996000000004  0.50334459376341  1.0000
  Re  Re5       1.0  0.6379314200000001  0.23633311000000004  0.5169416906860842  1.0000
  Re  Re6       1.0  0.5459071999999999  0.5320124700000001  0.4956690947403405  1.0000
  Re  Re7       1.0  0.9564916700000001  0.31344101  0.5093775141961366  1.0000
  Re  Re8       1.0  0.14794307999999995  0.7203115100000002  0.4822007297196378  1.0000
  Re  Re9       1.0  0.34794307999999996  0.1203115  0.45320444582662267  1.0000
  Re  Re10      1.0  0.7479430799999999  0.9203115000000001  0.4677025877731303  1.0000
  Re  Re11      1.0  0.6523778299999999  0.7291810000000001  0.48155777481947926  1.0000
  Re  Re12      1.0  0.04853110999999994  0.52889174  0.49655233024660683  1.0000
  Re  Re13      1.0  0.25237782  0.92918099  0.4670596328729717  1.0000
  Re  Re14      1.0  0.45445911000000005  0.34074746  0.5096902652145784  1.0000
  Re  Re15      1.0  0.8523778200000001  0.12918100000000002  0.4525614909264641  1.0000
  Re  Re16      1.0  0.35727306  0.7894931900000001  0.5121077288971648  1.0000
  Re  Re17      1.0  0.7523778200000001  0.58845642  0.4555136460840378  1.0000
  Re  Re18      1.0  0.9521672200000001  0.9900790300000001  0.4999270830448942  1.0000
  Re  Re19      1.0  0.15237782999999994  0.3884564200000001  0.470011785130917  1.0000
  Re  Re20      1.0  0.55237783  0.18845642  0.484509929977053  1.0000
  Re  Re21      1.0  0.25306765000000003  0.09555166000000002  0.4904778001464939  1.0000
  Re  Re22      1.0  0.6442346699999999  0.9042104400000001  0.5053118176478477  1.0000
  Re  Re23      1.0  0.8479430800000001  0.30176065  0.4762964252037472  1.0000
  Re  Re24      1.0  0.05348774999999989  0.6856019200000001  0.5178033645556477  1.0000
  Re  Re25      1.0  0.44794308000000005  0.5017606600000001  0.46179828325723965  1.0000
  Re  Re26      1.0  0.14375128999999992  0.8826261200000001  0.5063209695169196  1.0000
  Re  Re27      1.0  0.5413245599999998  0.6728977200000001  0.518463694029115  1.0000
  Re  Re28      1.0  0.74345287  0.09695356000000001  0.49141178784845824  1.0000
  Re  Re29      1.0  0.9435083299999999  0.49289116  0.4624412381573981  1.0000
  Re  Re30      1.0  0.34350833  0.29289117  0.4769393801039058  1.0000
  Pt  Pt1       1.0  0.44421752  0.009920970000000013  0.49864550818901904  1.0000
  Pt  Pt2       1.0  0.8460099400000001  0.79848505  0.5122149078613185  1.0000
  Pt  Pt3       1.0  0.04794307999999995  0.19436941000000002  0.48408129241040443  1.0000
  Pt  Pt4       1.0  0.24794307999999995  0.5943694100000001  0.45508500851738926  1.0000
  Pt  Pt5       1.0  0.64794308  0.39436941000000003  0.469583150463897  1.0000
  Pt  Pt6       1.0  0.34812499  0.62421829  0.48821593922216244  1.0000
  Pt  Pt7       1.0  0.7514782500000001  0.43040111000000003  0.5033455854363192  1.0000
  Pt  Pt8       1.0  0.94794308  0.8277027500000002  0.47441586251298057  1.0000
  Pt  Pt9       1.0  0.15525855999999996  0.20873492  0.5166308476231226  1.0000
  Pt  Pt10      1.0  0.54794308  0.027702750000000016  0.45991772056647295  1.0000
