data_image0
_chemical_formula_structural       COCa10In4Sb12
_chemical_formula_sum              "C1 O1 Ca10 In4 Sb12"
_cell_length_a       14.57659332
_cell_length_b       4.66507398
_cell_length_c       107.09177623
_cell_angle_alpha    90.0
_cell_angle_beta     90.0
_cell_angle_gamma    90.0

_space_group_name_H-M_alt    "P 1"
_space_group_IT_number       1

loop_
  _space_group_symop_operation_xyz
  'x, y, z'

loop_
  _atom_site_type_symbol
  _atom_site_label
  _atom_site_symmetry_multiplicity
  _atom_site_fract_x
  _atom_site_fract_y
  _atom_site_fract_z
  _atom_site_occupancy
  C   C1        1.0  0.393622005  0.75111629  0.5557463906136292  1.0000
  O   O1        1.0  0.437231505  0.7493884599999999  0.564862943575467  1.0000
  Ca  Ca1       1.0  0.04589774500000001  0.24930279999999996  0.5202777713281451  1.0000
  Ca  Ca2       1.0  0.5954849750000001  0.24964145999999998  0.5310363658169314  1.0000
  Ca  Ca3       1.0  0.305636405  0.24945274999999997  0.4866034858798361  1.0000
  Ca  Ca4       1.0  0.269317675  0.24888370999999998  0.5419932762733992  1.0000
  Ca  Ca5       1.0  0.8016438450000001  0.24945274999999997  0.5076890645267542  1.0000
  Ca  Ca6       1.0  0.539008215  0.24945274999999997  0.4599136264146895  1.0000
  Ca  Ca7       1.0  0.805636405  0.24945274999999997  0.4499632236987684  1.0000
  Ca  Ca8       1.0  0.053640125000000004  0.24945274999999997  0.43942043610708453  1.0000
  Ca  Ca9       1.0  0.039008215000000006  0.24945274999999997  0.47665308316391497  1.0000
  Ca  Ca10      1.0  0.5536401249999999  0.24945274999999997  0.4971462769350703  1.0000
  In  In1       1.0  0.263503445  0.7494968  0.5164952002492984  1.0000
  In  In2       1.0  0.340524625  0.74945275  0.45826854389050703  1.0000
  In  In3       1.0  0.7546049450000001  0.74944999  0.5370557912473061  1.0000
  In  In4       1.0  0.840524625  0.74945275  0.4782981656880974  1.0000
  Sb  Sb1       1.0  0.457769955  0.74945275  0.435137056424533  1.0000
  Sb  Sb2       1.0  0.133388875  0.7489805599999999  0.5372834850493141  1.0000
  Sb  Sb3       1.0  0.388830255  0.24945232999999997  0.5175476831575945  1.0000
  Sb  Sb4       1.0  0.14951029500000002  0.74945275  0.49286289378896847  1.0000
  Sb  Sb5       1.0  0.6508040749999999  0.75002617  0.5126008326912728  1.0000
  Sb  Sb6       1.0  0.960991785  0.74945275  0.4567193705399084  1.0000
  Sb  Sb7       1.0  0.649510295  0.74945275  0.443703815789636  1.0000
  Sb  Sb8       1.0  0.22372712500000003  0.24945274999999997  0.4580834967843329  1.0000
  Sb  Sb9       1.0  0.862745955  0.24957411999999998  0.5392946371403027  1.0000
  Sb  Sb10      1.0  0.9577699550000001  0.74945275  0.5014296566176218  1.0000
  Sb  Sb11      1.0  0.46099178500000004  0.74945275  0.47984733903869603  1.0000
  Sb  Sb12      1.0  0.7237271249999999  0.24945274999999997  0.4784832127942715  1.0000
