data_image0
_chemical_formula_structural       COSb4Pt4Sb4Pt4
_chemical_formula_sum              "C1 O1 Sb8 Pt8"
_cell_length_a       5.62140658
_cell_length_b       7.3304288
_cell_length_c       99.62557530000001
_cell_angle_alpha    90.0
_cell_angle_beta     90.0
_cell_angle_gamma    90.0

_space_group_name_H-M_alt    "P 1"
_space_group_IT_number       1

loop_
  _space_group_symop_operation_xyz
  'x, y, z'

loop_
  _atom_site_type_symbol
  _atom_site_label
  _atom_site_symmetry_multiplicity
  _atom_site_fract_x
  _atom_site_fract_y
  _atom_site_fract_z
  _atom_site_occupancy
  C   C1        1.0  0.61258948  1.0000000161269895e-08  0.5362084024767808  1.0000
  O   O1        1.0  0.6125896  0.99999999  0.547913013848984  1.0000
  Sb  Sb1       1.0  0.36258936  0.6666667000000001  0.47332764120102827  1.0000
  Sb  Sb2       1.0  0.36258936  0.1666667  0.452086986151016  1.0000
  Sb  Sb3       1.0  0.86258936  0.33333336  0.47332764120102827  1.0000
  Sb  Sb4       1.0  0.86258936  0.8333333600000001  0.452086986151016  1.0000
  Pt  Pt1       1.0  0.61258936  0.50000003  0.452086986151016  1.0000
  Pt  Pt2       1.0  0.61258936  2.99999999963209e-08  0.47332764120102827  1.0000
  Pt  Pt3       1.0  0.11258935999999997  0.50000003  0.452086986151016  1.0000
  Pt  Pt4       1.0  0.11258935999999997  2.99999999963209e-08  0.47332764120102827  1.0000
  Sb  Sb5       1.0  0.33776807999999997  0.6692216999999999  0.51573517995571  1.0000
  Sb  Sb6       1.0  0.38462465999999995  0.16723436  0.4947200140049661  1.0000
  Sb  Sb7       1.0  0.88741065  0.33077837000000004  0.51573517995571  1.0000
  Sb  Sb8       1.0  0.84055406  0.8327657  0.4947200169786579  1.0000
  Pt  Pt5       1.0  0.61258938  0.5000000400000001  0.4957602292270299  1.0000
  Pt  Pt6       1.0  0.61258937  1.99999999963209e-08  0.5170440176761149  1.0000
  Pt  Pt7       1.0  0.11258934999999996  0.50000003  0.4938026300950084  1.0000
  Pt  Pt8       1.0  0.11258940999999997  4.999999999632091e-08  0.5124119783011536  1.0000
