data_image0
_chemical_formula_structural       COCu12Mo18Se24
_chemical_formula_sum              "C1 O1 Cu12 Mo18 Se24"
_cell_length_a       14.841957410873746
_cell_length_b       8.05183187381807
_cell_length_c       110.11821646
_cell_angle_alpha    112.06948930823867
_cell_angle_beta     75.36541208722757
_cell_angle_gamma    83.43569510717754

_space_group_name_H-M_alt    "P 1"
_space_group_IT_number       1

loop_
  _space_group_symop_operation_xyz
  'x, y, z'

loop_
  _atom_site_type_symbol
  _atom_site_label
  _atom_site_symmetry_multiplicity
  _atom_site_fract_x
  _atom_site_fract_y
  _atom_site_fract_z
  _atom_site_occupancy
  C   C1        1.0  0.7562672999999999  0.16192201000000003  0.5439736619257386  1.0000
  O   O1        1.0  0.7271941299999999  0.22598471999999994  0.5560303029587937  1.0000
  Cu  Cu1       1.0  0.25462505999999996  0.6352997499999998  0.4687259411369535  1.0000
  Cu  Cu2       1.0  0.9469966499999999  0.2556971999999999  0.5225869216922463  1.0000
  Cu  Cu3       1.0  0.5879583899999998  0.96863308  0.4990859004492896  1.0000
  Cu  Cu4       1.0  0.3785558099999999  0.9612993100000001  0.4867118861040753  1.0000
  Cu  Cu5       1.0  0.04522246999999995  0.6279659799999999  0.45635192679173925  1.0000
  Cu  Cu6       1.0  0.6768569699999999  0.31022212999999993  0.5193798533339968  1.0000
  Cu  Cu7       1.0  0.23368220999999995  0.51398048  0.44396969704120626  1.0000
  Cu  Cu8       1.0  0.8547225599999998  0.18530823000000002  0.5057922578578504  1.0000
  Cu  Cu9       1.0  0.5670155499999999  0.84731381  0.47432965635354235  1.0000
  Cu  Cu10      1.0  0.38950847999999993  0.08792173  0.5121461179087197  1.0000
  Cu  Cu11      1.0  0.06616531999999996  0.7492852499999999  0.481108167244291  1.0000
  Cu  Cu12      1.0  0.7328319899999999  0.41595191000000004  0.450748207931955  1.0000
  Mo  Mo1       1.0  0.3635855699999999  0.5832708999999999  0.5073286661642505  1.0000
  Mo  Mo2       1.0  0.030251649999999956  0.24517668999999995  0.4770959454464821  1.0000
  Mo  Mo3       1.0  0.6969183099999999  0.91184336  0.446735986134146  1.0000
  Mo  Mo4       1.0  0.15198287999999993  0.36363601  0.46164787580207806  1.0000
  Mo  Mo5       1.0  0.8093389199999999  0.03315476000000007  0.5226675346738352  1.0000
  Mo  Mo6       1.0  0.48531620999999997  0.6969693499999998  0.492007835114414  1.0000
  Mo  Mo7       1.0  0.48119798999999996  0.23296305  0.49378994779575547  1.0000
  Mo  Mo8       1.0  0.14786465999999998  0.8996297099999999  0.46342998848341943  1.0000
  Mo  Mo9       1.0  0.8124354599999998  0.5397842799999999  0.5222267116901823  1.0000
  Mo  Mo10      1.0  0.08331321999999995  0.07229688  0.4492191843823535  1.0000
  Mo  Mo11      1.0  0.7484619899999998  0.73871591  0.5106271350052635  1.0000
  Mo  Mo12      1.0  0.41664655999999994  0.4056302099999999  0.4795791436946894  1.0000
  Mo  Mo13      1.0  0.26959588999999995  0.018089030000000023  0.44798191883901534  1.0000
  Mo  Mo14      1.0  0.9262497299999999  0.6973294200000001  0.5105990496129794  1.0000
  Mo  Mo15      1.0  0.6029292199999999  0.35142237  0.4783418817945466  1.0000
  Mo  Mo16      1.0  0.55114976  0.52227545  0.506237186722565  1.0000
  Mo  Mo17      1.0  0.21653430999999995  0.19096885000000002  0.4758586835463392  1.0000
  Mo  Mo18      1.0  0.8832009799999999  0.8576355099999999  0.445498720590808  1.0000
  Se  Se1       1.0  0.29863103999999996  0.2928215  0.4957613572597779  1.0000
  Se  Se2       1.0  0.9652976999999999  0.9594881700000002  0.46540139430424665  1.0000
  Se  Se3       1.0  0.6324601099999999  0.6433292699999998  0.5280243104722885  1.0000
  Se  Se4       1.0  0.22553456999999993  0.12250399999999999  0.5274898719431522  1.0000
  Se  Se5       1.0  0.8763623199999999  0.85524876  0.49505859582309086  1.0000
  Se  Se6       1.0  0.54302899  0.5219154199999999  0.4646986365107549  1.0000
  Se  Se7       1.0  0.44534330999999994  0.8397165799999998  0.5189608275876036  1.0000
  Se  Se8       1.0  0.10699806999999996  0.5167470999999999  0.48907810863877155  1.0000
  Se  Se9       1.0  0.7736647399999999  0.18341376000000004  0.45871814568324015  1.0000
  Se  Se10      1.0  0.42149829999999994  0.40994529999999996  0.5206753589968125  1.0000
  Se  Se11      1.0  0.09015187999999995  0.07468364000000001  0.4907391870870787  1.0000
  Se  Se12      1.0  0.7568185499999998  0.7413503000000001  0.4603792277747426  1.0000
  Se  Se13      1.0  0.30308168999999996  0.7332721899999999  0.4926750098197701  1.0000
  Se  Se14      1.0  0.9697483499999999  0.39993885999999984  0.46231505050743404  1.0000
  Se  Se15      1.0  0.6311596399999999  0.05934494000000001  0.5242923268973209  1.0000
  Se  Se16      1.0  0.33454983  0.30377755999999995  0.45967646998125083  1.0000
  Se  Se17      1.0  0.9697153599999999  0.9819109699999999  0.5263923812292823  1.0000
  Se  Se18      1.0  0.6678831599999998  0.6371108900000001  0.49003642929358693  1.0000
  Se  Se19      1.0  0.33009917999999994  0.8633268699999997  0.46276281377806333  1.0000
  Se  Se20      1.0  0.9616227599999999  0.56749533  0.5281153757810878  1.0000
  Se  Se21      1.0  0.6634325099999999  0.19666019999999998  0.49312277673359467  1.0000
  Se  Se22      1.0  0.23475626999999993  0.8420115399999999  0.5295188621083097  1.0000
  Se  Se23      1.0  0.8595161299999998  0.41318530000000003  0.4967196779145932  1.0000
  Se  Se24      1.0  0.5261827999999998  0.07985196  0.4663597186022572  1.0000
