data_image0
_chemical_formula_structural       COCa4In8Au4
_chemical_formula_sum              "C1 O1 Ca4 In8 Au4"
_cell_length_a       4.67123702
_cell_length_b       7.8316858
_cell_length_c       103.27094146
_cell_angle_alpha    90.0
_cell_angle_beta     90.0
_cell_angle_gamma    90.0

_space_group_name_H-M_alt    "P 1"
_space_group_IT_number       1

loop_
  _space_group_symop_operation_xyz
  'x, y, z'

loop_
  _atom_site_type_symbol
  _atom_site_label
  _atom_site_symmetry_multiplicity
  _atom_site_fract_x
  _atom_site_fract_y
  _atom_site_fract_z
  _atom_site_occupancy
  C   C1        1.0  0.7499894950000001  0.7493743849999999  0.542381502947216  1.0000
  O   O1        1.0  0.7499948150000001  0.7493744849999999  0.5551679404482993  1.0000
  Ca  Ca1       1.0  0.24999996500000005  0.24937488499999994  0.5274289010859019  1.0000
  Ca  Ca2       1.0  0.7499999450000001  0.7493747849999999  0.4920576765610148  1.0000
  Ca  Ca3       1.0  0.7499999450000001  0.24937478499999993  0.4760156521868774  1.0000
  Ca  Ca4       1.0  0.25000482500000004  0.7493748549999999  0.5489243590265817  1.0000
  In  In1       1.0  0.24999994500000003  0.04994270499999996  0.4985272901994327  1.0000
  In  In2       1.0  0.24999994500000003  0.4488068649999999  0.4985272901994327  1.0000
  In  In3       1.0  0.750000145  0.9500572949999999  0.5247439473782887  1.0000
  In  In4       1.0  0.750000135  0.5486925249999999  0.5247438893874408  1.0000
  In  In5       1.0  0.7499999450000001  0.04994270499999996  0.44483205955170063  1.0000
  In  In6       1.0  0.7499999450000001  0.4488068649999999  0.44483205955170063  1.0000
  In  In7       1.0  0.24999994500000003  0.9488068649999999  0.46954603854845955  1.0000
  In  In8       1.0  0.24999994500000003  0.5499427049999999  0.46954603854845955  1.0000
  Au  Au1       1.0  0.7499999450000001  0.24937478499999993  0.5067813756586556  1.0000
  Au  Au2       1.0  0.24999985500000005  0.7493749149999999  0.5145917892488605  1.0000
  Au  Au3       1.0  0.24999994500000003  0.24937478499999993  0.45308614823263726  1.0000
  Au  Au4       1.0  0.7499999450000001  0.7493747849999999  0.4612919530892366  1.0000
