data_image0
_chemical_formula_structural       COCa6Si12Au12Ca6Si12Au12
_chemical_formula_sum              "C1 O1 Ca12 Si24 Au24"
_cell_length_a       10.16095225
_cell_length_b       9.849088561167527
_cell_length_c       107.37466328
_cell_angle_alpha    71.56505119547411
_cell_angle_beta     90.0
_cell_angle_gamma    90.0

_space_group_name_H-M_alt    "P 1"
_space_group_IT_number       1

loop_
  _space_group_symop_operation_xyz
  'x, y, z'

loop_
  _atom_site_type_symbol
  _atom_site_label
  _atom_site_symmetry_multiplicity
  _atom_site_fract_x
  _atom_site_fract_y
  _atom_site_fract_z
  _atom_site_occupancy
  C   C1        1.0  0.80459691  0.533247845  0.5583267639335904  1.0000
  O   O1        1.0  0.82871899  0.560064055  0.5678683861460089  1.0000
  Ca  Ca1       1.0  0.05918351000000004  0.669089395  0.46113804262737834  1.0000
  Ca  Ca2       1.0  0.05918351000000004  0.33575605499999994  0.44180042344512016  1.0000
  Ca  Ca3       1.0  0.05918351000000004  0.0024227250000000066  0.4804756583288653  1.0000
  Ca  Ca4       1.0  0.55918351  0.669089395  0.43213161385399107  1.0000
  Ca  Ca5       1.0  0.55918351  0.33575605499999994  0.4708068487377362  1.0000
  Ca  Ca6       1.0  0.55918351  0.0024227250000000066  0.4514692330362492  1.0000
  Si  Si1       1.0  0.9442076099999999  0.669089395  0.43213161385399107  1.0000
  Si  Si2       1.0  0.9442076099999999  0.33575605499999994  0.4708068487377362  1.0000
  Si  Si3       1.0  0.9442076099999999  0.0024227250000000066  0.4514692330362492  1.0000
  Si  Si4       1.0  0.67415941  0.669089395  0.46113804262737834  1.0000
  Si  Si5       1.0  0.67415941  0.33575605499999994  0.44180042344512016  1.0000
  Si  Si6       1.0  0.67415941  0.0024227250000000066  0.4804756583288653  1.0000
  Si  Si7       1.0  0.44420761000000003  0.669089395  0.46113804262737834  1.0000
  Si  Si8       1.0  0.44420761000000003  0.33575605499999994  0.44180042344512016  1.0000
  Si  Si9       1.0  0.44420761000000003  0.0024227250000000066  0.4804756583288653  1.0000
  Si  Si10      1.0  0.17415941000000004  0.669089395  0.43213161385399107  1.0000
  Si  Si11      1.0  0.17415941000000004  0.33575605499999994  0.4708068487377362  1.0000
  Si  Si12      1.0  0.17415941000000004  0.0024227250000000066  0.4514692330362492  1.0000
  Au  Au1       1.0  0.80918351  0.502422725  0.4514692330362492  1.0000
  Au  Au2       1.0  0.80918351  0.169089395  0.43213161385399107  1.0000
  Au  Au3       1.0  0.80918351  0.8357560549999999  0.4708068487377362  1.0000
  Au  Au4       1.0  0.80918351  0.8357560549999999  0.44180042344512016  1.0000
  Au  Au5       1.0  0.80918351  0.502422725  0.48047565832886524  1.0000
  Au  Au6       1.0  0.80918351  0.169089395  0.4611380426273783  1.0000
  Au  Au7       1.0  0.30918351000000005  0.8357560549999999  0.44180042344512016  1.0000
  Au  Au8       1.0  0.30918351000000005  0.502422725  0.48047565832886524  1.0000
  Au  Au9       1.0  0.30918351000000005  0.169089395  0.4611380426273783  1.0000
  Au  Au10      1.0  0.30918351000000005  0.502422725  0.4514692330362492  1.0000
  Au  Au11      1.0  0.30918351000000005  0.169089395  0.43213161385399107  1.0000
  Au  Au12      1.0  0.30918351000000005  0.8357560549999999  0.4708068487377362  1.0000
  Ca  Ca7       1.0  0.055792390000000046  0.6715132149999999  0.5183274123681839  1.0000
  Ca  Ca8       1.0  0.05918351000000004  0.33575605499999994  0.49981327751112337  1.0000
  Ca  Ca9       1.0  0.06192098000000004  0.019495655000000004  0.5359445733782429  1.0000
  Ca  Ca10      1.0  0.55918351  0.669089395  0.4901444679199944  1.0000
  Ca  Ca11      1.0  0.5588820999999999  0.33227910499999996  0.5280290421507159  1.0000
  Ca  Ca12      1.0  0.55918351  0.0024227250000000066  0.5094820836214814  1.0000
  Si  Si13      1.0  0.9442076099999999  0.669089395  0.4901444679199944  1.0000
  Si  Si14      1.0  0.9427979600000002  0.342020905  0.5298948608079269  1.0000
  Si  Si15      1.0  0.9442076099999999  0.0024227250000000066  0.5094820836214814  1.0000
  Si  Si16      1.0  0.68100257  0.660369805  0.5204613617904971  1.0000
  Si  Si17      1.0  0.67415941  0.33575605499999994  0.49981327751112337  1.0000
  Si  Si18      1.0  0.66690083  0.9945116949999999  0.5376305057811637  1.0000
  Si  Si19      1.0  0.4471114  0.6682712249999999  0.5196938795927235  1.0000
  Si  Si20      1.0  0.44420761000000003  0.33575605499999994  0.49981327751112337  1.0000
  Si  Si21      1.0  0.44316002  0.9975772749999999  0.5374389102126431  1.0000
  Si  Si22      1.0  0.17415941000000004  0.669089395  0.4901444679199944  1.0000
  Si  Si23      1.0  0.17302196000000003  0.33888423500000003  0.5305222071582214  1.0000
  Si  Si24      1.0  0.17415941000000004  0.0024227250000000066  0.5094820836214814  1.0000
  Au  Au13      1.0  0.80918351  0.502422725  0.5094820836214814  1.0000
  Au  Au14      1.0  0.80918351  0.169089395  0.49014446791999433  1.0000
  Au  Au15      1.0  0.80263485  0.838580895  0.5284783192092734  1.0000
  Au  Au16      1.0  0.80918351  0.8357560549999999  0.4998132775111234  1.0000
  Au  Au17      1.0  0.8341272500000001  0.480728265  0.5417320098405718  1.0000
  Au  Au18      1.0  0.81011944  0.17619192500000003  0.5211193145617277  1.0000
  Au  Au19      1.0  0.30918351000000005  0.8357560549999999  0.4998132775111234  1.0000
  Au  Au20      1.0  0.28855504000000004  0.521625605  0.5371279903274948  1.0000
  Au  Au21      1.0  0.3064098800000001  0.181579675  0.5206686800024122  1.0000
  Au  Au22      1.0  0.30918351000000005  0.502422725  0.5094820836214814  1.0000
  Au  Au23      1.0  0.30918351000000005  0.169089395  0.49014446791999433  1.0000
  Au  Au24      1.0  0.31102937  0.8331358449999999  0.5292653772641314  1.0000
