data_image0
_chemical_formula_structural       COCo8As16
_chemical_formula_sum              "C1 O1 Co8 As16"
_cell_length_a       8.64138660681934
_cell_length_b       6.034422992727361
_cell_length_c       103.87586268
_cell_angle_alpha    109.111227855538
_cell_angle_beta     102.32930098910758
_cell_angle_gamma    67.82442257082118

_space_group_name_H-M_alt    "P 1"
_space_group_IT_number       1

loop_
  _space_group_symop_operation_xyz
  'x, y, z'

loop_
  _atom_site_type_symbol
  _atom_site_label
  _atom_site_symmetry_multiplicity
  _atom_site_fract_x
  _atom_site_fract_y
  _atom_site_fract_z
  _atom_site_occupancy
  C   C1        1.0  0.7588467  0.2349169949999999  0.53432797485359  1.0000
  O   O1        1.0  0.7302763199999999  0.271804495  0.5454971722699263  1.0000
  Co  Co1       1.0  0.8169674499999999  0.17497798499999995  0.47659254073792034  1.0000
  Co  Co2       1.0  0.5669674499999999  0.9249779850000001  0.456210121156748  1.0000
  Co  Co3       1.0  0.06696744999999998  0.4249779849999999  0.49697496031909266  1.0000
  Co  Co4       1.0  0.29841672  0.678741565  0.5162024533054274  1.0000
  Co  Co5       1.0  0.81324184  0.19756389499999993  0.5180745932193003  1.0000
  Co  Co6       1.0  0.5669674499999999  0.9249779850000001  0.4969749603190927  1.0000
  Co  Co7       1.0  0.06696744999999998  0.4249779849999999  0.4562101211567481  1.0000
  Co  Co8       1.0  0.31696745  0.674977985  0.4765925407379203  1.0000
  As  As1       1.0  0.5879081899999999  0.4983636449999999  0.4875772658428922  1.0000
  As  As2       1.0  0.33790819  0.24836364499999988  0.4671948462617198  1.0000
  As  As3       1.0  0.84286005  0.755023945  0.5086864996780192  1.0000
  As  As4       1.0  0.10968712999999998  0.0750220149999999  0.5268843869686627  1.0000
  As  As5       1.0  0.04602669999999999  0.8515923349999999  0.4656078156329486  1.0000
  As  As6       1.0  0.7635596299999999  0.645199195  0.5266045477619683  1.0000
  As  As7       1.0  0.2960266999999999  0.10159233499999988  0.4859902352141208  1.0000
  As  As8       1.0  0.53921042  0.3544085149999999  0.5065446530658742  1.0000
  As  As9       1.0  0.9539732999999999  0.138600355  0.49891973991516564  1.0000
  As  As10      1.0  0.7017003  0.884571535  0.4782998341645949  1.0000
  As  As11      1.0  0.22024515  0.36233445499999983  0.5197333569202488  1.0000
  As  As12      1.0  0.45170029999999994  0.6345715349999999  0.4579174145834226  1.0000
  As  As13      1.0  0.9322345899999999  0.4653844449999999  0.47488524731124576  1.0000
  As  As14      1.0  0.68223459  0.21538444499999984  0.4545028277300735  1.0000
  As  As15      1.0  0.18223458999999997  0.715384445  0.49526766689241813  1.0000
  As  As16      1.0  0.45936841999999994  0.9162718149999998  0.5160581620807284  1.0000
