data_image0
_chemical_formula_structural       COCo8Si16Co8Si16
_chemical_formula_sum              "C1 O1 Co16 Si32"
_cell_length_a       7.61315602
_cell_length_b       9.324173780796986
_cell_length_c       105.30075221
_cell_angle_alpha    95.05115255513586
_cell_angle_beta     90.0
_cell_angle_gamma    90.0

_space_group_name_H-M_alt    "P 1"
_space_group_IT_number       1

loop_
  _space_group_symop_operation_xyz
  'x, y, z'

loop_
  _atom_site_type_symbol
  _atom_site_label
  _atom_site_symmetry_multiplicity
  _atom_site_fract_x
  _atom_site_fract_y
  _atom_site_fract_z
  _atom_site_occupancy
  C   C1        1.0  0.4540758099999999  0.3728495499999999  0.540079059672713  1.0000
  O   O1        1.0  0.4210099499999999  0.36708614  0.5508678277976559  1.0000
  Co  Co1       1.0  0.99848481  0.3919423899999999  0.522381457366989  1.0000
  Co  Co2       1.0  0.003291799999999949  0.32812499999999994  0.45960834149278273  1.0000
  Co  Co3       1.0  0.003291799999999949  0.015624999999999977  0.4805606800736603  1.0000
  Co  Co4       1.0  0.003733369999999949  0.70024587  0.5014168423918902  1.0000
  Co  Co5       1.0  0.25329179999999996  0.671875  0.47008451078322155  1.0000
  Co  Co6       1.0  0.25329179999999996  0.35937499999999994  0.491036849364099  1.0000
  Co  Co7       1.0  0.25240604999999994  0.04299883999999998  0.5120876237078165  1.0000
  Co  Co8       1.0  0.25329179999999996  0.9843750000000001  0.449132172202344  1.0000
  Si  Si1       1.0  0.003291799999999949  0.5781250000000001  0.45960834149278273  1.0000
  Si  Si2       1.0  0.003291799999999949  0.26562499999999994  0.4805606800736603  1.0000
  Si  Si3       1.0  0.002553859999999949  0.9490991000000001  0.5012576414947915  1.0000
  Si  Si4       1.0  0.0015151899999999489  0.63890083  0.5220482883645597  1.0000
  Si  Si5       1.0  0.25329179999999996  0.421875  0.47008451078322155  1.0000
  Si  Si6       1.0  0.25329179999999996  0.10937499999999999  0.491036849364099  1.0000
  Si  Si7       1.0  0.2501242699999999  0.79540793  0.5127044035652766  1.0000
  Si  Si8       1.0  0.25329179999999996  0.734375  0.449132172202344  1.0000
  Si  Si9       1.0  0.25329179999999996  0.609375  0.491036849364099  1.0000
  Si  Si10      1.0  0.24860891999999996  0.3000834499999999  0.512236254569148  1.0000
  Si  Si11      1.0  0.25329179999999996  0.23437499999999997  0.449132172202344  1.0000
  Si  Si12      1.0  0.25329179999999996  0.9218750000000001  0.47008451078322155  1.0000
  Si  Si13      1.0  0.003291799999999949  0.765625  0.4805606800736603  1.0000
  Si  Si14      1.0  0.0023226399999999488  0.45227468  0.5017813695023332  1.0000
  Si  Si15      1.0  0.0018184399999999488  0.14420677999999998  0.5205287644279393  1.0000
  Si  Si16      1.0  0.003291799999999949  0.07812499999999997  0.45960834149278273  1.0000
  Co  Co9       1.0  0.4952809699999999  0.39039697999999995  0.5236457415912041  1.0000
  Co  Co10      1.0  0.5032918  0.32812499999999994  0.45960834149278273  1.0000
  Co  Co11      1.0  0.5032918  0.015624999999999977  0.4805606800736603  1.0000
  Co  Co12      1.0  0.5037760199999999  0.70289402  0.5016225910043803  1.0000
  Co  Co13      1.0  0.7532918  0.671875  0.47008451078322155  1.0000
  Co  Co14      1.0  0.7532918  0.35937499999999994  0.491036849364099  1.0000
  Co  Co15      1.0  0.7514979699999998  0.04233807999999998  0.5120910800055888  1.0000
  Co  Co16      1.0  0.7532918  0.9843750000000001  0.449132172202344  1.0000
  Si  Si17      1.0  0.5032918  0.5781250000000001  0.45960834149278273  1.0000
  Si  Si18      1.0  0.5032918  0.26562499999999994  0.4805606800736603  1.0000
  Si  Si19      1.0  0.5022209799999999  0.9493659700000001  0.5010963889446988  1.0000
  Si  Si20      1.0  0.50231796  0.62824251  0.5211864264884384  1.0000
  Si  Si21      1.0  0.7532918  0.421875  0.47008451078322155  1.0000
  Si  Si22      1.0  0.7532918  0.10937499999999999  0.491036849364099  1.0000
  Si  Si23      1.0  0.7569919699999998  0.7950696  0.5126852313373815  1.0000
  Si  Si24      1.0  0.7532918  0.734375  0.449132172202344  1.0000
  Si  Si25      1.0  0.7532918  0.609375  0.491036849364099  1.0000
  Si  Si26      1.0  0.75048277  0.30015105999999997  0.5122878677219145  1.0000
  Si  Si27      1.0  0.7532918  0.23437499999999997  0.449132172202344  1.0000
  Si  Si28      1.0  0.7532918  0.9218750000000001  0.47008451078322155  1.0000
  Si  Si29      1.0  0.5032918  0.765625  0.4805606800736603  1.0000
  Si  Si30      1.0  0.5027540799999999  0.45036463000000004  0.501783769802241  1.0000
  Si  Si31      1.0  0.5022125399999999  0.14243457999999998  0.5204606810608611  1.0000
  Si  Si32      1.0  0.5032918  0.07812499999999997  0.45960834149278285  1.0000
