data_image0
_chemical_formula_structural       CONa2Al2Ge2Na2Al2Ge2Na2Al2Ge2Na2Al2Ge2
_chemical_formula_sum              "C1 O1 Na8 Al8 Ge8"
_cell_length_a       8.43295914
_cell_length_b       7.55600481
_cell_length_c       99.51535699
_cell_angle_alpha    90.0
_cell_angle_beta     90.0
_cell_angle_gamma    90.0

_space_group_name_H-M_alt    "P 1"
_space_group_IT_number       1

loop_
  _space_group_symop_operation_xyz
  'x, y, z'

loop_
  _atom_site_type_symbol
  _atom_site_label
  _atom_site_symmetry_multiplicity
  _atom_site_fract_x
  _atom_site_fract_y
  _atom_site_fract_z
  _atom_site_occupancy
  C   C1        1.0  0.3752636700000001  0.49645542500000006  0.5403304974509747  1.0000
  O   O1        1.0  0.37526403  0.5780392550000001  0.5500920479926764  1.0000
  Na  Na1       1.0  0.12526350000000003  0.6584026250000001  0.4499079520073237  1.0000
  Na  Na2       1.0  0.3752635  0.38075870500000003  0.47109302139362  1.0000
  Al  Al1       1.0  0.12526350000000003  0.019580665000000014  0.47109302139362  1.0000
  Al  Al2       1.0  0.3752635  0.019580665000000014  0.4499079520073237  1.0000
  Ge  Ge1       1.0  0.12526350000000003  0.234547995  0.4499079520073237  1.0000
  Ge  Ge2       1.0  0.3752635  0.804613335  0.47109302139362  1.0000
  Na  Na3       1.0  0.12721423  0.6496572850000001  0.4918635870936252  1.0000
  Na  Na4       1.0  0.37526346  0.37173046500000007  0.5149236542181987  1.0000
  Al  Al3       1.0  0.12473631000000004  0.9829922350000001  0.512229700575561  1.0000
  Al  Al4       1.0  0.37526352  0.018262925000000017  0.4927266223490379  1.0000
  Ge  Ge3       1.0  0.12556519000000002  0.23291980500000004  0.4930909250465046  1.0000
  Ge  Ge4       1.0  0.37526373  0.8027589150000001  0.5142589078265963  1.0000
  Na  Na5       1.0  0.6252635  0.6584026250000001  0.4499079520073237  1.0000
  Na  Na6       1.0  0.8752635  0.38075870500000003  0.47109302139362  1.0000
  Al  Al5       1.0  0.6252635  0.019580665000000014  0.47109302139362  1.0000
  Al  Al6       1.0  0.8752635  0.019580665000000014  0.4499079520073237  1.0000
  Ge  Ge5       1.0  0.6252635  0.234547995  0.4499079520073237  1.0000
  Ge  Ge6       1.0  0.8752635  0.804613335  0.47109302139362  1.0000
  Na  Na7       1.0  0.62331273  0.6496572750000001  0.4918635870936252  1.0000
  Na  Na8       1.0  0.87526348  0.379421865  0.5134875844331968  1.0000
  Al  Al7       1.0  0.62579022  0.9829921950000001  0.512229700575561  1.0000
  Al  Al8       1.0  0.87526353  0.017007765000000015  0.4926987932176341  1.0000
  Ge  Ge7       1.0  0.62496177  0.232919795  0.4930909250465046  1.0000
  Ge  Ge8       1.0  0.8752636899999999  0.8000559650000001  0.514257709599048  1.0000
