data_image0
_chemical_formula_structural       CONa24Zn12Ge12
_chemical_formula_sum              "C1 O1 Na24 Zn12 Ge12"
_cell_length_a       17.763112857309654
_cell_length_b       5.60851453
_cell_length_c       106.11245744
_cell_angle_alpha    90.0
_cell_angle_beta     83.08974230353063
_cell_angle_gamma    90.0

_space_group_name_H-M_alt    "P 1"
_space_group_IT_number       1

loop_
  _space_group_symop_operation_xyz
  'x, y, z'

loop_
  _atom_site_type_symbol
  _atom_site_label
  _atom_site_symmetry_multiplicity
  _atom_site_fract_x
  _atom_site_fract_y
  _atom_site_fract_z
  _atom_site_occupancy
  C   C1        1.0  0.41637221999999996  0.23474358499999995  0.5527807859242434  1.0000
  O   O1        1.0  0.4046212699999999  0.13325682499999997  0.5627475797398728  1.0000
  Na  Na1       1.0  0.26803902  0.36998760499999994  0.5410348336920915  1.0000
  Na  Na2       1.0  0.89166968  0.356750365  0.5021268710258001  1.0000
  Na  Na3       1.0  0.55833635  0.356750365  0.4643132596196655  1.0000
  Na  Na4       1.0  0.42410845999999996  0.8954406750000001  0.5307885840506122  1.0000
  Na  Na5       1.0  0.10394481999999998  0.856750365  0.4862238555595689  1.0000
  Na  Na6       1.0  0.77061149  0.856750365  0.44841024415343433  1.0000
  Na  Na7       1.0  0.31979051999999997  0.856750365  0.4372524202601273  1.0000
  Na  Na8       1.0  0.9864571900000001  0.856750365  0.5128796430723965  1.0000
  Na  Na9       1.0  0.65312386  0.856750365  0.4750660316662619  1.0000
  Na  Na10      1.0  0.34876343  0.35804798499999996  0.5131576321082453  1.0000
  Na  Na11      1.0  0.009157309999999976  0.356750365  0.4754710801097476  1.0000
  Na  Na12      1.0  0.67582398  0.356750365  0.437657468703613  1.0000
  Na  Na13      1.0  0.5721382300000001  0.346273725  0.520536654426507  1.0000
  Na  Na14      1.0  0.22500300999999998  0.356750365  0.4832200636211203  1.0000
  Na  Na15      1.0  0.89166968  0.356750365  0.4454064522149857  1.0000
  Na  Na16      1.0  0.09688382999999996  0.8581071850000002  0.5404045325882958  1.0000
  Na  Na17      1.0  0.77061149  0.856750365  0.5051306595610238  1.0000
  Na  Na18      1.0  0.43727815  0.856750365  0.4673170481548891  1.0000
  Na  Na19      1.0  0.31979051999999997  0.856750365  0.49397283907094175  1.0000
  Na  Na20      1.0  0.9864571900000001  0.856750365  0.4561592276648071  1.0000
  Na  Na21      1.0  0.66219933  0.846851485  0.5337553318842765  1.0000
  Na  Na22      1.0  0.34249063999999996  0.356750365  0.4565642727050677  1.0000
  Na  Na23      1.0  0.99084269  0.35661709499999994  0.531875917860694  1.0000
  Na  Na24      1.0  0.67582398  0.356750365  0.49437788751442746  1.0000
  Zn  Zn1       1.0  0.49780725  0.10675036499999996  0.494175361591072  1.0000
  Zn  Zn2       1.0  0.16447391999999997  0.10675036499999996  0.4563617501849374  1.0000
  Zn  Zn3       1.0  0.83387445  0.10455932499999997  0.5318011421996629  1.0000
  Zn  Zn4       1.0  0.49780725  0.606750365  0.494175361591072  1.0000
  Zn  Zn5       1.0  0.16447391999999997  0.606750365  0.4563617501849374  1.0000
  Zn  Zn6       1.0  0.83428035  0.6070587149999999  0.5317592382894919  1.0000
  Zn  Zn7       1.0  0.16447391999999997  0.10675036499999996  0.5130821689957519  1.0000
  Zn  Zn8       1.0  0.83114058  0.10675036499999996  0.4752685575896173  1.0000
  Zn  Zn9       1.0  0.49780725  0.10675036499999996  0.43745494618348263  1.0000
  Zn  Zn10      1.0  0.16447391999999997  0.606750365  0.5130821689957519  1.0000
  Zn  Zn11      1.0  0.83114058  0.606750365  0.4752685575896173  1.0000
  Zn  Zn12      1.0  0.49780725  0.606750365  0.43745494618348263  1.0000
  Ge  Ge1       1.0  0.40716417  0.356750365  0.48389273487692025  1.0000
  Ge  Ge2       1.0  0.07383083999999997  0.356750365  0.44607912347078565  1.0000
  Ge  Ge3       1.0  0.7434439700000001  0.355576835  0.5216673112916099  1.0000
  Ge  Ge4       1.0  0.58845033  0.856750365  0.5044579883052238  1.0000
  Ge  Ge5       1.0  0.25511699  0.856750365  0.46664437689908916  1.0000
  Ge  Ge6       1.0  0.9253791699999999  0.856098205  0.5414518206490897  1.0000
  Ge  Ge7       1.0  0.43667882999999996  0.40427444500000004  0.5374947955808466  1.0000
  Ge  Ge8       1.0  0.07383083999999997  0.356750365  0.5027995422816002  1.0000
  Ge  Ge9       1.0  0.74049751  0.356750365  0.46498593087546547  1.0000
  Ge  Ge10      1.0  0.2510073  0.858023485  0.5243000053597773  1.0000
  Ge  Ge11      1.0  0.92178366  0.856750365  0.48555118430376903  1.0000
  Ge  Ge12      1.0  0.58845033  0.856750365  0.4477375694944094  1.0000
