data_image0
_chemical_formula_structural       COAs3Au3Ca6
_chemical_formula_sum              "C1 O1 As3 Au3 Ca6"
_cell_length_a       5.21223
_cell_length_b       5.212229999681853
_cell_length_c       108.30191178999999
_cell_angle_alpha    90.0
_cell_angle_beta     90.0
_cell_angle_gamma    120.00000000201916

_space_group_name_H-M_alt    "P 1"
_space_group_IT_number       1

loop_
  _space_group_symop_operation_xyz
  'x, y, z'

loop_
  _atom_site_type_symbol
  _atom_site_label
  _atom_site_symmetry_multiplicity
  _atom_site_fract_x
  _atom_site_fract_y
  _atom_site_fract_z
  _atom_site_occupancy
  C   C1        1.0  0.833314845  0.50000814  0.5499314005748305  1.0000
  O   O1        1.0  0.8333371549999999  0.49998486  0.5611183639523802  1.0000
  As  As1       1.0  0.16666823499999997  0.16665490000000005  0.47817704518463516  1.0000
  As  As2       1.0  0.833334905  0.49998823000000003  0.4388816360476199  1.0000
  As  As3       1.0  0.500001565  0.8333215700000001  0.5174724543216505  1.0000
  Au  Au1       1.0  0.500001565  0.8333215700000001  0.4585293423844209  1.0000
  Au  Au2       1.0  0.166662845  0.16667545000000003  0.5390567920851396  1.0000
  Au  Au3       1.0  0.833334905  0.49998823000000003  0.4978247515214362  1.0000
  Ca  Ca1       1.0  0.8333214550000001  0.49999768000000006  0.5268403742489435  1.0000
  Ca  Ca2       1.0  0.500001565  0.8333215700000001  0.4880008983530357  1.0000
  Ca  Ca3       1.0  0.16666823499999997  0.16665490000000005  0.44870548921602044  1.0000
  Ca  Ca4       1.0  0.499975765  0.8333451000000001  0.5456563107226827  1.0000
  Ca  Ca5       1.0  0.16666823499999997  0.16665490000000005  0.5076486046898367  1.0000
  Ca  Ca6       1.0  0.833334905  0.49998823000000003  0.46835319555282146  1.0000
