data_image0
_chemical_formula_structural       COGa6Mn12V6
_chemical_formula_sum              "C1 O1 Ga6 Mn12 V6"
_cell_length_a       5.80843354
_cell_length_b       7.113849186624027
_cell_length_c       101.27937189
_cell_angle_alpha    94.34775319116079
_cell_angle_beta     90.0
_cell_angle_gamma    114.09484256043064

_space_group_name_H-M_alt    "P 1"
_space_group_IT_number       1

loop_
  _space_group_symop_operation_xyz
  'x, y, z'

loop_
  _atom_site_type_symbol
  _atom_site_label
  _atom_site_symmetry_multiplicity
  _atom_site_fract_x
  _atom_site_fract_y
  _atom_site_fract_z
  _atom_site_occupancy
  C   C1        1.0  0.10421500499999997  0.23357263  0.5389883697964439  1.0000
  O   O1        1.0  0.111897345  0.24938931000000006  0.5505252453103254  1.0000
  Ga  Ga1       1.0  0.16404426499999994  0.35292787000000003  0.4940459741671409  1.0000
  Ga  Ga2       1.0  0.7490157049999998  0.52265894  0.4687774093827574  1.0000
  Ga  Ga3       1.0  0.5776726050000001  0.17921580999999998  0.5201931587320565  1.0000
  Ga  Ga4       1.0  0.45734903499999996  0.93932561  0.48164584378586284  1.0000
  Ga  Ga5       1.0  0.040682374999999965  0.10599227000000001  0.4559089718912272  1.0000
  Ga  Ga6       1.0  0.878158215  0.7801355  0.509062130026265  1.0000
  Mn  Mn1       1.0  0.35318237500000005  0.23099227  0.4752116265843102  1.0000
  Mn  Mn2       1.0  0.936515705  0.39765894000000007  0.4494747546896745  1.0000
  Mn  Mn3       1.0  0.768463875  0.06067439  0.5009460956844897  1.0000
  Mn  Mn4       1.0  0.853182375  0.23099227  0.4752116265843102  1.0000
  Mn  Mn5       1.0  0.4365157050000001  0.39765894000000007  0.4494747546896745  1.0000
  Mn  Mn6       1.0  0.267814515  0.06084293999999998  0.5009477356380324  1.0000
  Mn  Mn7       1.0  0.6448490349999999  0.8143256099999999  0.46234318909277994  1.0000
  Mn  Mn8       1.0  0.480452425  0.46430256000000003  0.5130184484585306  1.0000
  Mn  Mn9       1.0  0.06151570499999995  0.64765894  0.48808006407584037  1.0000
  Mn  Mn10      1.0  0.14484903499999993  0.8143256099999999  0.46234318909277994  1.0000
  Mn  Mn11      1.0  0.959317625  0.46433270000000004  0.5130208388992877  1.0000
  Mn  Mn12      1.0  0.561515705  0.64765894  0.48808006407584037  1.0000
  V   V1        1.0  0.9573490349999999  0.93932561  0.48164584378586284  1.0000
  V   V2        1.0  0.5406823749999998  0.10599227000000001  0.4559089718912272  1.0000
  V   V3        1.0  0.369113855  0.76279787  0.5059410081225341  1.0000
  V   V4        1.0  0.6666153449999999  0.357868  0.49395322877187153  1.0000
  V   V5        1.0  0.24901570499999995  0.52265894  0.4687774093827574  1.0000
  V   V6        1.0  0.09694810499999997  0.21827464000000002  0.5185035618498863  1.0000
