data_image0
_chemical_formula_structural       COAs24Pd12
_chemical_formula_sum              "C1 O1 As24 Pd12"
_cell_length_a       13.686132829239144
_cell_length_b       6.12062467
_cell_length_c       104.62348166999999
_cell_angle_alpha    90.0
_cell_angle_beta     108.43494882292201
_cell_angle_gamma    90.0

_space_group_name_H-M_alt    "P 1"
_space_group_IT_number       1

loop_
  _space_group_symop_operation_xyz
  'x, y, z'

loop_
  _atom_site_type_symbol
  _atom_site_label
  _atom_site_symmetry_multiplicity
  _atom_site_fract_x
  _atom_site_fract_y
  _atom_site_fract_z
  _atom_site_occupancy
  C   C1        1.0  0.32699255999999993  0.5258177699999999  0.5403944247795575  1.0000
  O   O1        1.0  0.35600140999999996  0.54260377  0.5520335405535941  1.0000
  As  As1       1.0  0.8938625099999999  0.11153418999999998  0.5037085952106545  1.0000
  As  As2       1.0  0.54601189  0.12926045999999997  0.44887614444096513  1.0000
  As  As3       1.0  0.21267856  0.12926045999999997  0.4764539881305467  1.0000
  As  As4       1.0  0.5404570099999999  0.65630386  0.5111471010997607  1.0000
  As  As5       1.0  0.20168320999999997  0.62926046  0.45531576203874546  1.0000
  As  As6       1.0  0.8683498799999999  0.62926046  0.48289360903766837  1.0000
  As  As7       1.0  0.95718089  0.89575348  0.45622544703330487  1.0000
  As  As8       1.0  0.6238475499999999  0.89575348  0.48380329072288647  1.0000
  As  As9       1.0  0.29550982  0.9072605000000001  0.5117226948451359  1.0000
  As  As10      1.0  0.7905142199999999  0.39575347999999994  0.4479664594464057  1.0000
  As  As11      1.0  0.45718089000000006  0.39575347999999994  0.4755443064453286  1.0000
  As  As12      1.0  0.12791133999999998  0.39487906999999994  0.5037584504384707  1.0000
  As  As13      1.0  0.7940200599999999  0.60856126  0.5119796982963281  1.0000
  As  As14      1.0  0.45718089000000006  0.62926046  0.45622544703330487  1.0000
  As  As15      1.0  0.12384754999999997  0.62926046  0.4838032907228864  1.0000
  As  As16      1.0  0.6248077399999998  0.13257908999999996  0.5033127251766795  1.0000
  As  As17      1.0  0.29051422  0.12926045999999997  0.4479664594464057  1.0000
  As  As18      1.0  0.95718089  0.12926045999999997  0.4755443064453287  1.0000
  As  As19      1.0  0.046011889999999965  0.39575347999999994  0.44887614444096513  1.0000
  As  As20      1.0  0.71267856  0.39575347999999994  0.4764539881305467  1.0000
  As  As21      1.0  0.38764851999999994  0.42284221999999994  0.5039046141189858  1.0000
  As  As22      1.0  0.7016832099999999  0.89575348  0.45531576203874546  1.0000
  As  As23      1.0  0.36834987999999996  0.89575348  0.48289360903766837  1.0000
  As  As24      1.0  0.04281910999999997  0.8703198300000001  0.5116093896151344  1.0000
  Pd  Pd1       1.0  0.6260385599999998  0.5155851300000001  0.49387861032352215  1.0000
  Pd  Pd2       1.0  0.30019695999999996  0.52675092  0.5203683822810596  1.0000
  Pd  Pd3       1.0  0.95718089  0.51250697  0.46588487508464604  1.0000
  Pd  Pd4       1.0  0.7926573699999999  0.9907539800000001  0.5179136948627686  1.0000
  Pd  Pd5       1.0  0.45718089000000006  0.012506969999999958  0.46588487508464604  1.0000
  Pd  Pd6       1.0  0.12626534999999997  0.009246019999999959  0.49404274041836277  1.0000
  Pd  Pd7       1.0  0.9534492099999999  0.5084047999999999  0.5062243697613887  1.0000
  Pd  Pd8       1.0  0.6238475499999999  0.51250697  0.45209595489452603  1.0000
  Pd  Pd9       1.0  0.29051422  0.51250697  0.4796737985841076  1.0000
  Pd  Pd10      1.0  0.7905142199999999  0.012506969999999958  0.4796737985841075  1.0000
  Pd  Pd11      1.0  0.45233818  0.021544989999999962  0.5062273481686264  1.0000
  Pd  Pd12      1.0  0.12384754999999997  0.012506969999999958  0.452095954894526  1.0000
