data_image0
_chemical_formula_structural       CONa6Sn2
_chemical_formula_sum              "C1 O1 Na6 Sn2"
_cell_length_a       5.975959902873804
_cell_length_b       4.970526658382459
_cell_length_c       101.04461931
_cell_angle_alpha    94.59170179881038
_cell_angle_beta     92.56783102696424
_cell_angle_gamma    65.42545249128273

_space_group_name_H-M_alt    "P 1"
_space_group_IT_number       1

loop_
  _space_group_symop_operation_xyz
  'x, y, z'

loop_
  _atom_site_type_symbol
  _atom_site_label
  _atom_site_symmetry_multiplicity
  _atom_site_fract_x
  _atom_site_fract_y
  _atom_site_fract_z
  _atom_site_occupancy
  C   C1        1.0  0.03861486500000004  0.9111891549999999  0.5430081646605204  1.0000
  O   O1        1.0  0.06250927500000004  0.6926487950000001  0.5477568433467057  1.0000
  Na  Na1       1.0  0.386882755  0.639138345  0.5164272986178848  1.0000
  Na  Na2       1.0  0.16343738500000005  0.217986665  0.4961341184610594  1.0000
  Na  Na3       1.0  0.9613851349999999  0.357953645  0.5285537637180786  1.0000
  Na  Na4       1.0  0.9491516649999999  0.789415245  0.4741886375571769  1.0000
  Na  Na5       1.0  0.7348659550000001  0.360843815  0.45224315665329434  1.0000
  Na  Na6       1.0  0.556294525  0.5037009550000001  0.4851613795453018  1.0000
  Sn  Sn1       1.0  0.774111325  0.9248704750000001  0.5079327681056893  1.0000
  Sn  Sn2       1.0  0.342008805  0.07512952500000003  0.4632158955690519  1.0000
