data_image0
_chemical_formula_structural       COCa2In8Ir2Ca2In8Ir2
_chemical_formula_sum              "C1 O1 Ca4 In16 Ir4"
_cell_length_a       8.86661668
_cell_length_b       7.66056449
_cell_length_c       100.34040093
_cell_angle_alpha    90.0
_cell_angle_beta     90.0
_cell_angle_gamma    90.0

_space_group_name_H-M_alt    "P 1"
_space_group_IT_number       1

loop_
  _space_group_symop_operation_xyz
  'x, y, z'

loop_
  _atom_site_type_symbol
  _atom_site_label
  _atom_site_symmetry_multiplicity
  _atom_site_fract_x
  _atom_site_fract_y
  _atom_site_fract_z
  _atom_site_occupancy
  C   C1        1.0  0.40668901500000004  0.694516255  0.5360655077134444  1.0000
  O   O1        1.0  0.40622106500000005  0.6946311949999999  0.5478008067790241  1.0000
  Ca  Ca1       1.0  0.407563975  0.41265658499999996  0.4956006307180605  1.0000
  Ca  Ca2       1.0  0.9073928849999999  0.6006852349999999  0.4961108880630066  1.0000
  In  In1       1.0  0.154122235  0.0001287449999999875  0.4959294692767424  1.0000
  In  In2       1.0  0.721202135  0.304999225  0.5164376085111821  1.0000
  In  In3       1.0  0.40752234500000006  0.07999672499999998  0.5184121970930972  1.0000
  In  In4       1.0  0.660966875  0.999871255  0.4959309902215988  1.0000
  In  In5       1.0  0.907646675  0.9460036749999998  0.5223302992066515  1.0000
  In  In6       1.0  0.09381854500000002  0.304831525  0.5164392504059276  1.0000
  In  In7       1.0  0.214276075  0.698936425  0.5174273626205107  1.0000
  In  In8       1.0  0.600400705  0.699159805  0.5174836708414149  1.0000
  Ir  Ir1       1.0  0.4075511750000001  0.802977875  0.49548297671336805  1.0000
  Ir  Ir2       1.0  0.907637655  0.20367546499999997  0.49383185953880304  1.0000
  Ca  Ca3       1.0  0.407483635  0.4083636849999999  0.4521991932209759  1.0000
  Ca  Ca4       1.0  0.9074836350000002  0.604798745  0.4521991932209759  1.0000
  In  In9       1.0  0.15748363499999998  0.0065812149999999875  0.4521991932209759  1.0000
  In  In10      1.0  0.7226139450000001  0.32171496499999996  0.4737973872840876  1.0000
  In  In11      1.0  0.407483635  0.07389410499999997  0.4737973872840876  1.0000
  In  In12      1.0  0.6574836350000001  0.0065812149999999875  0.4521991932209759  1.0000
  In  In13      1.0  0.9074836350000002  0.939268325  0.4737973872840876  1.0000
  In  In14      1.0  0.092353325  0.32171496499999996  0.4737973872840876  1.0000
  In  In15      1.0  0.222613945  0.691447465  0.4737973872840876  1.0000
  In  In16      1.0  0.5923533249999999  0.691447465  0.4737973872840876  1.0000
  Ir  Ir3       1.0  0.407483635  0.8113942949999999  0.4521991932209759  1.0000
  Ir  Ir4       1.0  0.9074836350000002  0.20176813499999996  0.4521991932209759  1.0000
