data_image0
_chemical_formula_structural       COCu30Ge10
_chemical_formula_sum              "C1 O1 Cu30 Ge10"
_cell_length_a       10.137278660777284
_cell_length_b       9.748403634955801
_cell_length_c       103.19284652
_cell_angle_alpha    78.96436446393291
_cell_angle_beta     84.71274269427171
_cell_angle_gamma    41.79323756168622

_space_group_name_H-M_alt    "P 1"
_space_group_IT_number       1

loop_
  _space_group_symop_operation_xyz
  'x, y, z'

loop_
  _atom_site_type_symbol
  _atom_site_label
  _atom_site_symmetry_multiplicity
  _atom_site_fract_x
  _atom_site_fract_y
  _atom_site_fract_z
  _atom_site_occupancy
  C   C1        1.0  0.06037790999999986  0.438414795  0.5407629785099679  1.0000
  O   O1        1.0  0.12478746999999997  0.355872905  0.5516554129086415  1.0000
  Cu  Cu1       1.0  0.032663520000000015  0.450647005  0.48847778095850897  1.0000
  Cu  Cu2       1.0  0.8326635199999999  0.2506470050000003  0.47239486065958747  1.0000
  Cu  Cu3       1.0  0.63266352  0.050647004999999974  0.4563119403606659  1.0000
  Cu  Cu4       1.0  0.22347670000000003  0.6509797649999999  0.5057639256400899  1.0000
  Cu  Cu5       1.0  0.4251546299999999  0.8517069450000001  0.5187862372568701  1.0000
  Cu  Cu6       1.0  0.36733648  0.948637555  0.47518307292062595  1.0000
  Cu  Cu7       1.0  0.16733648000000012  0.7486375550000001  0.4591001526217045  1.0000
  Cu  Cu8       1.0  0.9811063399999997  0.5594379150000003  0.522699333995792  1.0000
  Cu  Cu9       1.0  0.5673364800000001  0.14863755499999998  0.4912659932195475  1.0000
  Cu  Cu10      1.0  0.7683241199999999  0.3491035450000003  0.5090020479467385  1.0000
  Cu  Cu11      1.0  0.7154136000000001  0.551021215  0.4831504261899333  1.0000
  Cu  Cu12      1.0  0.5154136  0.351021215  0.4670675058910118  1.0000
  Cu  Cu13      1.0  0.3154136  0.151021215  0.4509845855920903  1.0000
  Cu  Cu14      1.0  0.92144863  0.748336425  0.49886149328862345  1.0000
  Cu  Cu15      1.0  0.11581006000000002  0.949352995  0.5153770055445773  1.0000
  Cu  Cu16      1.0  0.01661518999999995  0.35022015500000003  0.46700308736204654  1.0000
  Cu  Cu17      1.0  0.8166151899999999  0.15022015500000013  0.450920167063125  1.0000
  Cu  Cu18      1.0  0.62234075  0.9490951750000002  0.51413203633399  1.0000
  Cu  Cu19      1.0  0.21661519000000007  0.5502201549999999  0.48308600766096804  1.0000
  Cu  Cu20      1.0  0.42209952000000006  0.7413340050000002  0.4983169609897266  1.0000
  Cu  Cu21      1.0  0.6845864  0.8482633450000001  0.48051042768920166  1.0000
  Cu  Cu22      1.0  0.4845864  0.648263345  0.4644275073902801  1.0000
  Cu  Cu23      1.0  0.2845864  0.4482633450000001  0.4483445870913586  1.0000
  Cu  Cu24      1.0  0.8776955899999999  0.05886573500000006  0.49661405635629996  1.0000
  Cu  Cu25      1.0  0.08878101000000002  0.247172085  0.512503582755211  1.0000
  Cu  Cu26      1.0  0.98338481  0.6490644050000003  0.46449192270266126  1.0000
  Cu  Cu27      1.0  0.7833848099999998  0.4490644050000003  0.4484090024037398  1.0000
  Cu  Cu28      1.0  0.5730486100000001  0.267912935  0.5131363716875403  1.0000
  Cu  Cu29      1.0  0.18338481000000018  0.849064405  0.4805748430015828  1.0000
  Cu  Cu30      1.0  0.38302407999999993  0.05088722500000001  0.4964653633249684  1.0000
  Ge  Ge1       1.0  0.6693986399999998  0.7455443150000003  0.45926598039632255  1.0000
  Ge  Ge2       1.0  0.4571378800000001  0.5654536250000002  0.5230393623133359  1.0000
  Ge  Ge3       1.0  0.27659287  0.33706819500000007  0.5083988355048392  1.0000
  Ge  Ge4       1.0  0.86939864  0.9455443150000001  0.47534890069524405  1.0000
  Ge  Ge5       1.0  0.06939864  0.14554431499999998  0.49143182099416566  1.0000
  Ge  Ge6       1.0  0.7393846200000003  0.638019235  0.5063540884004589  1.0000
  Ge  Ge7       1.0  0.5306013600000001  0.45374023500000005  0.48831195318389087  1.0000
  Ge  Ge8       1.0  0.3306013599999999  0.2537402350000001  0.4722290328849693  1.0000
  Ge  Ge9       1.0  0.9065461800000001  0.887597365  0.519782072382275  1.0000
  Ge  Ge10      1.0  0.13060136  0.053740235000000025  0.45614611258604787  1.0000
