data_image0
_chemical_formula_structural       CONi8Ge16Ni8Ge16
_chemical_formula_sum              "C1 O1 Ni16 Ge32"
_cell_length_a       5.86470354
_cell_length_b       11.03109209
_cell_length_c       105.2086859
_cell_angle_alpha    90.0
_cell_angle_beta     90.0
_cell_angle_gamma    90.0

_space_group_name_H-M_alt    "P 1"
_space_group_IT_number       1

loop_
  _space_group_symop_operation_xyz
  'x, y, z'

loop_
  _atom_site_type_symbol
  _atom_site_label
  _atom_site_symmetry_multiplicity
  _atom_site_fract_x
  _atom_site_fract_y
  _atom_site_fract_z
  _atom_site_occupancy
  C   C1        1.0  0.19924674000000003  0.948793715  0.5495237703596644  1.0000
  O   O1        1.0  0.24063691000000004  0.9750570949999999  0.5600708461744529  1.0000
  Ni  Ni1       1.0  0.07833467000000002  0.6404519650000001  0.5043130108048811  1.0000
  Ni  Ni2       1.0  0.57833467  0.9094338449999999  0.5043130108048811  1.0000
  Ni  Ni3       1.0  0.10274949000000003  0.9076130450000001  0.5338366742201159  1.0000
  Ni  Ni4       1.0  0.5647179899999999  0.6404669850000001  0.530641110573134  1.0000
  Ni  Ni5       1.0  0.08278835  0.14074466500000005  0.5303950683596124  1.0000
  Ni  Ni6       1.0  0.57152613  0.40768133500000003  0.530588489311652  1.0000
  Ni  Ni7       1.0  0.07833467000000002  0.4094338450000001  0.5043130108048811  1.0000
  Ni  Ni8       1.0  0.57833467  0.14045196500000004  0.5043130108048811  1.0000
  Ge  Ge1       1.0  0.75163957  0.03357769500000003  0.5407116433713552  1.0000
  Ge  Ge2       1.0  0.21920828000000003  0.5196275350000001  0.5250441112037366  1.0000
  Ge  Ge3       1.0  0.88028399  0.5258484050000001  0.5415336715412138  1.0000
  Ge  Ge4       1.0  0.42166532999999995  0.5249429050000001  0.49570510410788937  1.0000
  Ge  Ge5       1.0  0.8369521600000001  0.7771697450000001  0.5190064506013897  1.0000
  Ge  Ge6       1.0  0.24259939000000003  0.706708655  0.5438815422730875  1.0000
  Ge  Ge7       1.0  0.32862739  0.7748896750000002  0.517252372855384  1.0000
  Ge  Ge8       1.0  0.77744092  0.7764948550000002  0.5457603127310505  1.0000
  Ge  Ge9       1.0  0.73500401  0.5249429050000001  0.512920917501873  1.0000
  Ge  Ge10      1.0  0.23500401000000004  0.024942905000000033  0.49570510410788937  1.0000
  Ge  Ge11      1.0  0.92166533  0.024942905000000033  0.512920917501873  1.0000
  Ge  Ge12      1.0  0.4322662699999999  0.026078335000000036  0.5240333807271378  1.0000
  Ge  Ge13      1.0  0.8296308499999999  0.27352111500000004  0.5460088247036013  1.0000
  Ge  Ge14      1.0  0.32860426000000004  0.27500193500000003  0.5172531325238117  1.0000
  Ge  Ge15      1.0  0.33136595  0.274463485  0.5429815928712048  1.0000
  Ge  Ge16      1.0  0.82659355  0.275459255  0.5182404806070007  1.0000
  Ni  Ni9       1.0  0.07833467000000002  0.6404519650000001  0.448537060522539  1.0000
  Ni  Ni10      1.0  0.57833467  0.9094338449999999  0.448537060522539  1.0000
  Ni  Ni11      1.0  0.07833467000000002  0.9094338449999999  0.47642503733698854  1.0000
  Ni  Ni12      1.0  0.57833467  0.6404519650000001  0.47642503733698854  1.0000
  Ni  Ni13      1.0  0.07833467000000002  0.14045196500000004  0.47642503733698854  1.0000
  Ni  Ni14      1.0  0.57833467  0.4094338450000001  0.47642503733698854  1.0000
  Ni  Ni15      1.0  0.07833467000000002  0.4094338450000001  0.448537060522539  1.0000
  Ni  Ni16      1.0  0.57833467  0.14045196500000004  0.448537060522539  1.0000
  Ge  Ge17      1.0  0.73500401  0.024942905000000033  0.4850329406874233  1.0000
  Ge  Ge18      1.0  0.23500401000000004  0.5249429050000001  0.4678171306399968  1.0000
  Ge  Ge19      1.0  0.92166533  0.5249429050000001  0.4850329406874233  1.0000
  Ge  Ge20      1.0  0.42166532999999995  0.5249429050000001  0.4399291538255472  1.0000
  Ge  Ge21      1.0  0.82833467  0.7749429050000001  0.4623520692783535  1.0000
  Ge  Ge22      1.0  0.32833467  0.7749429050000001  0.49049800204906663  1.0000
  Ge  Ge23      1.0  0.32833467  0.7749429050000001  0.46261002858117406  1.0000
  Ge  Ge24      1.0  0.82833467  0.7749429050000001  0.49024004274624605  1.0000
  Ge  Ge25      1.0  0.73500401  0.5249429050000001  0.45714496721953074  1.0000
  Ge  Ge26      1.0  0.23500401000000004  0.024942905000000033  0.4399291538255472  1.0000
  Ge  Ge27      1.0  0.92166533  0.024942905000000033  0.45714496721953074  1.0000
  Ge  Ge28      1.0  0.42166532999999995  0.024942905000000033  0.4678171306399968  1.0000
  Ge  Ge29      1.0  0.82833467  0.274942905  0.49024004274624605  1.0000
  Ge  Ge30      1.0  0.32833467  0.274942905  0.46261002858117406  1.0000
  Ge  Ge31      1.0  0.32833467  0.274942905  0.49049800204906663  1.0000
  Ge  Ge32      1.0  0.82833467  0.274942905  0.4623520692783535  1.0000
