data_image0
_chemical_formula_structural       Fe6Re2Fe6Re2CO
_chemical_formula_sum              "Fe12 Re4 C1 O1"
_cell_length_a       5.09447513
_cell_length_b       5.094475131176687
_cell_length_c       98.41774187
_cell_angle_alpha    90.0
_cell_angle_beta     90.0
_cell_angle_gamma    120.00000005729204

_space_group_name_H-M_alt    "P 1"
_space_group_IT_number       1

loop_
  _space_group_symop_operation_xyz
  'x, y, z'

loop_
  _atom_site_type_symbol
  _atom_site_label
  _atom_site_symmetry_multiplicity
  _atom_site_fract_x
  _atom_site_fract_y
  _atom_site_fract_z
  _atom_site_occupancy
  Fe  Fe1       1.0  0.32096586499999985  0.324120965  0.4554572441575514  1.0000
  Fe  Fe2       1.0  0.833239795  0.8363948950000001  0.4554572441575514  1.0000
  Fe  Fe3       1.0  0.32096586499999985  0.8363948950000001  0.4554572441575514  1.0000
  Fe  Fe4       1.0  0.995815145  0.6738195450000001  0.476081967158049  1.0000
  Fe  Fe5       1.0  0.48354121499999986  0.161545615  0.476081967158049  1.0000
  Fe  Fe6       1.0  0.9958151449999998  0.161545615  0.476081967158049  1.0000
  Re  Re1       1.0  0.4917238349999998  0.665636925  0.476081967158049  1.0000
  Re  Re2       1.0  0.8250571749999999  0.332303585  0.4554572441575514  1.0000
  Fe  Fe7       1.0  0.3243718449999998  0.32804823499999997  0.49707945274712917  1.0000
  Fe  Fe8       1.0  0.8373953049999997  0.838454385  0.4966741917818647  1.0000
  Fe  Fe9       1.0  0.3243222449999998  0.8358854450000001  0.49708181180299316  1.0000
  Fe  Fe10      1.0  0.001504534999999807  0.6745645250000001  0.5176940811829995  1.0000
  Fe  Fe11      1.0  0.49852881499999985  0.169113475  0.5171351235413781  1.0000
  Fe  Fe12      1.0  0.0014168849999995903  0.16656188500000002  0.5176933217806835  1.0000
  Re  Re3       1.0  0.5022623349999998  0.6709892049999999  0.5165720397175906  1.0000
  Re  Re4       1.0  0.8294679649999999  0.334486595  0.497354769292508  1.0000
  C   C1        1.0  0.0006394249999998446  0.419495115  0.5323861973674777  1.0000
  O   O1        1.0  0.9984954649999999  0.419444305  0.5445427558424486  1.0000
