data_image0
_chemical_formula_structural       COMn4Sb4Mn4Sb4
_chemical_formula_sum              "C1 O1 Mn8 Sb8"
_cell_length_a       6.663797430189663
_cell_length_b       6.80973004
_cell_length_c       101.45279576
_cell_angle_alpha    90.0
_cell_angle_beta     72.84264720514058
_cell_angle_gamma    59.27289327077941

_space_group_name_H-M_alt    "P 1"
_space_group_IT_number       1

loop_
  _space_group_symop_operation_xyz
  'x, y, z'

loop_
  _atom_site_type_symbol
  _atom_site_label
  _atom_site_symmetry_multiplicity
  _atom_site_fract_x
  _atom_site_fract_y
  _atom_site_fract_z
  _atom_site_occupancy
  C   C1        1.0  0.90236837  0.99365315  0.5333021472483443  1.0000
  O   O1        1.0  0.88298486  0.92917852  0.5443322472941979  1.0000
  Mn  Mn1       1.0  0.09763162999999997  0.51342065  0.4944207455686177  1.0000
  Mn  Mn2       1.0  0.12011649999999996  0.99817311  0.5156140350095048  1.0000
  Mn  Mn3       1.0  0.69807018  0.20123051000000003  0.5229518243011355  1.0000
  Mn  Mn4       1.0  0.61358424  0.7592378  0.5044903108331341  1.0000
  Sb  Sb1       1.0  0.37542544999999994  0.5293208899999999  0.5098291587481122  1.0000
  Sb  Sb2       1.0  0.3795363399999999  0.07082147999999999  0.5269821510600655  1.0000
  Sb  Sb3       1.0  0.86964735  0.9636715699999999  0.4985976795499069  1.0000
  Sb  Sb4       1.0  0.86109594  0.47467521999999995  0.519082155049657  1.0000
  Mn  Mn5       1.0  0.09763162999999997  0.51342065  0.45566775270580184  1.0000
  Mn  Mn6       1.0  0.09763162999999997  0.013420650000000034  0.47504424913720983  1.0000
  Mn  Mn7       1.0  0.5976316299999999  0.2634206500000001  0.48473249735291374  1.0000
  Mn  Mn8       1.0  0.5976316299999999  0.7634206499999999  0.4653560009215058  1.0000
  Sb  Sb5       1.0  0.34763163  0.5550873199999999  0.47020012502935776  1.0000
  Sb  Sb6       1.0  0.34763163  0.05508731999999994  0.4895766214607657  1.0000
  Sb  Sb7       1.0  0.8476316299999999  0.9717539799999999  0.4605118768136538  1.0000
  Sb  Sb8       1.0  0.8476316299999999  0.4717539800000001  0.4798883732450618  1.0000
