data_image0
_chemical_formula_structural       COCa12Al4As12Ca12Al4As12
_chemical_formula_sum              "C1 O1 Ca24 Al8 As24"
_cell_length_a       12.42989394
_cell_length_b       14.272828044526062
_cell_length_c       99.83253217000001
_cell_angle_alpha    107.37321499517616
_cell_angle_beta     90.0
_cell_angle_gamma    90.0

_space_group_name_H-M_alt    "P 1"
_space_group_IT_number       1

loop_
  _space_group_symop_operation_xyz
  'x, y, z'

loop_
  _atom_site_type_symbol
  _atom_site_label
  _atom_site_symmetry_multiplicity
  _atom_site_fract_x
  _atom_site_fract_y
  _atom_site_fract_z
  _atom_site_occupancy
  C   C1        1.0  0.852477285  0.08338897999999999  0.5446739459121508  1.0000
  O   O1        1.0  0.8118128549999999  0.06727081999999998  0.554169630446035  1.0000
  Ca  Ca1       1.0  0.36315521500000003  0.9992503600000001  0.4548758760706048  1.0000
  Ca  Ca2       1.0  0.863155215  0.5007496400000001  0.47628457818394104  1.0000
  Ca  Ca3       1.0  0.658119515  0.0007496399999999774  0.47628457818394115  1.0000
  Ca  Ca4       1.0  0.738549725  0.28735916  0.4458303695539652  1.0000
  Ca  Ca5       1.0  0.944685045  0.10726972999999998  0.48083185457814975  1.0000
  Ca  Ca6       1.0  0.07658968499999999  0.89273027  0.4503285996763962  1.0000
  Ca  Ca7       1.0  0.444685045  0.39273027000000005  0.4503285996763962  1.0000
  Ca  Ca8       1.0  0.576589685  0.60726973  0.48083185457814975  1.0000
  Ca  Ca9       1.0  0.782725005  0.7873591600000001  0.4458303695539652  1.0000
  Ca  Ca10      1.0  0.23854972500000002  0.21264083999999997  0.48533008470058064  1.0000
  Ca  Ca11      1.0  0.28272500500000003  0.7126408400000002  0.48533008470058076  1.0000
  Ca  Ca12      1.0  0.15811951500000002  0.49925036  0.4548758760706048  1.0000
  Al  Al1       1.0  0.449796255  0.79755029  0.4676101206236386  1.0000
  Al  Al2       1.0  0.571478475  0.20244970999999998  0.4635503336309073  1.0000
  Al  Al3       1.0  0.07147847499999999  0.29755029  0.4676101206236386  1.0000
  Al  Al4       1.0  0.949796255  0.70244971  0.46355033363090736  1.0000
  As  As1       1.0  0.969286045  0.3513067000000001  0.4485602504370871  1.0000
  As  As2       1.0  0.05198868499999998  0.6486933000000001  0.48260020082920124  1.0000
  As  As3       1.0  0.46928604499999993  0.14869329999999997  0.48260020082920124  1.0000
  As  As4       1.0  0.551988685  0.8513067000000001  0.4485602504370871  1.0000
  As  As5       1.0  0.906847135  0.88551716  0.4713653712974072  1.0000
  As  As6       1.0  0.11442759499999998  0.11448283999999999  0.45979507996888114  1.0000
  As  As7       1.0  0.40684713499999997  0.61448284  0.45979507996888114  1.0000
  As  As8       1.0  0.614427595  0.3855171600000001  0.4713653712974072  1.0000
  As  As9       1.0  0.7633817849999999  0.62451665  0.46022341979967885  1.0000
  As  As10      1.0  0.25789294500000004  0.37548335  0.4709370344548671  1.0000
  As  As11      1.0  0.26338178500000003  0.8754833500000001  0.47093703445486707  1.0000
  As  As12      1.0  0.757892945  0.12451664999999999  0.46022341979967885  1.0000
  Ca  Ca13      1.0  0.375474225  0.007692299999999978  0.4975819677021565  1.0000
  Ca  Ca14      1.0  0.859587005  0.4938512400000001  0.5158468525031432  1.0000
  Ca  Ca15      1.0  0.659531905  0.9954977400000001  0.5156901871226225  1.0000
  Ca  Ca16      1.0  0.738549725  0.28735916  0.48851976280212  1.0000
  Ca  Ca17      1.0  0.934596405  0.10043444  0.5209854214026337  1.0000
  Ca  Ca18      1.0  0.07658968499999999  0.89273027  0.49301799292455095  1.0000
  Ca  Ca19      1.0  0.444685045  0.39273027000000005  0.49301799292455095  1.0000
  Ca  Ca20      1.0  0.584708405  0.59887063  0.5207905929844675  1.0000
  Ca  Ca21      1.0  0.782725005  0.7873591600000001  0.48851976280212  1.0000
  Ca  Ca22      1.0  0.296279165  0.24039598  0.5253935794648732  1.0000
  Ca  Ca23      1.0  0.22292308500000002  0.7403022400000001  0.5252838954701374  1.0000
  Ca  Ca24      1.0  0.144582095  0.5075090400000001  0.4976543851365232  1.0000
  Al  Al5       1.0  0.43383765499999993  0.8077096500000001  0.508935589437812  1.0000
  Al  Al6       1.0  0.600446465  0.22342417  0.5129555608864522  1.0000
  Al  Al7       1.0  0.08758371499999998  0.3072582300000001  0.5089376274294864  1.0000
  Al  Al8       1.0  0.918172315  0.7229003  0.5134567574254819  1.0000
  As  As13      1.0  0.969286045  0.3513067000000001  0.49124964667349946  1.0000
  As  As14      1.0  0.03071395499999999  0.6351455600000001  0.5252877592871975  1.0000
  As  As15      1.0  0.488641935  0.13530597  0.5249043897448288  1.0000
  As  As16      1.0  0.551988685  0.8513067000000001  0.49124964667349946  1.0000
  As  As17      1.0  0.8910206749999999  0.8987862200000001  0.5154779431392386  1.0000
  As  As18      1.0  0.121567255  0.13079427  0.506121511408915  1.0000
  As  As19      1.0  0.399572275  0.6312257200000001  0.5062145866679816  1.0000
  As  As20      1.0  0.630268005  0.39845268  0.5150933633525471  1.0000
  As  As21      1.0  0.753874525  0.6285222000000001  0.5029178960739893  1.0000
  As  As22      1.0  0.252304065  0.39819351000000003  0.5145686133672155  1.0000
  As  As23      1.0  0.26832854500000003  0.8976886700000001  0.5144341626935975  1.0000
  As  As24      1.0  0.7662308749999999  0.12858915  0.5027386394661099  1.0000
