data_image0
_chemical_formula_structural       COCa12Si24Ca12Si24
_chemical_formula_sum              "C1 O1 Ca24 Si48"
_cell_length_a       14.345448256938347
_cell_length_b       9.636888769715858
_cell_length_c       106.56942166
_cell_angle_alpha    108.43494884172323
_cell_angle_beta     77.73500825996697
_cell_angle_gamma    82.27869560668896

_space_group_name_H-M_alt    "P 1"
_space_group_IT_number       1

loop_
  _space_group_symop_operation_xyz
  'x, y, z'

loop_
  _atom_site_type_symbol
  _atom_site_label
  _atom_site_symmetry_multiplicity
  _atom_site_fract_x
  _atom_site_fract_y
  _atom_site_fract_z
  _atom_site_occupancy
  C   C1        1.0  0.65906684  0.4376660500000002  0.5587715711212357  1.0000
  O   O1        1.0  0.67126646  0.4189652000000001  0.5685477523399624  1.0000
  Ca  Ca1       1.0  0.87718884  0.8750000000000002  0.49817608462040586  1.0000
  Ca  Ca2       1.0  0.88173537  0.1972608600000001  0.5358726440622167  1.0000
  Ca  Ca3       1.0  0.8815934600000002  0.52673705  0.5141472940023881  1.0000
  Ca  Ca4       1.0  0.62718884  0.1250000000000001  0.4981760846204058  1.0000
  Ca  Ca5       1.0  0.63482978  0.46573551  0.5356998399963534  1.0000
  Ca  Ca6       1.0  0.6271084399999999  0.7931022400000002  0.517866500204802  1.0000
  Ca  Ca7       1.0  0.37768447000000005  0.3761357600000001  0.5267644203206842  1.0000
  Ca  Ca8       1.0  0.37718884  0.7083333300000001  0.5077080623094617  1.0000
  Ca  Ca9       1.0  0.37718884  0.04166667000000007  0.4886441069313499  1.0000
  Ca  Ca10      1.0  0.12718884000000003  0.2916666700000001  0.48864410693134985  1.0000
  Ca  Ca11      1.0  0.11798503000000002  0.62091817  0.5271927244527133  1.0000
  Ca  Ca12      1.0  0.12718884000000003  0.9583333300000002  0.5077080623094617  1.0000
  Si  Si1       1.0  0.96198524  0.18006787000000016  0.5044749537590195  1.0000
  Si  Si2       1.0  0.90403207  0.52063128  0.5412126355937696  1.0000
  Si  Si3       1.0  0.96352371  0.8487807000000002  0.5229477557546621  1.0000
  Si  Si4       1.0  0.7108132799999999  0.09520833000000006  0.5250168818126091  1.0000
  Si  Si5       1.0  0.71198524  0.4300678700000001  0.5044749537590196  1.0000
  Si  Si6       1.0  0.76931677  0.7104888900000002  0.5427680094470066  1.0000
  Si  Si7       1.0  0.79239245  0.2365988000000001  0.5109411708599039  1.0000
  Si  Si8       1.0  0.79239245  0.5699321300000001  0.49187721548179203  1.0000
  Si  Si9       1.0  0.79364439  0.89254568  0.5315300488564842  1.0000
  Si  Si10      1.0  0.5399977  0.15881789000000004  0.5297635786983959  1.0000
  Si  Si11      1.0  0.54239245  0.4865988  0.5109411708599039  1.0000
  Si  Si12      1.0  0.54239245  0.8199321300000002  0.4918772154817921  1.0000
  Si  Si13      1.0  0.4619852400000001  0.013401200000000078  0.5140069280165639  1.0000
  Si  Si14      1.0  0.4619852400000001  0.34673453000000004  0.4949429760699636  1.0000
  Si  Si15      1.0  0.4607722900000001  0.67939179  0.532301373760423  1.0000
  Si  Si16      1.0  0.21198524000000005  0.2634012  0.5140069280165639  1.0000
  Si  Si17      1.0  0.21198524000000005  0.5967345300000002  0.49494297606996374  1.0000
  Si  Si18      1.0  0.21156723  0.9203043200000001  0.5322566886151497  1.0000
  Si  Si19      1.0  0.29049225  0.0812700800000001  0.5223085234618545  1.0000
  Si  Si20      1.0  0.29239245  0.40326546000000013  0.501409193170848  1.0000
  Si  Si21      1.0  0.28911938000000004  0.7199306000000002  0.5368929766121969  1.0000
  Si  Si22      1.0  0.03891877000000002  0.9788919700000001  0.5390198035392707  1.0000
  Si  Si23      1.0  0.036476290000000015  0.32753341000000014  0.5215485911767385  1.0000
  Si  Si24      1.0  0.04239245000000001  0.6532654600000001  0.501409193170848  1.0000
  Ca  Ca13      1.0  0.87718884  0.8750000000000002  0.4409842219175819  1.0000
  Ca  Ca14      1.0  0.87718884  0.20833333000000004  0.47911213267380565  1.0000
  Ca  Ca15      1.0  0.87718884  0.5416666700000001  0.4600481772956938  1.0000
  Ca  Ca16      1.0  0.62718884  0.1250000000000001  0.44098422191758185  1.0000
  Ca  Ca17      1.0  0.62718884  0.45833333000000015  0.47911213267380565  1.0000
  Ca  Ca18      1.0  0.62718884  0.7916666700000002  0.46004817729569375  1.0000
  Ca  Ca19      1.0  0.37718884  0.3750000000000001  0.46958015498474975  1.0000
  Ca  Ca20      1.0  0.37718884  0.7083333300000001  0.45051619960663786  1.0000
  Ca  Ca21      1.0  0.37718884  0.04166667000000007  0.4314522476600377  1.0000
  Ca  Ca22      1.0  0.12718884000000003  0.2916666700000001  0.4314522476600376  1.0000
  Ca  Ca23      1.0  0.12718884000000003  0.6250000000000002  0.46958015498474975  1.0000
  Ca  Ca24      1.0  0.12718884000000003  0.9583333300000002  0.45051619960663775  1.0000
  Si  Si25      1.0  0.96198524  0.18006787000000016  0.4472830910561956  1.0000
  Si  Si26      1.0  0.96198524  0.5134012000000002  0.4854109983809078  1.0000
  Si  Si27      1.0  0.96198524  0.8467345300000003  0.4663470464343075  1.0000
  Si  Si28      1.0  0.71198524  0.09673453000000005  0.4663470464343076  1.0000
  Si  Si29      1.0  0.71198524  0.4300678700000001  0.44728309105619574  1.0000
  Si  Si30      1.0  0.71198524  0.7634012000000002  0.48541099838090773  1.0000
  Si  Si31      1.0  0.79239245  0.2365988000000001  0.45374930815708  1.0000
  Si  Si32      1.0  0.79239245  0.5699321300000001  0.43468535621047977  1.0000
  Si  Si33      1.0  0.79239245  0.9032654600000002  0.4728132635351919  1.0000
  Si  Si34      1.0  0.54239245  0.15326546000000005  0.4728132635351919  1.0000
  Si  Si35      1.0  0.54239245  0.4865988  0.45374930815708  1.0000
  Si  Si36      1.0  0.54239245  0.8199321300000002  0.4346853562104798  1.0000
  Si  Si37      1.0  0.4619852400000001  0.013401200000000078  0.4568150687452517  1.0000
  Si  Si38      1.0  0.4619852400000001  0.34673453000000004  0.4377511133671397  1.0000
  Si  Si39      1.0  0.4619852400000001  0.68006787  0.4758790206918518  1.0000
  Si  Si40      1.0  0.21198524000000005  0.2634012  0.45681506874525163  1.0000
  Si  Si41      1.0  0.21198524000000005  0.5967345300000002  0.43775111336713984  1.0000
  Si  Si42      1.0  0.21198524000000005  0.9300678700000001  0.47587902069185184  1.0000
  Si  Si43      1.0  0.29239245  0.06993213000000009  0.46328128584613587  1.0000
  Si  Si44      1.0  0.29239245  0.40326546000000013  0.4442173338995357  1.0000
  Si  Si45      1.0  0.29239245  0.7365988000000001  0.4823452412242478  1.0000
  Si  Si46      1.0  0.04239245000000001  0.9865988000000001  0.4823452412242478  1.0000
  Si  Si47      1.0  0.04239245000000001  0.31993213000000004  0.4632812858461359  1.0000
  Si  Si48      1.0  0.04239245000000001  0.6532654600000001  0.4442173338995357  1.0000
