data_image0
_chemical_formula_structural       COAs2Au2Ca4
_chemical_formula_sum              "C1 O1 As2 Au2 Ca4"
_cell_length_a       5.21223
_cell_length_b       5.21223
_cell_length_c       99.48482544000001
_cell_angle_alpha    90.0
_cell_angle_beta     90.0
_cell_angle_gamma    90.0

_space_group_name_H-M_alt    "P 1"
_space_group_IT_number       1

loop_
  _space_group_symop_operation_xyz
  'x, y, z'

loop_
  _atom_site_type_symbol
  _atom_site_label
  _atom_site_symmetry_multiplicity
  _atom_site_fract_x
  _atom_site_fract_y
  _atom_site_fract_z
  _atom_site_occupancy
  C   C1        1.0  0.250172925  7.988500000002882e-05  0.5333544009107664  1.0000
  O   O1        1.0  0.249989125  0.999996025  0.5451069363238935  1.0000
  As  As1       1.0  0.750010875  0.5000063650000001  0.4548930636761065  1.0000
  As  As2       1.0  0.24999729499999998  1.9500000002882465e-07  0.4943038335163529  1.0000
  Au  Au1       1.0  0.250010875  6.365000000028825e-06  0.4548930636761065  1.0000
  Au  Au2       1.0  0.749993385  0.499996545  0.4945152171314475  1.0000
  Ca  Ca1       1.0  0.250010875  0.5000063650000001  0.47341650764708076  1.0000
  Ca  Ca2       1.0  0.750010875  6.365000000028825e-06  0.47341650764708076  1.0000
  Ca  Ca3       1.0  0.7499751349999999  0.999999805  0.5103293984772189  1.0000
  Ca  Ca4       1.0  0.24999735499999998  0.499988965  0.5103283048530869  1.0000
