data_image0
_chemical_formula_structural       COIr20Sn28
_chemical_formula_sum              "C1 O1 Ir20 Sn28"
_cell_length_a       6.979382213664843
_cell_length_b       10.909402624259313
_cell_length_c       110.35537933
_cell_angle_alpha    85.12775974201307
_cell_angle_beta     89.9467552698201
_cell_angle_gamma    77.61974886785622

_space_group_name_H-M_alt    "P 1"
_space_group_IT_number       1

loop_
  _space_group_symop_operation_xyz
  'x, y, z'

loop_
  _atom_site_type_symbol
  _atom_site_label
  _atom_site_symmetry_multiplicity
  _atom_site_fract_x
  _atom_site_fract_y
  _atom_site_fract_z
  _atom_site_occupancy
  C   C1        1.0  0.7570211300000002  0.64722488  0.5575324375371709  1.0000
  O   O1        1.0  0.7146901400000001  0.64027422  0.5678385344509753  1.0000
  Ir  Ir1       1.0  0.7450833400000001  0.34279092000000005  0.517776687360423  1.0000
  Ir  Ir2       1.0  0.32841667000000013  0.9261242500000002  0.4873028838775343  1.0000
  Ir  Ir3       1.0  0.9117500000000001  0.5094575800000001  0.4568290803946454  1.0000
  Ir  Ir4       1.0  0.15724258  0.7767046400000002  0.5454888876188607  1.0000
  Ir  Ir5       1.0  0.6842124  0.5254037500000001  0.49551705770949334  1.0000
  Ir  Ir6       1.0  0.26754573  0.10873708000000003  0.4650432542266046  1.0000
  Ir  Ir7       1.0  0.8508790600000001  0.69207041  0.4345694470868591  1.0000
  Ir  Ir8       1.0  0.09759269999999996  0.9514947300000001  0.5252988559404518  1.0000
  Ir  Ir9       1.0  0.40014800000000006  0.24133935000000004  0.5103568120290654  1.0000
  Ir  Ir10      1.0  0.9834813299999999  0.8246726800000002  0.47988300488931995  1.0000
  Ir  Ir11      1.0  0.56681466  0.40800601000000003  0.4494092014064312  1.0000
  Ir  Ir12      1.0  0.8348492599999999  0.6606827200000001  0.5414528954797745  1.0000
  Ir  Ir13      1.0  0.2023213  0.26034340000000006  0.5467677671533566  1.0000
  Ir  Ir14      1.0  0.7559437200000002  0.8406188400000001  0.5185709858610245  1.0000
  Ir  Ir15      1.0  0.33927705  0.42395216999999996  0.4880971823781356  1.0000
  Ir  Ir16      1.0  0.9226103900000002  0.007285510000000023  0.45762337523839025  1.0000
  Ir  Ir17      1.0  0.89697294  0.41566244  0.4321614655490247  1.0000
  Ir  Ir18      1.0  0.14687433000000003  0.6680660900000001  0.5236808943810384  1.0000
  Ir  Ir19      1.0  0.7303062800000001  0.24899578000000008  0.49310907617165883  1.0000
  Ir  Ir20      1.0  0.3136396100000001  0.8323291100000001  0.4626352726887701  1.0000
  Sn  Sn1       1.0  0.8498520000000002  0.5714496499999999  0.516692425732275  1.0000
  Sn  Sn2       1.0  0.4331853300000001  0.15478298000000001  0.48621862224938617  1.0000
  Sn  Sn3       1.0  0.016518670000000023  0.73811632  0.45574481876649736  1.0000
  Sn  Sn4       1.0  0.20223489000000003  0.00834794000000002  0.5487172666425953  1.0000
  Sn  Sn5       1.0  0.37403438  0.66661318  0.4818924914536381  1.0000
  Sn  Sn6       1.0  0.9573677100000002  0.24994651000000004  0.45141868797074935  1.0000
  Sn  Sn7       1.0  0.21270714999999998  0.51680839  0.5453922186155855  1.0000
  Sn  Sn8       1.0  0.7907010400000002  0.08327984000000002  0.512366294936527  1.0000
  Sn  Sn9       1.0  0.10011299999999997  0.8217106500000002  0.5036185893887046  1.0000
  Sn  Sn10      1.0  0.6834463300000001  0.40504397999999997  0.47314478590581593  1.0000
  Sn  Sn11      1.0  0.2667796600000001  0.9883773100000002  0.442670982422927  1.0000
  Sn  Sn12      1.0  0.5266662700000001  0.23315538000000008  0.5344218025108984  1.0000
  Sn  Sn13      1.0  0.4678307400000001  0.74583917  0.5311975667056511  1.0000
  Sn  Sn14      1.0  0.04096204000000005  0.33354084000000006  0.4992924585929566  1.0000
  Sn  Sn15      1.0  0.62429537  0.9168741700000002  0.4688186551100677  1.0000
  Sn  Sn16      1.0  0.20762870000000005  0.5002075  0.43834485162717896  1.0000
  Sn  Sn17      1.0  0.38910008000000007  0.9927144900000001  0.5109339627300267  1.0000
  Sn  Sn18      1.0  0.9724334099999999  0.5760478200000001  0.48046015924713786  1.0000
  Sn  Sn19      1.0  0.5557667400000001  0.15938115000000003  0.44998635576424906  1.0000
  Sn  Sn20      1.0  0.8294512900000002  0.39542229000000007  0.5423986317244134  1.0000
  Sn  Sn21      1.0  0.38099209999999994  0.49850590000000006  0.5113575291121473  1.0000
  Sn  Sn22      1.0  0.96432543  0.08183923000000001  0.4808837256292584  1.0000
  Sn  Sn23      1.0  0.5476587700000002  0.6651725700000001  0.4504099221463696  1.0000
  Sn  Sn24      1.0  0.7898590999999999  0.9256810400000002  0.5417514302791078  1.0000
  Sn  Sn25      1.0  0.10426328000000003  0.20366985000000004  0.5254169175546277  1.0000
  Sn  Sn26      1.0  0.68076674  0.7843811500000002  0.4956970628170105  1.0000
  Sn  Sn27      1.0  0.26410008  0.36771449000000006  0.46522325567726514  1.0000
  Sn  Sn28      1.0  0.8474334099999999  0.9510478200000001  0.4347494521943764  1.0000
