data_image0
_chemical_formula_structural       COAl2Mo6Al2Mo6
_chemical_formula_sum              "C1 O1 Al4 Mo12"
_cell_length_a       4.97402766
_cell_length_b       4.97402766
_cell_length_c       104.81819362
_cell_angle_alpha    90.0
_cell_angle_beta     90.0
_cell_angle_gamma    90.0

_space_group_name_H-M_alt    "P 1"
_space_group_IT_number       1

loop_
  _space_group_symop_operation_xyz
  'x, y, z'

loop_
  _atom_site_type_symbol
  _atom_site_label
  _atom_site_symmetry_multiplicity
  _atom_site_fract_x
  _atom_site_fract_y
  _atom_site_fract_z
  _atom_site_occupancy
  C   C1        1.0  0.62329558  0.6197099699999999  0.5438526363012584  1.0000
  O   O1        1.0  0.62329583  0.6197127699999999  0.5550899751068937  1.0000
  Al  Al1       1.0  0.12329526999999997  0.11971185  0.4805004192287013  1.0000
  Al  Al2       1.0  0.62329527  0.61971185  0.45677348745712454  1.0000
  Mo  Mo1       1.0  0.12329526999999997  0.61971185  0.4449100248931062  1.0000
  Mo  Mo2       1.0  0.12329526999999997  0.61971185  0.46863695334291294  1.0000
  Mo  Mo3       1.0  0.62329527  0.36971185  0.4805004192287013  1.0000
  Mo  Mo4       1.0  0.62329527  0.8697118500000001  0.4805004192287013  1.0000
  Mo  Mo5       1.0  0.87329527  0.11971185  0.45677348745712454  1.0000
  Mo  Mo6       1.0  0.37329527  0.11971185  0.45677348745712454  1.0000
  Al  Al3       1.0  0.12329531999999999  0.11971209  0.528270488706398  1.0000
  Al  Al4       1.0  0.6232951899999999  0.6197119099999999  0.5036851152227227  1.0000
  Mo  Mo7       1.0  0.12329526999999997  0.61971185  0.4923638817927196  1.0000
  Mo  Mo8       1.0  0.12329525999999998  0.6197119  0.5166588295992051  1.0000
  Mo  Mo9       1.0  0.62329532  0.35913669  0.5262795692184348  1.0000
  Mo  Mo10      1.0  0.6232953  0.88028816  0.5262795592531248  1.0000
  Mo  Mo11      1.0  0.8767047400000001  0.11971184  0.5039854630270502  1.0000
  Mo  Mo12      1.0  0.3698858299999999  0.11971185  0.5039854630270502  1.0000
