data_image0
_chemical_formula_structural       COAl12Cu6
_chemical_formula_sum              "C1 O1 Al12 Cu6"
_cell_length_a       5.82956009
_cell_length_b       7.139723830472113
_cell_length_c       101.39314186
_cell_angle_alpha    94.34775317743166
_cell_angle_beta     90.0
_cell_angle_gamma    114.0948425681598

_space_group_name_H-M_alt    "P 1"
_space_group_IT_number       1

loop_
  _space_group_symop_operation_xyz
  'x, y, z'

loop_
  _atom_site_type_symbol
  _atom_site_label
  _atom_site_symmetry_multiplicity
  _atom_site_fract_x
  _atom_site_fract_y
  _atom_site_fract_z
  _atom_site_occupancy
  C   C1        1.0  0.8148612350000001  0.03288321000000001  0.5302838573923636  1.0000
  O   O1        1.0  0.8477964349999999  0.02852797  0.5418966718762667  1.0000
  Al  Al1       1.0  0.5018598450000001  0.51201291  0.5222737424828581  1.0000
  Al  Al2       1.0  0.08741042500000003  0.67980536  0.4968055782021294  1.0000
  Al  Al3       1.0  0.6707437650000001  0.84647203  0.4710040791819254  1.0000
  Al  Al4       1.0  0.17074376500000013  0.84647203  0.4710040791819254  1.0000
  Al  Al5       1.0  0.03758957500000007  0.54061665  0.5224896205376154  1.0000
  Al  Al6       1.0  0.5874104250000001  0.67980536  0.4968055782021294  1.0000
  Al  Al7       1.0  0.9624104250000001  0.4298053600000001  0.45810332812373333  1.0000
  Al  Al8       1.0  0.803612275  0.09764032000000002  0.5092656747294687  1.0000
  Al  Al9       1.0  0.37907709500000003  0.26313869999999995  0.4839048271439374  1.0000
  Al  Al10      1.0  0.879077095  0.26313869999999995  0.4839048271439374  1.0000
  Al  Al11      1.0  0.46241042500000007  0.4298053600000001  0.45810332812373333  1.0000
  Al  Al12      1.0  0.29900580500000007  0.09674924  0.5097351330229197  1.0000
  Cu  Cu1       1.0  0.1908276650000001  0.3872548300000001  0.5028843981976628  1.0000
  Cu  Cu2       1.0  0.7749104250000001  0.5548053600000001  0.47745445316293134  1.0000
  Cu  Cu3       1.0  0.6402154750000001  0.24358659000000005  0.5276204738120885  1.0000
  Cu  Cu4       1.0  0.4832437650000001  0.97147203  0.4903552042211234  1.0000
  Cu  Cu5       1.0  0.06657709500000003  0.1381387  0.4645537021047394  1.0000
  Cu  Cu6       1.0  0.8976028049999999  0.81302821  0.5167892435280687  1.0000
