data_image0
_chemical_formula_structural       COCa8As4
_chemical_formula_sum              "C1 O1 Ca8 As4"
_cell_length_a       4.63297104
_cell_length_b       4.63297104
_cell_length_c       118.25944822
_cell_angle_alpha    90.0
_cell_angle_beta     90.0
_cell_angle_gamma    90.0

_space_group_name_H-M_alt    "P 1"
_space_group_IT_number       1

loop_
  _space_group_symop_operation_xyz
  'x, y, z'

loop_
  _atom_site_type_symbol
  _atom_site_label
  _atom_site_symmetry_multiplicity
  _atom_site_fract_x
  _atom_site_fract_y
  _atom_site_fract_z
  _atom_site_occupancy
  C   C1        1.0  0.749997255  0.24999923000000002  0.5610062871708749  1.0000
  O   O1        1.0  0.749997215  0.24999801000000002  0.5713782769065898  1.0000
  Ca  Ca1       1.0  0.24999966499999998  0.24999983000000003  0.5149160995252257  1.0000
  Ca  Ca2       1.0  0.7499996649999999  0.74999983  0.5149160995252257  1.0000
  Ca  Ca3       1.0  0.24999966499999998  0.74999983  0.4712808218035168  1.0000
  Ca  Ca4       1.0  0.7499996649999999  0.24999983000000003  0.4905378556896392  1.0000
  Ca  Ca5       1.0  0.7499996649999999  0.74999983  0.44690257796793026  1.0000
  Ca  Ca6       1.0  0.24999966499999998  0.24999983000000003  0.44690257796793026  1.0000
  Ca  Ca7       1.0  0.750000335  0.25000071  0.5399882730649488  1.0000
  Ca  Ca8       1.0  0.250001835  0.75000199  0.5572716348509072  1.0000
  As  As1       1.0  0.24999966499999998  0.74999983  0.4966352446507056  1.0000
  As  As2       1.0  0.7499996649999999  0.24999983000000003  0.4651834328424504  1.0000
  As  As3       1.0  0.7499996649999999  0.24999983000000003  0.4286217230934102  1.0000
  As  As4       1.0  0.250000075  0.74999929  0.5328678777836245  1.0000
