data_image0
_chemical_formula_structural       COCa18As18
_chemical_formula_sum              "C1 O1 Ca18 As18"
_cell_length_a       9.994507726451543
_cell_length_b       13.8624792
_cell_length_c       109.9780309
_cell_angle_alpha    90.0
_cell_angle_beta     92.18361468887619
_cell_angle_gamma    46.09180735242665

_space_group_name_H-M_alt    "P 1"
_space_group_IT_number       1

loop_
  _space_group_symop_operation_xyz
  'x, y, z'

loop_
  _atom_site_type_symbol
  _atom_site_label
  _atom_site_symmetry_multiplicity
  _atom_site_fract_x
  _atom_site_fract_y
  _atom_site_fract_z
  _atom_site_occupancy
  C   C1        1.0  0.71442954  0.5567611199999999  0.5424456185652415  1.0000
  O   O1        1.0  0.62886153  0.63081235  0.550301507720715  1.0000
  Ca  Ca1       1.0  0.5644579000000001  0.07439220999999997  0.49405229809599455  1.0000
  Ca  Ca2       1.0  0.8924431200000001  0.40783049999999993  0.5236759423299218  1.0000
  Ca  Ca3       1.0  0.23112457  0.7410588800000001  0.4637598622842537  1.0000
  Ca  Ca4       1.0  0.21473264000000006  0.40772554999999994  0.462270208671374  1.0000
  Ca  Ca5       1.0  0.54806597  0.74105888  0.4925626444831148  1.0000
  Ca  Ca6       1.0  0.8685862300000001  0.08120055999999996  0.5221623698087684  1.0000
  Ca  Ca7       1.0  0.5644579000000001  0.39133360999999994  0.49405229809599455  1.0000
  Ca  Ca8       1.0  0.8960131400000001  0.7297539799999997  0.5231604426004216  1.0000
  Ca  Ca9       1.0  0.23112457  0.05800027999999997  0.4637598622842537  1.0000
  Ca  Ca10      1.0  0.78649746  0.79643177  0.468792000724873  1.0000
  Ca  Ca11      1.0  0.11983079  0.12976509999999997  0.49908444017170617  1.0000
  Ca  Ca12      1.0  0.39254428  0.5066318600000002  0.5275656439176138  1.0000
  Ca  Ca13      1.0  0.7706535300000001  0.12976509999999988  0.46735214787845974  1.0000
  Ca  Ca14      1.0  0.10398686000000001  0.46309843  0.49764458369020054  1.0000
  Ca  Ca15      1.0  0.36360496999999997  0.8321133299999998  0.5259023601142032  1.0000
  Ca  Ca16      1.0  0.78649746  0.4472545100000001  0.468792000724873  1.0000
  Ca  Ca17      1.0  0.11983079  0.78058784  0.49908444017170617  1.0000
  Ca  Ca18      1.0  0.38771813000000005  0.13611246999999996  0.5274007815700551  1.0000
  As  As1       1.0  0.8606924600000001  0.08474563999999993  0.49499319088352245  1.0000
  As  As2       1.0  0.17749274  0.42784542000000003  0.5272214479194812  1.0000
  As  As3       1.0  0.5273591200000001  0.7514123  0.4647007550717816  1.0000
  As  As4       1.0  0.14618427999999997  0.9419997199999999  0.4820208255076641  1.0000
  As  As5       1.0  0.46219619  0.2848399  0.5138285641445611  1.0000
  As  As6       1.0  0.8128509500000002  0.6086663899999999  0.4517283896959233  1.0000
  As  As7       1.0  0.48268574000000003  0.44041566  0.46673065248841966  1.0000
  As  As8       1.0  0.8160190800000001  0.7737489899999999  0.49702308830016045  1.0000
  As  As9       1.0  0.10752587000000001  0.12666535999999998  0.5281164803807505  1.0000
  As  As10      1.0  0.8575243300000002  0.25299636999999997  0.44969849227928527  1.0000
  As  As11      1.0  0.19085766  0.5863297  0.479990928091026  1.0000
  As  As12      1.0  0.52150185  0.91820659  0.5110656248911828  1.0000
  As  As13      1.0  0.8575243300000002  0.9196630300000002  0.44969849227928527  1.0000
  As  As14      1.0  0.19085766  0.25299636999999997  0.479990928091026  1.0000
  As  As15      1.0  0.52182757  0.5903428599999999  0.510594055253854  1.0000
  As  As16      1.0  0.48268574000000003  0.10708233000000002  0.46673065248841966  1.0000
  As  As17      1.0  0.8160190800000001  0.44041565999999993  0.49702308830016045  1.0000
  As  As18      1.0  0.10501177  0.7970883600000002  0.5279841375701851  1.0000
