data_image0
_chemical_formula_structural       COTiAlTiAlTiAlTiAlTiAlTiAlTiAlTiAlTiAlTiAlTiAlTiAl
_chemical_formula_sum              "C1 O1 Ti12 Al12"
_cell_length_a       5.68059648
_cell_length_b       8.17603694
_cell_length_c       101.24328064
_cell_angle_alpha    90.0
_cell_angle_beta     90.0
_cell_angle_gamma    90.0

_space_group_name_H-M_alt    "P 1"
_space_group_IT_number       1

loop_
  _space_group_symop_operation_xyz
  'x, y, z'

loop_
  _atom_site_type_symbol
  _atom_site_label
  _atom_site_symmetry_multiplicity
  _atom_site_fract_x
  _atom_site_fract_y
  _atom_site_fract_z
  _atom_site_occupancy
  C   C1        1.0  0.37599825500000006  0.25364320999999995  0.5334337865318763  1.0000
  O   O1        1.0  0.37599823499999996  0.25364320999999995  0.5453015713240374  1.0000
  Ti  Ti1       1.0  0.37599831499999997  0.25364324999999993  0.45469842867596255  1.0000
  Al  Al1       1.0  0.12599831500000003  0.0036432499999999655  0.4687255220356874  1.0000
  Ti  Ti2       1.0  0.37599831499999997  0.25364324999999993  0.4827526184813732  1.0000
  Al  Al2       1.0  0.12615036500000004  0.004978819999999965  0.49685357122950496  1.0000
  Ti  Ti3       1.0  0.37599831499999997  0.2536432599999999  0.5130630499724744  1.0000
  Al  Al3       1.0  0.12400166500000004  0.99635675  0.5236456338825577  1.0000
  Ti  Ti4       1.0  0.37599831499999997  0.75364325  0.45469842867596255  1.0000
  Al  Al4       1.0  0.12599831500000003  0.50364325  0.4687255220356874  1.0000
  Ti  Ti5       1.0  0.37599831499999997  0.75364325  0.4827526184813732  1.0000
  Al  Al5       1.0  0.12615035500000005  0.50230766  0.4968535743154659  1.0000
  Ti  Ti6       1.0  0.3759983250000001  0.75364326  0.5108080303273039  1.0000
  Al  Al6       1.0  0.12400168500000004  0.51092974  0.5236456369685186  1.0000
  Ti  Ti7       1.0  0.8759983150000001  0.25364324999999993  0.45469842867596255  1.0000
  Al  Al7       1.0  0.625998315  0.0036432499999999655  0.4687255220356874  1.0000
  Ti  Ti8       1.0  0.8759983150000001  0.25364324999999993  0.4827526184813732  1.0000
  Al  Al8       1.0  0.625846285  0.004978819999999965  0.49685357122950496  1.0000
  Ti  Ti9       1.0  0.8759983150000001  0.25364324999999993  0.5108726565206698  1.0000
  Al  Al9       1.0  0.6279949949999999  0.99635675  0.5236456307965968  1.0000
  Ti  Ti10      1.0  0.8759983150000001  0.75364325  0.45469842867596255  1.0000
  Al  Al10      1.0  0.625998315  0.50364325  0.4687255220356874  1.0000
  Ti  Ti11      1.0  0.8759983150000001  0.75364325  0.4827526184813732  1.0000
  Al  Al11      1.0  0.625846285  0.50230766  0.4968535743154659  1.0000
  Ti  Ti12      1.0  0.875998335  0.75364326  0.5108808991222589  1.0000
  Al  Al12      1.0  0.6279949750000001  0.51092973  0.5236456338825577  1.0000
