data_image0
_chemical_formula_structural       CONb2Zn6Nb2Zn6Nb2Zn6Nb2Zn6
_chemical_formula_sum              "C1 O1 Nb8 Zn24"
_cell_length_a       5.63209242
_cell_length_b       7.96498148
_cell_length_c       103.7925545
_cell_angle_alpha    90.0
_cell_angle_beta     90.0
_cell_angle_gamma    90.0

_space_group_name_H-M_alt    "P 1"
_space_group_IT_number       1

loop_
  _space_group_symop_operation_xyz
  'x, y, z'

loop_
  _atom_site_type_symbol
  _atom_site_label
  _atom_site_symmetry_multiplicity
  _atom_site_fract_x
  _atom_site_fract_y
  _atom_site_fract_z
  _atom_site_occupancy
  C   C1        1.0  0.8758360150000001  0.6177273600000001  0.5457052081048761  1.0000
  O   O1        1.0  0.8759598850000001  0.6177272899999999  0.5572354101555889  1.0000
  Nb  Nb1       1.0  0.8753919250000001  0.11773068999999996  0.5230073674731763  1.0000
  Nb  Nb2       1.0  0.37537676499999995  0.11772760999999995  0.4970275623325633  1.0000
  Zn  Zn1       1.0  0.125989835  0.35322563999999995  0.5364772352502465  1.0000
  Zn  Zn2       1.0  0.626670375  0.37026336  0.5101203849381  1.0000
  Zn  Zn3       1.0  0.625237645  0.35317837999999996  0.5364754120144074  1.0000
  Zn  Zn4       1.0  0.124042645  0.3703299  0.5101181026375227  1.0000
  Zn  Zn5       1.0  0.8753767650000001  0.11772760999999995  0.4970275623325633  1.0000
  Zn  Zn6       1.0  0.375597905  0.11772987999999995  0.5253090334196161  1.0000
  Nb  Nb3       1.0  0.8753767650000001  0.11772760999999995  0.4698960777163764  1.0000
  Nb  Nb4       1.0  0.37537676499999995  0.11772760999999995  0.4427645898444113  1.0000
  Zn  Zn7       1.0  0.125376765  0.36772761  0.4834618183965807  1.0000
  Zn  Zn8       1.0  0.625376765  0.36772761  0.45633033378039384  1.0000
  Zn  Zn9       1.0  0.625376765  0.36772761  0.4834618183965807  1.0000
  Zn  Zn10      1.0  0.125376765  0.36772761  0.45633033378039384  1.0000
  Zn  Zn11      1.0  0.8753767650000001  0.11772760999999995  0.4427645898444113  1.0000
  Zn  Zn12      1.0  0.37537676499999995  0.11772760999999995  0.4698960777163764  1.0000
  Nb  Nb5       1.0  0.8753012050000001  0.6177271999999999  0.5254608959419031  1.0000
  Nb  Nb6       1.0  0.37537676499999995  0.61772761  0.4970275623325633  1.0000
  Zn  Zn13      1.0  0.125992375  0.88222591  0.5364766654890467  1.0000
  Zn  Zn14      1.0  0.6266741849999999  0.8651911  0.5101197402939996  1.0000
  Zn  Zn15      1.0  0.625233575  0.8822723900000001  0.5364747543471939  1.0000
  Zn  Zn16      1.0  0.12404011499999999  0.8651253999999999  0.5101175393878795  1.0000
  Zn  Zn17      1.0  0.8753767650000001  0.61772761  0.4970275623325633  1.0000
  Zn  Zn18      1.0  0.375588515  0.6177263599999999  0.525681269806624  1.0000
  Nb  Nb7       1.0  0.8753767650000001  0.61772761  0.4698960777163764  1.0000
  Nb  Nb8       1.0  0.37537676499999995  0.61772761  0.4427645898444113  1.0000
  Zn  Zn19      1.0  0.125376765  0.8677276099999999  0.4834618183965807  1.0000
  Zn  Zn20      1.0  0.625376765  0.8677276099999999  0.45633033378039384  1.0000
  Zn  Zn21      1.0  0.625376765  0.8677276099999999  0.4834618183965807  1.0000
  Zn  Zn22      1.0  0.125376765  0.8677276099999999  0.45633033378039384  1.0000
  Zn  Zn23      1.0  0.8753767650000001  0.61772761  0.4427645898444113  1.0000
  Zn  Zn24      1.0  0.37537676499999995  0.61772761  0.4698960777163764  1.0000
