data_image0
_chemical_formula_structural       COCa10As6
_chemical_formula_sum              "C1 O1 Ca10 As6"
_cell_length_a       6.88960236
_cell_length_b       8.636090148129979
_cell_length_c       104.5443606
_cell_angle_alpha    60.00000003114113
_cell_angle_beta     90.0
_cell_angle_gamma    90.0

_space_group_name_H-M_alt    "P 1"
_space_group_IT_number       1

loop_
  _space_group_symop_operation_xyz
  'x, y, z'

loop_
  _atom_site_type_symbol
  _atom_site_label
  _atom_site_symmetry_multiplicity
  _atom_site_fract_x
  _atom_site_fract_y
  _atom_site_fract_z
  _atom_site_occupancy
  C   C1        1.0  0.371964  0.5820326450000001  0.5433916467196928  1.0000
  O   O1        1.0  0.37512092  0.5619319150000001  0.5552308772495661  1.0000
  Ca  Ca1       1.0  0.13077940000000002  0.6893178950000001  0.5183309963587605  1.0000
  Ca  Ca2       1.0  0.6258855999999999  0.316465535  0.4986912548806573  1.0000
  Ca  Ca3       1.0  0.12482054000000002  0.31710012500000007  0.49867820298349264  1.0000
  Ca  Ca4       1.0  0.62100966  0.6908333750000001  0.5183215890799685  1.0000
  Ca  Ca5       1.0  0.37517946  0.015722305000000016  0.48669035925694093  1.0000
  Ca  Ca6       1.0  0.8751794599999999  0.7619831250000001  0.48669035925694093  1.0000
  Ca  Ca7       1.0  0.8751794599999999  0.26946148500000006  0.46572973935154854  1.0000
  Ca  Ca8       1.0  0.37517946  0.7619831250000001  0.46572973935154854  1.0000
  Ca  Ca9       1.0  0.37517946  0.26946148500000006  0.44476912275043395  1.0000
  Ca  Ca10      1.0  0.8751794599999999  0.015722305000000016  0.4447691227504339  1.0000
  As  As1       1.0  0.37464722  0.9842776950000001  0.515883375735604  1.0000
  As  As2       1.0  0.8749650600000001  0.43609538500000006  0.5160343349694942  1.0000
  As  As3       1.0  0.8751794599999999  0.625952265  0.46572973935154854  1.0000
  As  As4       1.0  0.37517946  0.40549234500000003  0.4657297393515485  1.0000
  As  As5       1.0  0.37661689000000004  0.6347603850000001  0.49687270596233934  1.0000
  As  As6       1.0  0.8750165299999999  0.016032525000000016  0.4972677753245425  1.0000
