data_image0
_chemical_formula_structural       COCu48Pd12
_chemical_formula_sum              "C1 O1 Cu48 Pd12"
_cell_length_a       7.33537124
_cell_length_b       13.39527139047762
_cell_length_c       103.88765397
_cell_angle_alpha    71.56505116355193
_cell_angle_beta     90.0
_cell_angle_gamma    90.0

_space_group_name_H-M_alt    "P 1"
_space_group_IT_number       1

loop_
  _space_group_symop_operation_xyz
  'x, y, z'

loop_
  _atom_site_type_symbol
  _atom_site_label
  _atom_site_symmetry_multiplicity
  _atom_site_fract_x
  _atom_site_fract_y
  _atom_site_fract_z
  _atom_site_occupancy
  C   C1        1.0  0.500000355  0.495141185  0.5358069738096335  1.0000
  O   O1        1.0  0.500000895  0.479659105  0.5476045995293887  1.0000
  Cu  Cu1       1.0  1.0149999999813035e-06  0.699510495  0.4935331067840708  1.0000
  Cu  Cu2       1.0  3.7499999998130345e-07  0.3650210649999999  0.46623994999395185  1.0000
  Cu  Cu3       1.0  0.999998235  0.03458813499999997  0.5192803560246984  1.0000
  Cu  Cu4       1.0  0.499999635  0.697878175  0.493416916054154  1.0000
  Cu  Cu5       1.0  0.500000375  0.3650210649999999  0.46623994999395185  1.0000
  Cu  Cu6       1.0  0.5000014450000001  0.036028804999999976  0.5190976867132064  1.0000
  Cu  Cu7       1.0  0.7500003749999999  0.698354405  0.45264848227777915  1.0000
  Cu  Cu8       1.0  0.748273675  0.365513815  0.5073283127596447  1.0000
  Cu  Cu9       1.0  0.7500003749999999  0.031687734999999974  0.4798314177101246  1.0000
  Cu  Cu10      1.0  0.250000375  0.698354405  0.45264848227777915  1.0000
  Cu  Cu11      1.0  0.25172316499999997  0.365516225  0.507328573715804  1.0000
  Cu  Cu12      1.0  0.250000375  0.031687734999999974  0.4798314177101246  1.0000
  Cu  Cu13      1.0  3.7499999998130345e-07  0.561127775  0.4665540531370141  1.0000
  Cu  Cu14      1.0  0.9999999749999999  0.23217400499999996  0.5196298774424779  1.0000
  Cu  Cu15      1.0  1.7349999999813036e-06  0.895457185  0.49345017817860554  1.0000
  Cu  Cu16      1.0  0.500000375  0.766291125  0.4666644049728671  1.0000
  Cu  Cu17      1.0  0.500000435  0.438147345  0.5206466865931852  1.0000
  Cu  Cu18      1.0  0.499999485  0.10052080499999996  0.4936266693530265  1.0000
  Cu  Cu19      1.0  0.5000004450000001  0.630722285  0.5197261637413461  1.0000
  Cu  Cu20      1.0  0.499998765  0.297558435  0.4933280604819212  1.0000
  Cu  Cu21      1.0  0.500000375  0.963751005  0.4658154950150368  1.0000
  Cu  Cu22      1.0  0.9999981549999999  0.838702645  0.5188413233823357  1.0000
  Cu  Cu23      1.0  0.999999675  0.501147835  0.49322231778423137  1.0000
  Cu  Cu24      1.0  3.7499999998130345e-07  0.16891436499999996  0.46592584685088967  1.0000
  Cu  Cu25      1.0  0.750752985  0.6315468450000001  0.48008449951729254  1.0000
  Cu  Cu26      1.0  0.750752985  0.298213515  0.4529015640849471  1.0000
  Cu  Cu27      1.0  0.7488809649999999  0.964126335  0.5073335677643022  1.0000
  Cu  Cu28      1.0  0.250752985  0.900376405  0.4525832725955286  1.0000
  Cu  Cu29      1.0  0.24405484499999996  0.5682551849999999  0.5066962443223632  1.0000
  Cu  Cu30      1.0  0.250752985  0.23370973499999997  0.479766204765922  1.0000
  Cu  Cu31      1.0  0.250752985  0.496332405  0.45271369522198174  1.0000
  Cu  Cu32      1.0  0.250980325  0.16440177499999997  0.5071469678006612  1.0000
  Cu  Cu33      1.0  0.250752985  0.829665735  0.4798966273923752  1.0000
  Cu  Cu34      1.0  0.7476809649999999  0.764553095  0.5069709561331829  1.0000
  Cu  Cu35      1.0  0.750752985  0.431828625  0.47957833590295673  1.0000
  Cu  Cu36      1.0  0.750752985  0.09849528499999997  0.4523954004706112  1.0000
  Cu  Cu37      1.0  0.252321345  0.764553715  0.5069714845694053  1.0000
  Cu  Cu38      1.0  0.24924776499999998  0.431828625  0.47957833590295673  1.0000
  Cu  Cu39      1.0  0.24924776499999998  0.09849528499999997  0.4523954004706112  1.0000
  Cu  Cu40      1.0  0.7492477649999999  0.496332405  0.45271369522198174  1.0000
  Cu  Cu41      1.0  0.749017775  0.16440312499999998  0.5071467688215897  1.0000
  Cu  Cu42      1.0  0.7492477649999999  0.829665735  0.4798966273923752  1.0000
  Cu  Cu43      1.0  0.7492477649999999  0.900376405  0.4525832725955286  1.0000
  Cu  Cu44      1.0  0.7559440949999999  0.568255145  0.506696309561403  1.0000
  Cu  Cu45      1.0  0.7492477649999999  0.23370973499999997  0.479766204765922  1.0000
  Cu  Cu46      1.0  0.24924776499999998  0.6315468450000001  0.48008449951729254  1.0000
  Cu  Cu47      1.0  0.24924776499999998  0.298213515  0.4529015640849471  1.0000
  Cu  Cu48      1.0  0.2511204249999999  0.964124925  0.5073340701049086  1.0000
  Pd  Pd1       1.0  3.7499999998130345e-07  0.761729875  0.4661581630716835  1.0000
  Pd  Pd2       1.0  0.9999952649999999  0.429819425  0.5201580918522725  1.0000
  Pd  Pd3       1.0  6.849999999813034e-07  0.09556862499999998  0.49317994502786927  1.0000
  Pd  Pd4       1.0  0.500001095  0.8292594849999999  0.5210391581328293  1.0000
  Pd  Pd5       1.0  0.5000000450000001  0.4971030249999999  0.49405099059191004  1.0000
  Pd  Pd6       1.0  0.500000375  0.163255395  0.4667145346510636  1.0000
  Pd  Pd7       1.0  0.500000375  0.566786745  0.46576536533684015  1.0000
  Pd  Pd8       1.0  0.499995985  0.23413725499999996  0.520172261771721  1.0000
  Pd  Pd9       1.0  0.500001205  0.899071645  0.49315677538287767  1.0000
  Pd  Pd10      1.0  2.4999999981303497e-08  0.639297625  0.5202158447122717  1.0000
  Pd  Pd11      1.0  1.0049999999813036e-06  0.302881565  0.493377022381305  1.0000
  Pd  Pd12      1.0  3.7499999998130345e-07  0.9683122650000001  0.46632173691622036  1.0000
