data_image0
_chemical_formula_structural       COCa3Ge6Ca3Ge6Ca3Ge6Ca3Ge6
_chemical_formula_sum              "C1 O1 Ca12 Ge24"
_cell_length_a       8.227317085655327
_cell_length_b       9.642360304842818
_cell_length_c       108.98086556999999
_cell_angle_alpha    97.85184872194583
_cell_angle_beta     108.45686365345016
_cell_angle_gamma    64.74652410082588

_space_group_name_H-M_alt    "P 1"
_space_group_IT_number       1

loop_
  _space_group_symop_operation_xyz
  'x, y, z'

loop_
  _atom_site_type_symbol
  _atom_site_label
  _atom_site_symmetry_multiplicity
  _atom_site_fract_x
  _atom_site_fract_y
  _atom_site_fract_z
  _atom_site_occupancy
  C   C1        1.0  0.4823053299999999  0.01149752499999998  0.5554964258126032  1.0000
  O   O1        1.0  0.44029608  0.023131924999999977  0.5649522867294263  1.0000
  Ca  Ca1       1.0  0.08095305999999998  0.676713625  0.437443479415358  1.0000
  Ca  Ca2       1.0  0.08095305999999997  0.01004695499999998  0.47718630233743764  1.0000
  Ca  Ca3       1.0  0.08095305999999998  0.34338028499999995  0.45731489266482483  1.0000
  Ge  Ge1       1.0  0.24761972999999998  0.6566197149999998  0.4747905361926533  1.0000
  Ge  Ge2       1.0  0.24761972999999993  0.989953045  0.4549191265200406  1.0000
  Ge  Ge3       1.0  0.2476197299999999  0.32328638499999995  0.4350477132705737  1.0000
  Ge  Ge4       1.0  0.41428638999999984  0.696807525  0.45971065880960915  1.0000
  Ge  Ge5       1.0  0.4142863899999999  0.030140864999999982  0.4398392455601422  1.0000
  Ge  Ge6       1.0  0.41428638999999995  0.36347419499999994  0.4795820684822219  1.0000
  Ca  Ca4       1.0  0.08095305999999998  0.676713625  0.49705771558690454  1.0000
  Ca  Ca5       1.0  0.08264437000000005  0.9898595449999998  0.5350621051493447  1.0000
  Ca  Ca6       1.0  0.08941914999999998  0.347762945  0.5187859739509503  1.0000
  Ge  Ge7       1.0  0.2665720199999999  0.636532535  0.5351605830963917  1.0000
  Ge  Ge8       1.0  0.24842136999999992  0.984506665  0.5140447894596758  1.0000
  Ge  Ge9       1.0  0.2476197299999999  0.32328638499999995  0.4946619494421202  1.0000
  Ge  Ge10      1.0  0.41300919999999985  0.696132925  0.5196291064222549  1.0000
  Ge  Ge11      1.0  0.4142863899999999  0.030140864999999982  0.4994534817316888  1.0000
  Ge  Ge12      1.0  0.5136758800000001  0.353870425  0.5414041750758911  1.0000
  Ca  Ca7       1.0  0.5809530599999998  0.676713625  0.43744347941535794  1.0000
  Ca  Ca8       1.0  0.5809530599999999  0.01004695499999998  0.4771863023374377  1.0000
  Ca  Ca9       1.0  0.5809530599999998  0.34338028499999995  0.4573148926648248  1.0000
  Ge  Ge13      1.0  0.74761973  0.6566197149999998  0.4747905361926533  1.0000
  Ge  Ge14      1.0  0.74761973  0.989953045  0.4549191265200406  1.0000
  Ge  Ge15      1.0  0.7476197299999999  0.32328638499999995  0.4350477132705737  1.0000
  Ge  Ge16      1.0  0.9142863899999999  0.696807525  0.4597106588096091  1.0000
  Ge  Ge17      1.0  0.9142863899999999  0.030140864999999982  0.4398392455601422  1.0000
  Ge  Ge18      1.0  0.9142863900000001  0.36347419499999994  0.4795820684822219  1.0000
  Ca  Ca10      1.0  0.5809530599999998  0.676713625  0.49705771558690454  1.0000
  Ca  Ca11      1.0  0.58676583  0.9836851949999998  0.5349316572803631  1.0000
  Ca  Ca12      1.0  0.5689431499999998  0.348671005  0.5147447511919695  1.0000
  Ge  Ge19      1.0  0.7488101399999999  0.629506455  0.5350898364991723  1.0000
  Ge  Ge20      1.0  0.74842137  0.984506665  0.5140447894596758  1.0000
  Ge  Ge21      1.0  0.7476197299999999  0.32328638499999995  0.49466194944212033  1.0000
  Ge  Ge22      1.0  0.91904694  0.687061525  0.5201651552386191  1.0000
  Ge  Ge23      1.0  0.9142863899999999  0.030140864999999982  0.4994534817316888  1.0000
  Ge  Ge24      1.0  0.8285161099999999  0.35116122499999997  0.5418950911472372  1.0000
