data_image0
_chemical_formula_structural       COAg28Ca8
_chemical_formula_sum              "C1 O1 Ag28 Ca8"
_cell_length_a       5.640644630910884
_cell_length_b       14.44655951
_cell_length_c       109.12238162
_cell_angle_alpha    90.0
_cell_angle_beta     89.89124740042156
_cell_angle_gamma    90.0

_space_group_name_H-M_alt    "P 1"
_space_group_IT_number       1

loop_
  _space_group_symop_operation_xyz
  'x, y, z'

loop_
  _atom_site_type_symbol
  _atom_site_label
  _atom_site_symmetry_multiplicity
  _atom_site_fract_x
  _atom_site_fract_y
  _atom_site_fract_z
  _atom_site_occupancy
  C   C1        1.0  0.03797505000000006  0.7476015850000001  0.537541714644937  1.0000
  O   O1        1.0  0.029838270000000052  0.7475919750000001  0.548244686324741  1.0000
  Ag  Ag1       1.0  0.2883213300000001  0.747601445  0.4518210659497475  1.0000
  Ag  Ag2       1.0  0.7883213300000002  0.747601445  0.4966358659009585  1.0000
  Ag  Ag3       1.0  0.9701617299999999  0.24763241500000005  0.5123823238487436  1.0000
  Ag  Ag4       1.0  0.4596770500000001  0.247601445  0.467179610574339  1.0000
  Ag  Ag5       1.0  0.03652448000000005  0.747601445  0.4742580114266649  1.0000
  Ag  Ag6       1.0  0.5321936500000001  0.747586965  0.5200505591721074  1.0000
  Ag  Ag7       1.0  0.72432683  0.24760921500000005  0.5353690967284863  1.0000
  Ag  Ag8       1.0  0.21147390000000008  0.247601445  0.4895574650486326  1.0000
  Ag  Ag9       1.0  0.7897142100000001  0.747601445  0.4517553136752591  1.0000
  Ag  Ag10      1.0  0.28971421  0.747601445  0.4965701136264702  1.0000
  Ag  Ag11      1.0  0.95828416  0.247601445  0.4672453628488274  1.0000
  Ag  Ag12      1.0  0.46801971000000003  0.24761311500000002  0.5121243949565125  1.0000
  Ag  Ag13      1.0  0.035880480000000055  0.9211435749999999  0.48923859878401976  1.0000
  Ag  Ag14      1.0  0.5212063000000001  0.9259406849999999  0.5313294548090443  1.0000
  Ag  Ag15      1.0  0.7350103800000001  0.41785841500000004  0.5193933734345187  1.0000
  Ag  Ag16      1.0  0.21211790000000008  0.42114357500000005  0.4745768776912777  1.0000
  Ag  Ag17      1.0  0.04074447000000005  0.5740593150000001  0.45921674841536  1.0000
  Ag  Ag18      1.0  0.54074447  0.5740593150000001  0.504031548366571  1.0000
  Ag  Ag19      1.0  0.7072539000000001  0.074059315  0.4597839316939105  1.0000
  Ag  Ag20      1.0  0.20725390000000007  0.074059315  0.5045987316451215  1.0000
  Ag  Ag21      1.0  0.7349907100000002  0.077361685  0.519394122737974  1.0000
  Ag  Ag22      1.0  0.21211790000000008  0.074059315  0.4745768776912777  1.0000
  Ag  Ag23      1.0  0.035880480000000055  0.5740593150000001  0.48923859878401976  1.0000
  Ag  Ag24      1.0  0.52125703  0.569264415  0.5313302292087874  1.0000
  Ag  Ag25      1.0  0.7072539000000001  0.42114357500000005  0.4597839316939105  1.0000
  Ag  Ag26      1.0  0.20725390000000007  0.42114357500000005  0.5045987316451215  1.0000
  Ag  Ag27      1.0  0.04074447000000005  0.9211435749999999  0.45921674841536  1.0000
  Ag  Ag28      1.0  0.54074447  0.9211435749999999  0.504031548366571  1.0000
  Ca  Ca1       1.0  0.03141525000000005  0.8784818249999999  0.5179978047121981  1.0000
  Ca  Ca2       1.0  0.53454282  0.8827967950000001  0.4738898022747137  1.0000
  Ca  Ca3       1.0  0.22990879000000006  0.380212845  0.5334373637395495  1.0000
  Ca  Ca4       1.0  0.7134555600000001  0.382796795  0.48992567778576773  1.0000
  Ca  Ca5       1.0  0.031422330000000054  0.6167181850000001  0.5179976397937344  1.0000
  Ca  Ca6       1.0  0.53454282  0.6124060949999999  0.4738898022747137  1.0000
  Ca  Ca7       1.0  0.2299050900000001  0.11499925500000001  0.5334348218440961  1.0000
  Ca  Ca8       1.0  0.7134555600000001  0.112406095  0.48992567778576773  1.0000
