data_image0
_chemical_formula_structural       COCa4Ge8Au8Ca4Ge8Au8
_chemical_formula_sum              "C1 O1 Ca8 Ge16 Au16"
_cell_length_a       4.55838563
_cell_length_b       21.517363284377815
_cell_length_c       101.90869942
_cell_angle_alpha    102.23060436000206
_cell_angle_beta     90.0
_cell_angle_gamma    90.0

_space_group_name_H-M_alt    "P 1"
_space_group_IT_number       1

loop_
  _space_group_symop_operation_xyz
  'x, y, z'

loop_
  _atom_site_type_symbol
  _atom_site_label
  _atom_site_symmetry_multiplicity
  _atom_site_fract_x
  _atom_site_fract_y
  _atom_site_fract_z
  _atom_site_occupancy
  C   C1        1.0  0.4801244449999999  0.3484643499999999  0.5443541169442865  1.0000
  O   O1        1.0  0.48411305499999996  0.3557309799999999  0.5560819050225251  1.0000
  Ca  Ca1       1.0  0.009966675000000005  0.029690839999999986  0.47187440506869344  1.0000
  Ca  Ca2       1.0  0.009966675000000005  0.52969084  0.4495093588743826  1.0000
  Ca  Ca3       1.0  0.5099666749999999  0.27969084  0.46069188040598474  1.0000
  Ca  Ca4       1.0  0.5099666749999999  0.7796908400000001  0.4830569266002955  1.0000
  Ge  Ge1       1.0  0.009966675000000005  0.22030916  0.48040078075108567  1.0000
  Ge  Ge2       1.0  0.009966675000000005  0.7203091599999999  0.4580357345567749  1.0000
  Ge  Ge3       1.0  0.5099666749999999  0.08907251999999999  0.4521655047235925  1.0000
  Ge  Ge4       1.0  0.5099666749999999  0.58907252  0.47453055404900985  1.0000
  Ge  Ge5       1.0  0.5099666749999999  0.47030916  0.46921825608837703  1.0000
  Ge  Ge6       1.0  0.5099666749999999  0.97030916  0.44685320989406624  1.0000
  Ge  Ge7       1.0  0.009966675000000005  0.33907251999999993  0.48571307558061194  1.0000
  Ge  Ge8       1.0  0.009966675000000005  0.8390725199999999  0.46334802938630115  1.0000
  Au  Au1       1.0  0.5099666749999999  0.15469083999999997  0.47746566583449446  1.0000
  Au  Au2       1.0  0.5099666749999999  0.6546908399999999  0.4551006196401838  1.0000
  Au  Au3       1.0  0.009966675000000005  0.15469083999999997  0.4551006196401837  1.0000
  Au  Au4       1.0  0.009966675000000005  0.6546908399999999  0.47746566583449446  1.0000
  Au  Au5       1.0  0.009966675000000005  0.40469084  0.46628314430289236  1.0000
  Au  Au6       1.0  0.009966675000000005  0.9046908399999998  0.44391809497747503  1.0000
  Au  Au7       1.0  0.5099666749999999  0.40469084  0.44391809497747514  1.0000
  Au  Au8       1.0  0.5099666749999999  0.9046908399999998  0.4662831443028923  1.0000
  Ca  Ca5       1.0  0.009019005000000005  0.03016128999999999  0.5135162776936283  1.0000
  Ca  Ca6       1.0  0.009966675000000005  0.52969084  0.49423945126300417  1.0000
  Ca  Ca7       1.0  0.503234565  0.28168386  0.5048086015498395  1.0000
  Ca  Ca8       1.0  0.506928725  0.77012152  0.5231442298820242  1.0000
  Ge  Ge9       1.0  0.0017146550000000094  0.21226875999999997  0.5266387263734884  1.0000
  Ge  Ge10      1.0  0.009167845000000004  0.72714792  0.5023857387926344  1.0000
  Ge  Ge11      1.0  0.5099666749999999  0.08907251999999999  0.4968956002433205  1.0000
  Ge  Ge12      1.0  0.5049271649999999  0.5949631599999999  0.5214173119109903  1.0000
  Ge  Ge13      1.0  0.499781245  0.46820021999999994  0.5137921939321431  1.0000
  Ge  Ge14      1.0  0.5099666749999999  0.97030916  0.49158330228268776  1.0000
  Ge  Ge15      1.0  0.993008275  0.3337909  0.5317585896579046  1.0000
  Ge  Ge16      1.0  0.007138675000000004  0.8521311600000001  0.511640190676407  1.0000
  Au  Au9       1.0  0.5012578849999999  0.15820713  0.5215766883644649  1.0000
  Au  Au10      1.0  0.5099666749999999  0.6546908399999999  0.4998307120288053  1.0000
  Au  Au11      1.0  0.009966675000000005  0.15469083999999997  0.4998307120288052  1.0000
  Au  Au12      1.0  0.004996445000000005  0.6509836999999999  0.5202242100300133  1.0000
  Au  Au13      1.0  0.998285345  0.404363  0.5145405096061323  1.0000
  Au  Au14      1.0  0.009966675000000005  0.9046908399999998  0.48864819049720304  1.0000
  Au  Au15      1.0  0.5099666749999999  0.40469084  0.48864819049720315  1.0000
  Au  Au16      1.0  0.506588175  0.90778367  0.5118337087154828  1.0000
