data_image0
_chemical_formula_structural       CONa6Cu6Se6Na6Cu6Se6
_chemical_formula_sum              "C1 O1 Na12 Cu12 Se12"
_cell_length_a       8.29650618
_cell_length_b       10.84015993336445
_cell_length_c       102.46784412
_cell_angle_alpha    80.67250894214473
_cell_angle_beta     90.0
_cell_angle_gamma    90.0

_space_group_name_H-M_alt    "P 1"
_space_group_IT_number       1

loop_
  _space_group_symop_operation_xyz
  'x, y, z'

loop_
  _atom_site_type_symbol
  _atom_site_label
  _atom_site_symmetry_multiplicity
  _atom_site_fract_x
  _atom_site_fract_y
  _atom_site_fract_z
  _atom_site_occupancy
  C   C1        1.0  0.374999945  0.46531778  0.5394749990291314  1.0000
  O   O1        1.0  0.375000035  0.5037918299999999  0.5494252290418755  1.0000
  Na  Na1       1.0  0.12499995499999998  0.61034035  0.48089205150842906  1.0000
  Na  Na2       1.0  0.12499995499999998  0.9436736900000002  0.4544871476902915  1.0000
  Na  Na3       1.0  0.125856995  0.16539141999999998  0.5121678364428492  1.0000
  Na  Na4       1.0  0.375000035  0.9091898500000002  0.5274150530275987  1.0000
  Na  Na5       1.0  0.374999955  0.3356456  0.47697967477626213  1.0000
  Na  Na6       1.0  0.374999955  0.6689789300000001  0.45057477095812437  1.0000
  Cu  Cu1       1.0  0.12499995499999998  0.88965964  0.48553709147332147  1.0000
  Cu  Cu2       1.0  0.12499995499999998  0.22299297999999998  0.45913218448659526  1.0000
  Cu  Cu3       1.0  0.125882955  0.6010766600000002  0.5084124506007106  1.0000
  Cu  Cu4       1.0  0.374999955  0.74763424  0.5018097995734602  1.0000
  Cu  Cu5       1.0  0.374999955  0.05632630999999997  0.47233463797995834  1.0000
  Cu  Cu6       1.0  0.374999575  0.37992722999999995  0.5252926753588247  1.0000
  Se  Se1       1.0  0.12525344499999996  0.8223804100000002  0.5107138693674755  1.0000
  Se  Se2       1.0  0.12499995499999998  0.13068635999999997  0.48411545984445686  1.0000
  Se  Se3       1.0  0.12499995499999998  0.4640197  0.45771055285773066  1.0000
  Se  Se4       1.0  0.374999955  0.8152995899999999  0.47375626960882283  1.0000
  Se  Se5       1.0  0.37499991499999996  0.15980872  0.5305036284135723  1.0000
  Se  Se6       1.0  0.374999955  0.500312  0.5021224980751401  1.0000
  Na  Na7       1.0  0.6249999549999999  0.61034035  0.48089205150842906  1.0000
  Na  Na8       1.0  0.6249999549999999  0.9436736900000002  0.4544871476902915  1.0000
  Na  Na9       1.0  0.6241428450000001  0.16539148999999997  0.5121678269370835  1.0000
  Na  Na10      1.0  0.8749998149999999  0.9036218599999999  0.5274313332357481  1.0000
  Na  Na11      1.0  0.874999955  0.3356456  0.47697967477626213  1.0000
  Na  Na12      1.0  0.874999955  0.6689789300000001  0.45057477095812437  1.0000
  Cu  Cu7       1.0  0.6249999549999999  0.88965964  0.48553709147332147  1.0000
  Cu  Cu8       1.0  0.6249999549999999  0.22299297999999998  0.45913218448659526  1.0000
  Cu  Cu9       1.0  0.6241171749999999  0.60107736  0.5084122826655156  1.0000
  Cu  Cu10      1.0  0.874999955  0.74763424  0.5018097995734602  1.0000
  Cu  Cu11      1.0  0.874999955  0.05632630999999997  0.47233463797995834  1.0000
  Cu  Cu12      1.0  0.875000045  0.33790562  0.5194898141134712  1.0000
  Se  Se7       1.0  0.624746435  0.8223807699999999  0.5107138471873555  1.0000
  Se  Se8       1.0  0.6249999549999999  0.13068635999999997  0.48411545984445686  1.0000
  Se  Se9       1.0  0.6249999549999999  0.4640197  0.45771055285773066  1.0000
  Se  Se10      1.0  0.874999955  0.8152995899999999  0.47375626960882283  1.0000
  Se  Se11      1.0  0.874999925  0.14958366999999997  0.5325241327907526  1.0000
  Se  Se12      1.0  0.874999955  0.500312  0.5021224980751401  1.0000
