data_image0
_chemical_formula_structural       COAs8Ru4As8Ru4As8Ru4
_chemical_formula_sum              "C1 O1 As24 Ru12"
_cell_length_a       6.288686789804079
_cell_length_b       12.90607839785186
_cell_length_c       103.29070899
_cell_angle_alpha    103.56193534460228
_cell_angle_beta     118.7670481176958
_cell_angle_gamma    83.52029489075008

_space_group_name_H-M_alt    "P 1"
_space_group_IT_number       1

loop_
  _space_group_symop_operation_xyz
  'x, y, z'

loop_
  _atom_site_type_symbol
  _atom_site_label
  _atom_site_symmetry_multiplicity
  _atom_site_fract_x
  _atom_site_fract_y
  _atom_site_fract_z
  _atom_site_occupancy
  C   C1        1.0  0.07788879999999998  0.0025585400000000037  0.5446702876736254  1.0000
  O   O1        1.0  0.14135124  0.009798750000000004  0.5575461359902635  1.0000
  As  As1       1.0  0.33700634  0.44259897000000004  0.445832617333348  1.0000
  As  As2       1.0  0.33700634  0.9425989699999999  0.4604826687379512  1.0000
  As  As3       1.0  0.67884794  0.07728350999999999  0.44514483001179467  1.0000
  As  As4       1.0  0.67884794  0.5772835100000001  0.4597948814163979  1.0000
  As  As5       1.0  0.17884794  0.19259896999999998  0.4485235865584172  1.0000
  As  As6       1.0  0.17884794  0.69259897  0.4631736347400094  1.0000
  As  As7       1.0  0.8370063399999998  0.32728351  0.44245386400973646  1.0000
  As  As8       1.0  0.8370063399999998  0.82728351  0.4571039121913287  1.0000
  Ru  Ru1       1.0  0.50792714  0.25994123999999996  0.44548872528407685  1.0000
  Ru  Ru2       1.0  0.50792714  0.75994124  0.46013877346566895  1.0000
  Ru  Ru3       1.0  0.007927139999999989  0.009941240000000004  0.4674638007794761  1.0000
  Ru  Ru4       1.0  0.007927139999999989  0.5099412400000001  0.4528137493748729  1.0000
  As  As9       1.0  0.33700634  0.44259897000000004  0.47513271691954334  1.0000
  As  As10      1.0  0.33700634  0.9425989699999999  0.4897827683241465  1.0000
  As  As11      1.0  0.67884794  0.07728350999999999  0.47444492959799  1.0000
  As  As12      1.0  0.67884794  0.5772835100000001  0.48909498100259324  1.0000
  As  As13      1.0  0.17884794  0.19259896999999998  0.47782368614461246  1.0000
  As  As14      1.0  0.17884794  0.69259897  0.49247373432620467  1.0000
  As  As15      1.0  0.8370063399999998  0.32728351  0.4717539635959318  1.0000
  As  As16      1.0  0.8370063399999998  0.82728351  0.486404011777524  1.0000
  Ru  Ru5       1.0  0.50792714  0.25994123999999996  0.47478882487027213  1.0000
  Ru  Ru6       1.0  0.50792714  0.75994124  0.4894388730518643  1.0000
  Ru  Ru7       1.0  0.01354727999999999  0.012273670000000004  0.4972053207274004  1.0000
  Ru  Ru8       1.0  0.007927139999999989  0.5099412400000001  0.48211384896106824  1.0000
  As  As17      1.0  0.32975315  0.44083247000000003  0.5058416397301841  1.0000
  As  As18      1.0  0.30152534  0.92907403  0.5183423521290459  1.0000
  As  As19      1.0  0.67454153  0.08005973000000002  0.5040408854777105  1.0000
  As  As20      1.0  0.6700937  0.57734916  0.5177709509572338  1.0000
  As  As21      1.0  0.17519960999999998  0.19652407  0.506709951120114  1.0000
  As  As22      1.0  0.18839685  0.6854244399999999  0.5220518315020478  1.0000
  As  As23      1.0  0.8317349100000002  0.32943614000000004  0.502615837615958  1.0000
  As  As24      1.0  0.83913731  0.8181150100000001  0.5169207077668952  1.0000
  Ru  Ru9       1.0  0.48710442  0.2560064  0.502783675913091  1.0000
  Ru  Ru10      1.0  0.4905840000000001  0.75574894  0.5175881772271884  1.0000
  Ru  Ru11      1.0  0.99207286  0.99744146  0.5242204215524127  1.0000
  Ru  Ru12      1.0  0.9871856000000001  0.5153576099999999  0.5104881064112208  1.0000
