data_image0
_chemical_formula_structural       COAl4Ru8Si4Al4Ru8Si4Al4Ru8Si4Al4Ru8Si4
_chemical_formula_sum              "C1 O1 Al16 Ru32 Si16"
_cell_length_a       8.40404206
_cell_length_b       8.40404206
_cell_length_c       105.65533077
_cell_angle_alpha    90.0
_cell_angle_beta     90.0
_cell_angle_gamma    90.0

_space_group_name_H-M_alt    "P 1"
_space_group_IT_number       1

loop_
  _space_group_symop_operation_xyz
  'x, y, z'

loop_
  _atom_site_type_symbol
  _atom_site_label
  _atom_site_symmetry_multiplicity
  _atom_site_fract_x
  _atom_site_fract_y
  _atom_site_fract_z
  _atom_site_occupancy
  C   C1        1.0  0.25037014  0.62462987  0.551411431076283  1.0000
  O   O1        1.0  0.25037020000000004  0.62462937  0.5626050100905209  1.0000
  Al  Al1       1.0  0.00036970000000002156  0.37463008000000003  0.47957853440050174  1.0000
  Al  Al2       1.0  0.25036970000000003  0.12463008  0.4514561725313813  1.0000
  Al  Al3       1.0  0.0016745800000000216  0.37593488  0.5348386874609552  1.0000
  Al  Al4       1.0  0.25036944  0.12462994  0.5074773639800226  1.0000
  Ru  Ru1       1.0  0.25036970000000003  0.37463008000000003  0.4655173551532834  1.0000
  Ru  Ru2       1.0  0.25036970000000003  0.37463008000000003  0.4373949899094792  1.0000
  Ru  Ru3       1.0  0.00036970000000002156  0.12463008  0.4373949899094792  1.0000
  Ru  Ru4       1.0  0.00036970000000002156  0.12463008  0.4655173551532834  1.0000
  Ru  Ru5       1.0  0.25036972  0.37755139000000004  0.5220413778269412  1.0000
  Ru  Ru6       1.0  0.25036970000000003  0.37463008000000003  0.49363971702240383  1.0000
  Ru  Ru7       1.0  0.00036970000000002156  0.12463008  0.49363971702240383  1.0000
  Ru  Ru8       1.0  0.0008434000000000216  0.12463023999999999  0.5222945769597106  1.0000
  Si  Si1       1.0  0.25036970000000003  0.12463008  0.47957853440050174  1.0000
  Si  Si2       1.0  0.00036970000000002156  0.37463008000000003  0.4514561725313813  1.0000
  Si  Si3       1.0  0.25036965000000005  0.12463006  0.5340667994651244  1.0000
  Si  Si4       1.0  0.9996299400000002  0.37389013  0.5069912138158396  1.0000
  Al  Al5       1.0  0.00036970000000002156  0.87463008  0.47957853440050174  1.0000
  Al  Al6       1.0  0.25036970000000003  0.62463008  0.4514561725313813  1.0000
  Al  Al7       1.0  0.0016745800000000216  0.8733252699999999  0.5348386773369046  1.0000
  Al  Al8       1.0  0.25037004  0.62463032  0.5071458856874121  1.0000
  Ru  Ru9       1.0  0.25036970000000003  0.87463008  0.4655173551532834  1.0000
  Ru  Ru10      1.0  0.25036970000000003  0.87463008  0.4373949899094792  1.0000
  Ru  Ru11      1.0  0.00036970000000002156  0.62463008  0.4373949899094792  1.0000
  Ru  Ru12      1.0  0.00036970000000002156  0.62463008  0.4655173551532834  1.0000
  Ru  Ru13      1.0  0.25036956000000005  0.8717085800000001  0.5220413575788398  1.0000
  Ru  Ru14      1.0  0.25036970000000003  0.87463008  0.49363971702240383  1.0000
  Ru  Ru15      1.0  0.00036970000000002156  0.62463008  0.49363971702240383  1.0000
  Ru  Ru16      1.0  0.0032911700000000216  0.6246303500000001  0.5220413542041563  1.0000
  Si  Si5       1.0  0.25036970000000003  0.62463008  0.47957853440050174  1.0000
  Si  Si6       1.0  0.00036970000000002156  0.87463008  0.4514561725313813  1.0000
  Si  Si7       1.0  0.25036975  0.62463018  0.5338397845020915  1.0000
  Si  Si8       1.0  0.9996303  0.8753700600000001  0.5069912138158396  1.0000
  Al  Al9       1.0  0.5003697  0.37463008000000003  0.47957853440050174  1.0000
  Al  Al10      1.0  0.7503697  0.12463008  0.4514561725313813  1.0000
  Al  Al11      1.0  0.4990648800000001  0.37593522  0.5348386874609552  1.0000
  Al  Al12      1.0  0.7503699500000001  0.12463030000000001  0.5074414775950532  1.0000
  Ru  Ru17      1.0  0.7503697  0.37463008000000003  0.4655173551532834  1.0000
  Ru  Ru18      1.0  0.7503697  0.37463008000000003  0.4373949899094792  1.0000
  Ru  Ru19      1.0  0.5003697  0.12463008  0.4373949899094792  1.0000
  Ru  Ru20      1.0  0.5003697  0.12463008  0.4655173551532834  1.0000
  Ru  Ru21      1.0  0.7503696000000001  0.37510370000000004  0.5222946275799639  1.0000
  Ru  Ru22      1.0  0.7503697  0.37463008000000003  0.49363971702240383  1.0000
  Ru  Ru23      1.0  0.5003697  0.12463008  0.49363971702240383  1.0000
  Ru  Ru24      1.0  0.49989613  0.12463004999999999  0.5222946174559133  1.0000
  Si  Si9       1.0  0.7503697  0.12463008  0.47957853440050174  1.0000
  Si  Si10      1.0  0.5003697  0.37463008000000003  0.4514561725313813  1.0000
  Si  Si11      1.0  0.75036983  0.12463001000000001  0.5341121450881103  1.0000
  Si  Si12      1.0  0.5011094700000001  0.37389084  0.5069912239398904  1.0000
  Al  Al13      1.0  0.5003697  0.87463008  0.47957853440050174  1.0000
  Al  Al14      1.0  0.7503697  0.62463008  0.4514561725313813  1.0000
  Al  Al15      1.0  0.49906490000000003  0.87332494  0.5348386807115881  1.0000
  Al  Al16      1.0  0.7503694300000001  0.62462994  0.5074773808534404  1.0000
  Ru  Ru25      1.0  0.7503697  0.87463008  0.4655173551532834  1.0000
  Ru  Ru26      1.0  0.7503697  0.87463008  0.4373949899094792  1.0000
  Ru  Ru27      1.0  0.5003697  0.62463008  0.4373949899094792  1.0000
  Ru  Ru28      1.0  0.5003697  0.62463008  0.4655173551532834  1.0000
  Ru  Ru29      1.0  0.7503694300000001  0.87415628  0.5222945972078119  1.0000
  Ru  Ru30      1.0  0.7503697  0.87463008  0.49363971702240383  1.0000
  Ru  Ru31      1.0  0.5003697  0.62463008  0.49363971702240383  1.0000
  Ru  Ru32      1.0  0.49744835000000004  0.62463021  0.52204131033327  1.0000
  Si  Si13      1.0  0.7503697  0.62463008  0.47957853440050174  1.0000
  Si  Si14      1.0  0.5003697  0.87463008  0.4514561725313813  1.0000
  Si  Si15      1.0  0.7503695300000002  0.6246302800000001  0.5340667927157572  1.0000
  Si  Si16      1.0  0.50110908  0.8753693200000001  0.5069912205652067  1.0000
