data_image0
_chemical_formula_structural       CONa12Sb12Se24
_chemical_formula_sum              "C1 O1 Na12 Sb12 Se24"
_cell_length_a       12.17179167
_cell_length_b       13.157258483046865
_cell_length_c       103.28552365
_cell_angle_alpha    71.56505116330726
_cell_angle_beta     90.0
_cell_angle_gamma    90.0

_space_group_name_H-M_alt    "P 1"
_space_group_IT_number       1

loop_
  _space_group_symop_operation_xyz
  'x, y, z'

loop_
  _atom_site_type_symbol
  _atom_site_label
  _atom_site_symmetry_multiplicity
  _atom_site_fract_x
  _atom_site_fract_y
  _atom_site_fract_z
  _atom_site_occupancy
  C   C1        1.0  0.17912224999999998  0.707845875  0.5374581382760704  1.0000
  O   O1        1.0  0.13134919999999997  0.6819005050000001  0.5475638665742527  1.0000
  Na  Na1       1.0  0.7561428200000001  0.837814365  0.4658639293132087  1.0000
  Na  Na2       1.0  0.7683455400000001  0.5074617050000001  0.5193111374561553  1.0000
  Na  Na3       1.0  0.75324862  0.17047835500000003  0.4935926553891849  1.0000
  Na  Na4       1.0  0.006142819999999969  0.6711477050000001  0.45243613342574746  1.0000
  Na  Na5       1.0  0.01338630999999997  0.34359366500000005  0.5070717078550072  1.0000
  Na  Na6       1.0  0.006142819999999969  0.0044810350000000256  0.4792917252006698  1.0000
  Na  Na7       1.0  0.25614282  0.5044810350000001  0.4792917252006699  1.0000
  Na  Na8       1.0  0.25614282  0.171147705  0.45243613342574746  1.0000
  Na  Na9       1.0  0.24576372  0.837014655  0.508356367543485  1.0000
  Na  Na10      1.0  0.50873223  0.670558675  0.4936087848563146  1.0000
  Na  Na11      1.0  0.50614282  0.337814365  0.46586392931320864  1.0000
  Na  Na12      1.0  0.49331422  0.0074192550000000265  0.519281708026819  1.0000
  Sb  Sb1       1.0  0.9996598700000001  0.6735242250000001  0.489653717054633  1.0000
  Sb  Sb2       1.0  0.006142819999999969  0.337814365  0.46586392931320864  1.0000
  Sb  Sb3       1.0  0.03178270999999997  0.011965205000000026  0.5164881552187185  1.0000
  Sb  Sb4       1.0  0.7561428200000001  0.5044810350000001  0.4792917252006699  1.0000
  Sb  Sb5       1.0  0.7561428200000001  0.171147705  0.45243613342574746  1.0000
  Sb  Sb6       1.0  0.72791934  0.869601395  0.508015898823542  1.0000
  Sb  Sb7       1.0  0.50614282  0.6711477050000001  0.45243613342574746  1.0000
  Sb  Sb8       1.0  0.53419161  0.36920046500000003  0.5079995083200811  1.0000
  Sb  Sb9       1.0  0.50614282  0.0044810350000000256  0.4792917252006698  1.0000
  Sb  Sb10      1.0  0.25614282  0.837814365  0.4658639293132087  1.0000
  Sb  Sb11      1.0  0.22973447000000002  0.5072290150000001  0.5163466445231879  1.0000
  Sb  Sb12      1.0  0.26261823  0.17350350500000003  0.4896550544629964  1.0000
  Se  Se1       1.0  0.5155477200000002  0.5044810350000001  0.4792917252006699  1.0000
  Se  Se2       1.0  0.5155477200000002  0.171147705  0.45243613342574746  1.0000
  Se  Se3       1.0  0.51469635  0.842725565  0.5061100661243332  1.0000
  Se  Se4       1.0  0.7467379199999999  0.6711477050000001  0.45243613342574746  1.0000
  Se  Se5       1.0  0.7470439700000001  0.34193068500000007  0.5061791021772506  1.0000
  Se  Se6       1.0  0.7467379199999999  0.0044810350000000256  0.4792917252006698  1.0000
  Se  Se7       1.0  0.99673792  0.5044810350000001  0.4792917252006699  1.0000
  Se  Se8       1.0  0.99673792  0.171147705  0.45243613342574746  1.0000
  Se  Se9       1.0  0.0003401299999999683  0.8479745650000001  0.5090749973405234  1.0000
  Se  Se10      1.0  0.77067337  0.6596686850000001  0.491717744215872  1.0000
  Se  Se11      1.0  0.76554772  0.337814365  0.46586392931320864  1.0000
  Se  Se12      1.0  0.73275885  0.9955189649999999  0.5218723131441125  1.0000
  Se  Se13      1.0  0.01554771999999997  0.837814365  0.4658639293132087  1.0000
  Se  Se14      1.0  0.02265633999999997  0.517253445  0.519551332775551  1.0000
  Se  Se15      1.0  0.0072666199999999685  0.188277555  0.4915184252523351  1.0000
  Se  Se16      1.0  0.25502726  0.688319675  0.49151085519873117  1.0000
  Se  Se17      1.0  0.24673792000000003  0.337814365  0.46586392931320864  1.0000
  Se  Se18      1.0  0.23848163  0.019895495000000027  0.5196930110499608  1.0000
  Se  Se19      1.0  0.49673792  0.837814365  0.4658639293132087  1.0000
  Se  Se20      1.0  0.5282475200000001  0.49494961500000006  0.5218817201200469  1.0000
  Se  Se21      1.0  0.49161361000000003  0.15966790500000003  0.4917179698028249  1.0000
  Se  Se22      1.0  0.26554772  0.6711477050000001  0.45243613342574746  1.0000
  Se  Se23      1.0  0.25718552  0.34066635500000003  0.5094964066591533  1.0000
  Se  Se24      1.0  0.26554772  0.0044810350000000256  0.4792917252006698  1.0000
