data_image0
_chemical_formula_structural       COV6Ni18V6Ni18
_chemical_formula_sum              "C1 O1 V12 Ni36"
_cell_length_a       7.11098078
_cell_length_b       10.160265099294385
_cell_length_c       102.32496279
_cell_angle_alpha    70.51935489162463
_cell_angle_beta     90.0
_cell_angle_gamma    90.0

_space_group_name_H-M_alt    "P 1"
_space_group_IT_number       1

loop_
  _space_group_symop_operation_xyz
  'x, y, z'

loop_
  _atom_site_type_symbol
  _atom_site_label
  _atom_site_symmetry_multiplicity
  _atom_site_fract_x
  _atom_site_fract_y
  _atom_site_fract_z
  _atom_site_occupancy
  C   C1        1.0  0.6239176299999999  0.38642245000000003  0.5347229063909317  1.0000
  O   O1        1.0  0.62391827  0.31262502000000003  0.5464638520706885  1.0000
  V   V1        1.0  0.12391994999999995  0.7080352400000001  0.4666988554506167  1.0000
  V   V2        1.0  0.12392102999999995  0.04365828000000002  0.5172073350142405  1.0000
  V   V3        1.0  0.12391985999999995  0.37683107  0.49340667660059334  1.0000
  V   V4        1.0  0.3737199199999999  0.70354912  0.5067228539082033  1.0000
  V   V5        1.0  0.37391995  0.04136857000000002  0.4798615629719219  1.0000
  V   V6        1.0  0.37391995  0.37470190000000003  0.4535361479293114  1.0000
  Ni  Ni1       1.0  0.37391995  0.79136857  0.4798615629719219  1.0000
  Ni  Ni2       1.0  0.37391995  0.1247019  0.4535361479293114  1.0000
  Ni  Ni3       1.0  0.37176075  0.45574341000000007  0.5057445436475715  1.0000
  Ni  Ni4       1.0  0.12392412999999994  0.6244034300000001  0.4925850046529673  1.0000
  Ni  Ni5       1.0  0.12391994999999995  0.9580352400000001  0.4666988554506167  1.0000
  Ni  Ni6       1.0  0.12391808999999994  0.29071127  0.5179003736231427  1.0000
  Ni  Ni7       1.0  0.37391995  0.54136857  0.4798615629719219  1.0000
  Ni  Ni8       1.0  0.37391995  0.8747019000000001  0.4535361479293114  1.0000
  Ni  Ni9       1.0  0.37817054999999994  0.20270495000000002  0.5074187135483558  1.0000
  Ni  Ni10      1.0  0.12392224999999994  0.79280703  0.5183508919979082  1.0000
  Ni  Ni11      1.0  0.12392653999999995  0.12613698  0.4932810348817957  1.0000
  Ni  Ni12      1.0  0.12391994999999995  0.4580352400000001  0.4666988554506167  1.0000
  Ni  Ni13      1.0  0.37566679999999997  0.9586283800000002  0.506740266589336  1.0000
  Ni  Ni14      1.0  0.37391995  0.29136857000000005  0.4798615629719219  1.0000
  Ni  Ni15      1.0  0.37391995  0.6247019  0.4535361479293114  1.0000
  Ni  Ni16      1.0  0.12392605999999995  0.87774422  0.4926675221863253  1.0000
  Ni  Ni17      1.0  0.12391994999999995  0.20803524  0.4666988554506167  1.0000
  Ni  Ni18      1.0  0.12392265999999993  0.5485597900000001  0.5184665005753274  1.0000
  V   V7        1.0  0.6239199499999999  0.7080352400000001  0.4666988554506167  1.0000
  V   V8        1.0  0.62391871  0.042973710000000026  0.5174522403307894  1.0000
  V   V9        1.0  0.62392056  0.37733552000000004  0.4935247429185644  1.0000
  V   V10       1.0  0.8741233599999999  0.70354474  0.5067230939959692  1.0000
  V   V11       1.0  0.87391995  0.04136857000000002  0.4798615629719219  1.0000
  V   V12       1.0  0.87391995  0.37470190000000003  0.4535361479293114  1.0000
  Ni  Ni19      1.0  0.87391995  0.79136857  0.4798615629719219  1.0000
  Ni  Ni20      1.0  0.87391995  0.1247019  0.4535361479293114  1.0000
  Ni  Ni21      1.0  0.87608191  0.45574093  0.5057446731686032  1.0000
  Ni  Ni22      1.0  0.62391834  0.62408127  0.49286204382156323  1.0000
  Ni  Ni23      1.0  0.6239199499999999  0.9580352400000001  0.4666988554506167  1.0000
  Ni  Ni24      1.0  0.62392199  0.2904445  0.5193359689426811  1.0000
  Ni  Ni25      1.0  0.87391995  0.54136857  0.4798615629719219  1.0000
  Ni  Ni26      1.0  0.87391995  0.8747019000000001  0.4535361479293114  1.0000
  Ni  Ni27      1.0  0.86967251  0.20270432000000002  0.5074179206269182  1.0000
  Ni  Ni28      1.0  0.6239167699999999  0.78604662  0.5182851648129211  1.0000
  Ni  Ni29      1.0  0.62391487  0.12565747000000002  0.4932180023660769  1.0000
  Ni  Ni30      1.0  0.6239199499999999  0.4580352400000001  0.4666988554506167  1.0000
  Ni  Ni31      1.0  0.8721690699999999  0.95863143  0.5067406804248273  1.0000
  Ni  Ni32      1.0  0.87391995  0.29136857000000005  0.4798615629719219  1.0000
  Ni  Ni33      1.0  0.87391995  0.6247019  0.4535361479293114  1.0000
  Ni  Ni34      1.0  0.6239137299999999  0.87797255  0.4926290828713718  1.0000
  Ni  Ni35      1.0  0.6239199499999999  0.20803524  0.4666988554506167  1.0000
  Ni  Ni36      1.0  0.6239180400000001  0.53864554  0.5191042084313195  1.0000
