data_image0
_chemical_formula_structural       COCa4Si2
_chemical_formula_sum              "C1 O1 Ca4 Si2"
_cell_length_a       5.12390809
_cell_length_b       5.12390809
_cell_length_c       98.98520128
_cell_angle_alpha    90.0
_cell_angle_beta     90.0
_cell_angle_gamma    90.0

_space_group_name_H-M_alt    "P 1"
_space_group_IT_number       1

loop_
  _space_group_symop_operation_xyz
  'x, y, z'

loop_
  _atom_site_type_symbol
  _atom_site_label
  _atom_site_symmetry_multiplicity
  _atom_site_fract_x
  _atom_site_fract_y
  _atom_site_fract_z
  _atom_site_occupancy
  C   C1        1.0  0.9999973649999999  0.7499987249999999  0.5339155930900679  1.0000
  O   O1        1.0  0.999995345  0.749997975  0.5456762373624934  1.0000
  Ca  Ca1       1.0  5.07499999998872e-06  0.750000895  0.5078741300930519  1.0000
  Ca  Ca2       1.0  0.500006965  0.250000785  0.5093267224706831  1.0000
  Ca  Ca3       1.0  0.500002635  0.24999910499999997  0.4726252365606195  1.0000
  Ca  Ca4       1.0  2.6349999999887194e-06  0.7499991049999999  0.4726252365606195  1.0000
  Si  Si1       1.0  2.6349999999887194e-06  0.24999910499999997  0.4543237626375066  1.0000
  Si  Si2       1.0  0.500004435  0.750000115  0.4927726381389192  1.0000
