data_image0
_chemical_formula_structural       COGe4Na8Zn4
_chemical_formula_sum              "C1 O1 Ge4 Na8 Zn4"
_cell_length_a       6.0187429021973
_cell_length_b       5.60851453
_cell_length_c       105.31127131
_cell_angle_alpha    90.0
_cell_angle_beta     87.16836538998427
_cell_angle_gamma    90.0

_space_group_name_H-M_alt    "P 1"
_space_group_IT_number       1

loop_
  _space_group_symop_operation_xyz
  'x, y, z'

loop_
  _atom_site_type_symbol
  _atom_site_label
  _atom_site_symmetry_multiplicity
  _atom_site_fract_x
  _atom_site_fract_y
  _atom_site_fract_z
  _atom_site_occupancy
  C   C1        1.0  0.968376805  0.37498853000000004  0.5520271301782197  1.0000
  O   O1        1.0  0.037934825000000005  0.37499787000000007  0.5623201995929169  1.0000
  Ge  Ge1       1.0  0.332318625  0.875  0.508212128656453  1.0000
  Ge  Ge2       1.0  0.16565196499999998  0.875  0.45232816128635556  1.0000
  Ge  Ge3       1.0  0.8228575250000001  0.37500596  0.5362555216281066  1.0000
  Ge  Ge4       1.0  0.712436575  0.37500000000000006  0.482721128699307  1.0000
  Na  Na1       1.0  0.6797986749999999  0.875  0.4414855188554438  1.0000
  Na  Na2       1.0  0.8464653449999999  0.875  0.49736948957857946  1.0000
  Na  Na3       1.0  0.03162319500000001  0.37500000000000006  0.43767980040708315  1.0000
  Na  Na4       1.0  0.19828986499999998  0.37500000000000006  0.4935637711302189  1.0000
  Na  Na5       1.0  0.44282990499999997  0.37500000000000006  0.45737682751541353  1.0000
  Na  Na6       1.0  0.590520195  0.37499593  0.5115626587602246  1.0000
  Na  Na7       1.0  0.6086356249999999  0.8749903700000001  0.5348637056584568  1.0000
  Na  Na8       1.0  0.43525863499999995  0.875  0.47767246247024914  1.0000
  Zn  Zn1       1.0  0.126003575  0.14054366000000001  0.5226954597027631  1.0000
  Zn  Zn2       1.0  0.9390442649999999  0.12500000000000003  0.4675246433163122  1.0000
  Zn  Zn3       1.0  0.125971435  0.6095140600000001  0.5226968411544916  1.0000
  Zn  Zn4       1.0  0.9390442649999999  0.625  0.4675246433163122  1.0000
