data_image0
_chemical_formula_structural       COV2Rh2V2Rh2V2Rh2V2Rh2V2Rh2V2Rh2
_chemical_formula_sum              "C1 O1 V12 Rh12"
_cell_length_a       7.829173459566454
_cell_length_b       5.4881435
_cell_length_c       100.18478921
_cell_angle_alpha    90.0
_cell_angle_beta     69.48251802583074
_cell_angle_gamma    90.0

_space_group_name_H-M_alt    "P 1"
_space_group_IT_number       1

loop_
  _space_group_symop_operation_xyz
  'x, y, z'

loop_
  _atom_site_type_symbol
  _atom_site_label
  _atom_site_symmetry_multiplicity
  _atom_site_fract_x
  _atom_site_fract_y
  _atom_site_fract_z
  _atom_site_occupancy
  C   C1        1.0  0.795716105  0.37626496000000004  0.5365652379156616  1.0000
  O   O1        1.0  0.7212975450000002  0.37626496000000004  0.5492460878212458  1.0000
  V   V1        1.0  0.6340066850000001  0.37626509999999996  0.5106355109080073  1.0000
  V   V2        1.0  0.15519252500000005  0.37626509999999996  0.523211942343692  1.0000
  Rh  Rh1       1.0  0.3849084950000001  0.12373492000000001  0.5059541546485689  1.0000
  Rh  Rh2       1.0  0.8723169750000002  0.13324635  0.519925009680208  1.0000
  V   V3        1.0  0.637044445  0.37626508000000003  0.4849915404678327  1.0000
  V   V4        1.0  0.12486341500000003  0.37626505000000005  0.5003109204033743  1.0000
  Rh  Rh3       1.0  0.3870444450000001  0.12626508  0.4781440154125992  1.0000
  Rh  Rh4       1.0  0.887044445  0.12626508  0.49183906552306617  1.0000
  V   V5        1.0  0.637044445  0.37626508000000003  0.4576014372339875  1.0000
  V   V6        1.0  0.13704444500000004  0.37626508000000003  0.4712964903573658  1.0000
  Rh  Rh5       1.0  0.3870444450000001  0.12626508  0.4507539121787541  1.0000
  Rh  Rh6       1.0  0.887044445  0.12626508  0.464448962289221  1.0000
  V   V7        1.0  0.6440410050000002  0.87626507  0.5105320866988652  1.0000
  V   V8        1.0  0.11295555500000004  0.8762650799999999  0.5232534723142346  1.0000
  Rh  Rh7       1.0  0.3849084850000001  0.6287951700000001  0.505954148622746  1.0000
  Rh  Rh8       1.0  0.8723169850000002  0.61928377  0.5199250157060308  1.0000
  V   V9        1.0  0.637044445  0.8762650799999999  0.4849915404678327  1.0000
  V   V10       1.0  0.13425891500000006  0.8762650499999999  0.4991283858264527  1.0000
  Rh  Rh9       1.0  0.3870444450000001  0.62626508  0.4781440154125992  1.0000
  Rh  Rh10      1.0  0.887044445  0.62626508  0.49183906552306617  1.0000
  V   V11       1.0  0.637044445  0.8762650799999999  0.4576014372339875  1.0000
  V   V12       1.0  0.13704444500000004  0.8762650799999999  0.4712964903573658  1.0000
  Rh  Rh11      1.0  0.3870444450000001  0.62626508  0.4507539121787541  1.0000
  Rh  Rh12      1.0  0.887044445  0.62626508  0.464448962289221  1.0000
