data_image0
_chemical_formula_structural       COGa8Rh4Ru4Ga8Rh4Ru4Ga8Rh4Ru4Ga8Rh4Ru4
_chemical_formula_sum              "C1 O1 Ga32 Rh16 Ru16"
_cell_length_a       8.60244116
_cell_length_b       8.60244116
_cell_length_c       106.49706688
_cell_angle_alpha    90.0
_cell_angle_beta     90.0
_cell_angle_gamma    90.0

_space_group_name_H-M_alt    "P 1"
_space_group_IT_number       1

loop_
  _space_group_symop_operation_xyz
  'x, y, z'

loop_
  _atom_site_type_symbol
  _atom_site_label
  _atom_site_symmetry_multiplicity
  _atom_site_fract_x
  _atom_site_fract_y
  _atom_site_fract_z
  _atom_site_occupancy
  C   C1        1.0  0.50236306  0.50236405  0.552833214326243  1.0000
  O   O1        1.0  0.49970571  0.49970656999999996  0.5640214258703151  1.0000
  Ga  Ga1       1.0  0.37596430999999997  0.12431925999999999  0.50702294189335  1.0000
  Ga  Ga2       1.0  0.3774465400000001  0.13049513999999998  0.5344976555823062  1.0000
  Ga  Ga3       1.0  0.13049487000000004  0.37744830999999995  0.534497604176571  1.0000
  Ga  Ga4       1.0  0.12431902000000002  0.37596373  0.5070229007687617  1.0000
  Ga  Ga5       1.0  0.37536008000000004  0.12536062999999997  0.45025794276619147  1.0000
  Ga  Ga6       1.0  0.37536008000000004  0.12536062999999997  0.47881668689330276  1.0000
  Ga  Ga7       1.0  0.12536008  0.37536063000000003  0.47881668689330276  1.0000
  Ga  Ga8       1.0  0.12536008  0.37536063000000003  0.45025794276619147  1.0000
  Rh  Rh1       1.0  0.37536008000000004  0.37536063000000003  0.49309605552980934  1.0000
  Rh  Rh2       1.0  0.12475378000000002  0.12475433  0.5214481383198019  1.0000
  Rh  Rh3       1.0  0.37536008000000004  0.37536063000000003  0.4359785741296849  1.0000
  Rh  Rh4       1.0  0.12536008  0.12536062999999997  0.46453731482974714  1.0000
  Ru  Ru1       1.0  0.12536008  0.12536062999999997  0.49309605552980934  1.0000
  Ru  Ru2       1.0  0.37620154000000006  0.37620217  0.5217937493594808  1.0000
  Ru  Ru3       1.0  0.12536008  0.12536062999999997  0.4359785741296849  1.0000
  Ru  Ru4       1.0  0.37536008000000004  0.37536063000000003  0.46453731482974714  1.0000
  Ga  Ga9       1.0  0.37479376  0.6263735  0.507282139891962  1.0000
  Ga  Ga10      1.0  0.38025364  0.61987938  0.5369077860662207  1.0000
  Ga  Ga11      1.0  0.12732052000000002  0.87414486  0.5351704915436657  1.0000
  Ga  Ga12      1.0  0.12552732000000003  0.87506021  0.5071177203610772  1.0000
  Ga  Ga13      1.0  0.37536008000000004  0.62536063  0.45025794276619147  1.0000
  Ga  Ga14      1.0  0.37536008000000004  0.62536063  0.47881668689330276  1.0000
  Ga  Ga15      1.0  0.12536008  0.87536063  0.47881668689330276  1.0000
  Ga  Ga16      1.0  0.12536008  0.87536063  0.45025794276619147  1.0000
  Rh  Rh5       1.0  0.37536008000000004  0.87536063  0.49309605552980934  1.0000
  Rh  Rh6       1.0  0.12672278000000003  0.62618372  0.5216405774034832  1.0000
  Rh  Rh7       1.0  0.37536008000000004  0.87536063  0.4359785741296849  1.0000
  Rh  Rh8       1.0  0.12536008  0.62536063  0.46453731482974714  1.0000
  Ru  Ru5       1.0  0.12536008  0.62536063  0.49309605552980934  1.0000
  Ru  Ru6       1.0  0.37545957999999996  0.8731426  0.523034330823968  1.0000
  Ru  Ru7       1.0  0.12536008  0.62536063  0.4359785741296849  1.0000
  Ru  Ru8       1.0  0.37536008000000004  0.87536063  0.46453731482974714  1.0000
  Ga  Ga17      1.0  0.87505882  0.12552781999999998  0.5071177717668125  1.0000
  Ga  Ga18      1.0  0.87414632  0.12732093  0.5351705943551364  1.0000
  Ga  Ga19      1.0  0.61987972  0.38025615999999995  0.536907834044907  1.0000
  Ga  Ga20      1.0  0.6263731100000001  0.37479349  0.5072821638813051  1.0000
  Ga  Ga21      1.0  0.8753600800000001  0.12536062999999997  0.45025794276619147  1.0000
  Ga  Ga22      1.0  0.8753600800000001  0.12536062999999997  0.47881668689330276  1.0000
  Ga  Ga23      1.0  0.62536008  0.37536063000000003  0.47881668689330276  1.0000
  Ga  Ga24      1.0  0.62536008  0.37536063000000003  0.45025794276619147  1.0000
  Rh  Rh9       1.0  0.8753600800000001  0.37536063000000003  0.49309605552980934  1.0000
  Rh  Rh10      1.0  0.6261836399999999  0.12672355999999999  0.5216408172969146  1.0000
  Rh  Rh11      1.0  0.8753600800000001  0.37536063000000003  0.4359785741296849  1.0000
  Rh  Rh12      1.0  0.62536008  0.12536062999999997  0.46453731482974714  1.0000
  Ru  Ru9       1.0  0.62536008  0.12536062999999997  0.49309605552980934  1.0000
  Ru  Ru10      1.0  0.87314284  0.37546055  0.52303432396987  1.0000
  Ru  Ru11      1.0  0.62536008  0.12536062999999997  0.4359785741296849  1.0000
  Ru  Ru12      1.0  0.8753600800000001  0.37536063000000003  0.46453731482974714  1.0000
  Ga  Ga25      1.0  0.8749922099999999  0.6252226  0.5071857438570968  1.0000
  Ga  Ga26      1.0  0.8705621  0.62426907  0.5347322336607508  1.0000
  Ga  Ga27      1.0  0.62426903  0.870562  0.5347322336607508  1.0000
  Ga  Ga28      1.0  0.6252222000000001  0.87499374  0.5071857541382438  1.0000
  Ga  Ga29      1.0  0.8753600800000001  0.62536063  0.45025794276619147  1.0000
  Ga  Ga30      1.0  0.8753600800000001  0.62536063  0.47881668689330276  1.0000
  Ga  Ga31      1.0  0.62536008  0.87536063  0.47881668689330276  1.0000
  Ga  Ga32      1.0  0.62536008  0.87536063  0.45025794276619147  1.0000
  Rh  Rh13      1.0  0.8753600800000001  0.87536063  0.49309605552980934  1.0000
  Rh  Rh14      1.0  0.62240997  0.62241079  0.5213555463093501  1.0000
  Rh  Rh15      1.0  0.8753600800000001  0.87536063  0.4359785741296849  1.0000
  Rh  Rh16      1.0  0.62536008  0.62536063  0.46453731482974714  1.0000
  Ru  Ru13      1.0  0.62536008  0.62536063  0.49309605552980934  1.0000
  Ru  Ru14      1.0  0.8756809799999999  0.87568074  0.5230505064953476  1.0000
  Ru  Ru15      1.0  0.62536008  0.62536063  0.4359785741296849  1.0000
  Ru  Ru16      1.0  0.8753600800000001  0.87536063  0.46453731482974714  1.0000
