data_image0
_chemical_formula_structural       COCa2Zn2Si2Ca2Zn2Si2Ca2Zn2Si2Ca2Zn2Si2
_chemical_formula_sum              "C1 O1 Ca8 Zn8 Si8"
_cell_length_a       8.566588473550604
_cell_length_b       8.56658846
_cell_length_c       103.2685554
_cell_angle_alpha    90.0
_cell_angle_beta     90.0
_cell_angle_gamma    120.00000002490424

_space_group_name_H-M_alt    "P 1"
_space_group_IT_number       1

loop_
  _space_group_symop_operation_xyz
  'x, y, z'

loop_
  _atom_site_type_symbol
  _atom_site_label
  _atom_site_symmetry_multiplicity
  _atom_site_fract_x
  _atom_site_fract_y
  _atom_site_fract_z
  _atom_site_occupancy
  C   C1        1.0  0.2504335449999999  0.08319051499999994  0.5331544122794194  1.0000
  O   O1        1.0  0.250541335  0.08293625499999997  0.5445567337017218  1.0000
  Ca  Ca1       1.0  0.08321433499999997  0.25150445499999996  0.49612676853971294  1.0000
  Ca  Ca2       1.0  0.08379978499999997  0.25039708499999996  0.4554432662982782  1.0000
  Zn  Zn1       1.0  0.42716161499999994  0.437239145  0.5159498505685296  1.0000
  Zn  Zn2       1.0  0.25046646499999997  0.08373041499999996  0.47557799854514765  1.0000
  Si  Si1       1.0  0.25050666499999996  0.08393333499999991  0.5157433390899343  1.0000
  Si  Si2       1.0  0.417133125  0.4170637449999999  0.47557799854514765  1.0000
  Ca  Ca3       1.0  0.08280487499999997  0.748523065  0.49613252868391416  1.0000
  Ca  Ca4       1.0  0.08379978499999997  0.7503970849999999  0.4554432662982782  1.0000
  Zn  Zn3       1.0  0.427013955  0.907456605  0.5158764699395506  1.0000
  Zn  Zn4       1.0  0.25046646499999997  0.5837304149999999  0.47557799854514765  1.0000
  Si  Si3       1.0  0.245945635  0.581590045  0.5127826861801116  1.0000
  Si  Si4       1.0  0.417133125  0.9170637449999999  0.47557799854514765  1.0000
  Ca  Ca5       1.0  0.585483015  0.25155434499999996  0.4961293522285549  1.0000
  Ca  Ca6       1.0  0.583799785  0.2503970849999999  0.4554432662982782  1.0000
  Zn  Zn5       1.0  0.917195125  0.417339275  0.5155549230979038  1.0000
  Zn  Zn6       1.0  0.7504664649999999  0.08373041499999996  0.47557799854514765  1.0000
  Si  Si5       1.0  0.7527767149999999  0.08841349499999994  0.5127085388205286  1.0000
  Si  Si6       1.0  0.9171331249999999  0.4170637449999998  0.47557799854514765  1.0000
  Ca  Ca7       1.0  0.5837056149999998  0.7502590650000001  0.4957971130386958  1.0000
  Ca  Ca8       1.0  0.583799785  0.7503970849999998  0.4554432662982782  1.0000
  Zn  Zn7       1.0  0.897591155  0.9074988749999998  0.5158873330302924  1.0000
  Zn  Zn8       1.0  0.7504664649999999  0.5837304149999999  0.47557799854514765  1.0000
  Si  Si7       1.0  0.7527538649999999  0.5815390749999999  0.5127951697141045  1.0000
  Si  Si8       1.0  0.9171331249999999  0.9170637449999999  0.47557799854514765  1.0000
