data_image0
_chemical_formula_structural       COCa8Ge4Ca8Ge4
_chemical_formula_sum              "C1 O1 Ca16 Ge8"
_cell_length_a       10.451437782627877
_cell_length_b       7.77978302
_cell_length_c       104.43810636
_cell_angle_alpha    90.0
_cell_angle_beta     61.91877830599288
_cell_angle_gamma    90.0

_space_group_name_H-M_alt    "P 1"
_space_group_IT_number       1

loop_
  _space_group_symop_operation_xyz
  'x, y, z'

loop_
  _atom_site_type_symbol
  _atom_site_label
  _atom_site_symmetry_multiplicity
  _atom_site_fract_x
  _atom_site_fract_y
  _atom_site_fract_z
  _atom_site_occupancy
  C   C1        1.0  0.27421645000000006  0.917531085  0.544447216522406  1.0000
  O   O1        1.0  0.29528618  0.8696385249999999  0.5539047699538729  1.0000
  Ca  Ca1       1.0  0.07263248000000003  0.35863249500000005  0.5097995154533272  1.0000
  Ca  Ca2       1.0  0.9273675199999999  0.655560035  0.49320188390509395  1.0000
  Ca  Ca3       1.0  0.42736752000000006  0.8486487349999999  0.49320188390509395  1.0000
  Ca  Ca4       1.0  0.57152521  0.144351535  0.5098915839904915  1.0000
  Ca  Ca5       1.0  0.67796526  0.47887335500000006  0.5260608813515335  1.0000
  Ca  Ca6       1.0  0.32661623000000006  0.528828175  0.5203009244891904  1.0000
  Ca  Ca7       1.0  0.82738692  0.976972245  0.5199935545302623  1.0000
  Ca  Ca8       1.0  0.18540662000000005  0.017724775  0.5264031978509462  1.0000
  Ge  Ge1       1.0  0.09884133000000002  0.7483909049999999  0.5103945760964514  1.0000
  Ge  Ge2       1.0  0.89592385  0.25443752500000005  0.4946830889676461  1.0000
  Ge  Ge3       1.0  0.39592384999999997  0.24977124499999998  0.4946830889676461  1.0000
  Ge  Ge4       1.0  0.60217708  0.754856625  0.5099157082488596  1.0000
  Ca  Ca9       1.0  0.07559690000000002  0.34864873500000004  0.462665967464884  1.0000
  Ca  Ca10      1.0  0.9273675199999999  0.655560035  0.4460952300461272  1.0000
  Ca  Ca11      1.0  0.42736752000000006  0.8486487349999999  0.4460952300461272  1.0000
  Ca  Ca12      1.0  0.5755969000000001  0.15556003499999999  0.462665967464884  1.0000
  Ca  Ca13      1.0  0.6786846100000001  0.48227522500000003  0.481363177800623  1.0000
  Ca  Ca14      1.0  0.32427981000000006  0.521933545  0.474504673569355  1.0000
  Ca  Ca15      1.0  0.8242798100000001  0.982275225  0.474504673569355  1.0000
  Ca  Ca16      1.0  0.17868461000000005  0.021933545  0.481363177800623  1.0000
  Ge  Ge5       1.0  0.10704057000000004  0.749771245  0.46118476240233175  1.0000
  Ge  Ge6       1.0  0.89592385  0.25443752500000005  0.44757643840614497  1.0000
  Ge  Ge7       1.0  0.39592384999999997  0.24977124499999998  0.44757643840614497  1.0000
  Ge  Ge8       1.0  0.60704057  0.7544375249999999  0.46118476240233175  1.0000
