data_image0
_chemical_formula_structural       COSi12Ru8Si12Ru8
_chemical_formula_sum              "C1 O1 Si24 Ru16"
_cell_length_a       8.96027839
_cell_length_b       5.62005986
_cell_length_c       103.72035916
_cell_angle_alpha    90.0
_cell_angle_beta     90.0
_cell_angle_gamma    90.0

_space_group_name_H-M_alt    "P 1"
_space_group_IT_number       1

loop_
  _space_group_symop_operation_xyz
  'x, y, z'

loop_
  _atom_site_type_symbol
  _atom_site_label
  _atom_site_symmetry_multiplicity
  _atom_site_fract_x
  _atom_site_fract_y
  _atom_site_fract_z
  _atom_site_occupancy
  C   C1        1.0  0.83928634  0.56918038  0.5496063664835844  1.0000
  O   O1        1.0  0.8593343999999999  0.61197273  0.5605373558966086  1.0000
  Si  Si1       1.0  0.79517083  0.8351129899999999  0.49566545497930187  1.0000
  Si  Si2       1.0  0.29879887000000005  0.8437527499999998  0.5131067399374595  1.0000
  Si  Si3       1.0  0.29517083000000005  0.17546226999999995  0.49566545497930187  1.0000
  Si  Si4       1.0  0.79770335  0.16329250999999995  0.5129769534163822  1.0000
  Si  Si5       1.0  0.6462713800000001  0.15224836999999997  0.5350208368897919  1.0000
  Si  Si6       1.0  0.5767655500000001  0.70020364  0.5270986638719766  1.0000
  Si  Si7       1.0  0.45482917000000006  0.64962675  0.4936473771482475  1.0000
  Si  Si8       1.0  0.43466921000000003  0.34772153999999994  0.5150712041436275  1.0000
  Si  Si9       1.0  0.07939802  0.31630981999999996  0.5267947200365136  1.0000
  Si  Si10      1.0  0.95482917  0.36094850999999994  0.4936473771482475  1.0000
  Si  Si11      1.0  0.9339953400000001  0.66738717  0.5152646696454002  1.0000
  Si  Si12      1.0  0.15254433  0.88293724  0.5344798272661363  1.0000
  Ru  Ru1       1.0  0.54517083  0.005287629999999967  0.5048863222342889  1.0000
  Ru  Ru2       1.0  0.04517083  0.005287629999999967  0.5048863222342889  1.0000
  Ru  Ru3       1.0  0.80156687  0.4860109999999999  0.5320754101288097  1.0000
  Ru  Ru4       1.0  0.30419693999999997  0.5408444999999998  0.5309770639380641  1.0000
  Ru  Ru5       1.0  0.90405065  0.99471237  0.5311824219048076  1.0000
  Ru  Ru6       1.0  0.172842  0.50528763  0.5048863222342889  1.0000
  Ru  Ru7       1.0  0.672842  0.50528763  0.5048863222342889  1.0000
  Ru  Ru8       1.0  0.40511426  0.024575359999999966  0.5311160217668732  1.0000
  Si  Si13      1.0  0.79517083  0.8351129899999999  0.44148072518552967  1.0000
  Si  Si14      1.0  0.29517083000000005  0.8351129899999999  0.45992245969550394  1.0000
  Si  Si15      1.0  0.29517083000000005  0.17546226999999995  0.44148072518552967  1.0000
  Si  Si16      1.0  0.79517083  0.17546226999999995  0.45992245969550394  1.0000
  Si  Si17      1.0  0.6355124900000001  0.21270671  0.48561493386611276  1.0000
  Si  Si18      1.0  0.6355124900000001  0.7978685499999999  0.46997298080869293  1.0000
  Si  Si19      1.0  0.45482917000000006  0.64962675  0.43946264410339136  1.0000
  Si  Si20      1.0  0.45482917000000006  0.36094850999999994  0.4619405375265582  1.0000
  Si  Si21      1.0  0.13551248999999999  0.21270671  0.46997298080869293  1.0000
  Si  Si22      1.0  0.95482917  0.36094850999999994  0.43946264410339136  1.0000
  Si  Si23      1.0  0.95482917  0.64962675  0.4619405375265582  1.0000
  Si  Si24      1.0  0.13551248999999999  0.7978685499999999  0.48561493386611276  1.0000
  Ru  Ru9       1.0  0.54517083  0.005287629999999967  0.4507015924405168  1.0000
  Ru  Ru10      1.0  0.04517083  0.005287629999999967  0.4507015924405168  1.0000
  Ru  Ru11      1.0  0.79517083  0.50528763  0.4777939573374028  1.0000
  Ru  Ru12      1.0  0.29517083000000005  0.50528763  0.4777939573374028  1.0000
  Ru  Ru13      1.0  0.91749966  0.005287629999999967  0.4777939573374028  1.0000
  Ru  Ru14      1.0  0.172842  0.50528763  0.4507015924405168  1.0000
  Ru  Ru15      1.0  0.672842  0.50528763  0.4507015924405168  1.0000
  Ru  Ru16      1.0  0.41749966000000005  0.005287629999999967  0.4777939573374028  1.0000
