data_image0
_chemical_formula_structural       COSi12Rh12
_chemical_formula_sum              "C1 O1 Si12 Rh12"
_cell_length_a       6.70200555
_cell_length_b       6.702005545244611
_cell_length_c       102.83298769000001
_cell_angle_alpha    90.0
_cell_angle_beta     90.0
_cell_angle_gamma    60.00000002588633

_space_group_name_H-M_alt    "P 1"
_space_group_IT_number       1

loop_
  _space_group_symop_operation_xyz
  'x, y, z'

loop_
  _atom_site_type_symbol
  _atom_site_label
  _atom_site_symmetry_multiplicity
  _atom_site_fract_x
  _atom_site_fract_y
  _atom_site_fract_z
  _atom_site_occupancy
  C   C1        1.0  0.688702495  0.688717925  0.5360417378320823  1.0000
  O   O1        1.0  0.688600025  0.688668345  0.547761745790413  1.0000
  Si  Si1       1.0  0.6362230349999999  0.969375515  0.5062634695400853  1.0000
  Si  Si2       1.0  0.9779345249999999  0.294135435  0.4788453049998915  1.0000
  Si  Si3       1.0  0.311267855  0.627468765  0.452238254209587  1.0000
  Si  Si4       1.0  0.9693702549999998  0.46061988499999995  0.5062631023628137  1.0000
  Si  Si5       1.0  0.29413174500000006  0.794135435  0.4788453049998915  1.0000
  Si  Si6       1.0  0.6274650749999999  0.127468765  0.452238254209587  1.0000
  Si  Si7       1.0  0.4606130149999999  0.636231135  0.5062624925292584  1.0000
  Si  Si8       1.0  0.7941317449999998  0.977938215  0.4788453049998915  1.0000
  Si  Si9       1.0  0.12746507499999993  0.311271545  0.452238254209587  1.0000
  Si  Si10      1.0  0.6887326749999999  0.688736365  0.4620191542971153  1.0000
  Si  Si11      1.0  0.02206547499999993  0.022061785  0.5159370708503344  1.0000
  Si  Si12      1.0  0.35539933499999987  0.355403025  0.48862620189457395  1.0000
  Rh  Rh1       1.0  0.749516725  0.420959035  0.5226986498841341  1.0000
  Rh  Rh2       1.0  0.0500488149999999  0.762407555  0.4970101265634482  1.0000
  Rh  Rh3       1.0  0.39181383499999983  0.08719578500000001  0.4705862237961839  1.0000
  Rh  Rh4       1.0  0.42095812500000007  0.895731995  0.522698809526426  1.0000
  Rh  Rh5       1.0  0.7623947349999999  0.253748725  0.49700972107202657  1.0000
  Rh  Rh6       1.0  0.08719209499999993  0.587195785  0.4705862237961839  1.0000
  Rh  Rh7       1.0  0.8957089450000001  0.749516475  0.5227007922836923  1.0000
  Rh  Rh8       1.0  0.2537364449999999  0.050067495  0.4970097114934891  1.0000
  Rh  Rh9       1.0  0.587192095  0.391817525  0.4705862237961839  1.0000
  Rh  Rh10      1.0  0.6887326749999999  0.688736365  0.4867963947153921  1.0000
  Rh  Rh11      1.0  0.022066004999999934  0.022069695  0.46018934711793347  1.0000
  Rh  Rh12      1.0  0.3554034349999998  0.35540477500000006  0.5115288618564628  1.0000
