data_image0
_chemical_formula_structural       CONa16Ge16Au16
_chemical_formula_sum              "C1 O1 Na16 Ge16 Au16"
_cell_length_a       8.94084834323684
_cell_length_b       15.569586323707536
_cell_length_c       105.76339337
_cell_angle_alpha    81.41943525135812
_cell_angle_beta     118.70935345482089
_cell_angle_gamma    81.41943527831734

_space_group_name_H-M_alt    "P 1"
_space_group_IT_number       1

loop_
  _space_group_symop_operation_xyz
  'x, y, z'

loop_
  _atom_site_type_symbol
  _atom_site_label
  _atom_site_symmetry_multiplicity
  _atom_site_fract_x
  _atom_site_fract_y
  _atom_site_fract_z
  _atom_site_occupancy
  C   C1        1.0  0.86168703  0.844329185  0.5476602328705699  1.0000
  O   O1        1.0  0.7928824500000001  0.831653125  0.5543401409180146  1.0000
  Na  Na1       1.0  0.5883334100000001  0.6268797149999998  0.4886328470501048  1.0000
  Na  Na2       1.0  0.8260657100000001  0.12817817499999995  0.5082427851468252  1.0000
  Na  Na3       1.0  0.33833341000000006  0.12687971499999995  0.46749876639702476  1.0000
  Na  Na4       1.0  0.08833340999999996  0.6268797149999998  0.4463646857439449  1.0000
  Na  Na5       1.0  0.02523298999999997  0.6268797149999998  0.49396712282147115  1.0000
  Na  Na6       1.0  0.23715877000000002  0.11727722499999994  0.5161820443180374  1.0000
  Na  Na7       1.0  0.77523299  0.12687971499999995  0.47283304216839117  1.0000
  Na  Na8       1.0  0.52523299  0.6268797149999997  0.45169896151531125  1.0000
  Na  Na9       1.0  0.9633334100000001  0.876879715  0.47806580672356486  1.0000
  Na  Na10      1.0  0.20860933999999998  0.37159706500000006  0.4988085247803845  1.0000
  Na  Na11      1.0  0.7133334100000001  0.376879715  0.4569317260704849  1.0000
  Na  Na12      1.0  0.43481852  0.8710600349999998  0.5179313510604012  1.0000
  Na  Na13      1.0  0.40023299  0.876879715  0.4834000824949312  1.0000
  Na  Na14      1.0  0.64324226  0.36918279499999995  0.5060515732316379  1.0000
  Na  Na15      1.0  0.15023298999999998  0.37687971499999995  0.4622660018418513  1.0000
  Na  Na16      1.0  0.92538259  0.866875335  0.5251677820083204  1.0000
  Ge  Ge1       1.0  0.8466709700000001  0.714626595  0.45937614117916076  1.0000
  Ge  Ge2       1.0  0.09667096999999997  0.21462659499999995  0.4805102218322407  1.0000
  Ge  Ge3       1.0  0.5765091800000001  0.12815793499999995  0.5200423819643174  1.0000
  Ge  Ge4       1.0  0.35066497999999996  0.7119534449999999  0.5022601834100805  1.0000
  Ge  Ge5       1.0  0.6844178500000001  0.03913283499999993  0.4456598590819853  1.0000
  Ge  Ge6       1.0  0.9344178500000001  0.5391328349999999  0.4667939397350653  1.0000
  Ge  Ge7       1.0  0.44209648  0.538579725  0.5099016515498055  1.0000
  Ge  Ge8       1.0  0.18441784999999997  0.03913283499999994  0.48792802038814514  1.0000
  Ge  Ge9       1.0  0.72167097  0.9646265949999999  0.4910772621587807  1.0000
  Ge  Ge10      1.0  0.9747670100000001  0.44905257499999984  0.5126747235920807  1.0000
  Ge  Ge11      1.0  0.47167096999999997  0.464626595  0.4699431815057007  1.0000
  Ge  Ge12      1.0  0.22167097  0.964626595  0.4488091008526207  1.0000
  Ge  Ge13      1.0  0.8096388300000001  0.7880089349999999  0.4986129043484067  1.0000
  Ge  Ge14      1.0  0.04993122999999998  0.2822204849999999  0.5192221733663507  1.0000
  Ge  Ge15      1.0  0.55941785  0.2891328349999999  0.47736098006160527  1.0000
  Ge  Ge16      1.0  0.30941785  0.789132835  0.4562268994085253  1.0000
  Au  Au1       1.0  0.55292762  0.978165685  0.4619294965560607  1.0000
  Au  Au2       1.0  0.8029276200000001  0.47816568499999995  0.48306357720914056  1.0000
  Au  Au3       1.0  0.27913744999999995  0.475484935  0.5212557047511488  1.0000
  Au  Au4       1.0  0.039889709999999974  0.979629765  0.5026004488715009  1.0000
  Au  Au5       1.0  0.6542136  0.775593745  0.4704918425281721  1.0000
  Au  Au6       1.0  0.9042136  0.27559374499999995  0.4916259231812521  1.0000
  Au  Au7       1.0  0.4042136  0.27559374499999995  0.4493577618750922  1.0000
  Au  Au8       1.0  0.1375697  0.774380575  0.5103046361996983  1.0000
  Au  Au9       1.0  0.17792761999999998  0.7281656849999999  0.4724965368826006  1.0000
  Au  Au10      1.0  0.42792761999999995  0.228165685  0.4936306175356805  1.0000
  Au  Au11      1.0  0.9279276200000001  0.22816568499999998  0.4513624562295207  1.0000
  Au  Au12      1.0  0.6675568300000001  0.7275687049999998  0.5126271127351854  1.0000
  Au  Au13      1.0  0.029213599999999968  0.02559374499999995  0.4599248022016321  1.0000
  Au  Au14      1.0  0.27921360000000006  0.525593745  0.48105888285471204  1.0000
  Au  Au15      1.0  0.7662494900000001  0.5265389149999999  0.5198253806056243  1.0000
  Au  Au16      1.0  0.53645648  0.020370234999999945  0.5031455796571399  1.0000
