data_image0
_chemical_formula_structural       COCa2Pb2Ca2Pb2Ca2Pb2Ca2Pb2
_chemical_formula_sum              "C1 O1 Ca8 Pb8"
_cell_length_a       7.33768456
_cell_length_b       5.971406003537842
_cell_length_c       105.82843603
_cell_angle_alpha    75.8169259304229
_cell_angle_beta     90.0
_cell_angle_gamma    90.0

_space_group_name_H-M_alt    "P 1"
_space_group_IT_number       1

loop_
  _space_group_symop_operation_xyz
  'x, y, z'

loop_
  _atom_site_type_symbol
  _atom_site_label
  _atom_site_symmetry_multiplicity
  _atom_site_fract_x
  _atom_site_fract_y
  _atom_site_fract_z
  _atom_site_occupancy
  C   C1        1.0  0.18785393  0.9276440050000001  0.5490512316973415  1.0000
  O   O1        1.0  0.26001723  0.893214535  0.5591789220618812  1.0000
  Ca  Ca1       1.0  8.300000000106536e-07  0.0076275650000000176  0.46903374926802005  1.0000
  Ca  Ca2       1.0  8.300000000106536e-07  0.5076275650000001  0.4408210779381187  1.0000
  Pb  Pb1       1.0  0.25000083  0.0076275650000000176  0.4408210779381187  1.0000
  Pb  Pb2       1.0  0.25000083  0.5076275650000001  0.46903374926802005  1.0000
  Ca  Ca3       1.0  0.01440240000000001  0.992372435  0.5273270360436905  1.0000
  Ca  Ca4       1.0  0.9999991699999999  0.493247905  0.49795786068781195  1.0000
  Pb  Pb3       1.0  0.24999891999999999  0.9847587250000001  0.4981719914862506  1.0000
  Pb  Pb4       1.0  0.25494882  0.503645115  0.5270023747656013  1.0000
  Ca  Ca5       1.0  0.50000083  0.0076275650000000176  0.46903374926802005  1.0000
  Ca  Ca6       1.0  0.50000083  0.5076275650000001  0.4408210779381187  1.0000
  Pb  Pb5       1.0  0.75000083  0.0076275650000000176  0.4408210779381187  1.0000
  Pb  Pb6       1.0  0.75000083  0.5076275650000001  0.46903374926802005  1.0000
  Ca  Ca7       1.0  0.50847961  0.9913778050000001  0.5262039301793696  1.0000
  Ca  Ca8       1.0  0.49999916999999994  0.493247905  0.49795786068781195  1.0000
  Pb  Pb7       1.0  0.7499989199999999  0.9847587250000001  0.4981719914862506  1.0000
  Pb  Pb8       1.0  0.7596614399999999  0.502522785  0.5273449623757706  1.0000
