data_image0
_chemical_formula_structural       CONa4Cu4Se4Na4Cu4Se4
_chemical_formula_sum              "C1 O1 Na8 Cu8 Se8"
_cell_length_a       6.9768942
_cell_length_b       5.86651578
_cell_length_c       105.19909468
_cell_angle_alpha    90.0
_cell_angle_beta     90.0
_cell_angle_gamma    90.0

_space_group_name_H-M_alt    "P 1"
_space_group_IT_number       1

loop_
  _space_group_symop_operation_xyz
  'x, y, z'

loop_
  _atom_site_type_symbol
  _atom_site_label
  _atom_site_symmetry_multiplicity
  _atom_site_fract_x
  _atom_site_fract_y
  _atom_site_fract_z
  _atom_site_occupancy
  C   C1        1.0  0.6282991100000002  0.23788795  0.5521043633400985  1.0000
  O   O1        1.0  0.7032629400000001  0.30936469  0.5611641629669961  1.0000
  Na  Na1       1.0  0.8342698800000001  0.875  0.438835837033004  1.0000
  Na  Na2       1.0  0.8342698800000001  0.375  0.4667187554325608  1.0000
  Na  Na3       1.0  0.1583541400000001  0.375  0.438835837033004  1.0000
  Na  Na4       1.0  0.1583541400000001  0.875  0.4667187554325608  1.0000
  Cu  Cu1       1.0  0.4963120100000001  0.625  0.45277729790575755  1.0000
  Cu  Cu2       1.0  0.4963120100000001  0.125  0.4806602163053143  1.0000
  Cu  Cu3       1.0  0.4963120100000001  0.625  0.4806602163053143  1.0000
  Cu  Cu4       1.0  0.4963120100000001  0.125  0.45277729790575755  1.0000
  Se  Se1       1.0  0.27323185000000005  0.875  0.438835837033004  1.0000
  Se  Se2       1.0  0.27323185000000005  0.375  0.4667187554325608  1.0000
  Se  Se3       1.0  0.7193921700000001  0.375  0.438835837033004  1.0000
  Se  Se4       1.0  0.7193921700000001  0.875  0.4667187554325608  1.0000
  Na  Na5       1.0  0.8342698800000001  0.875  0.49460167717806786  1.0000
  Na  Na6       1.0  0.8482818000000001  0.35964820999999997  0.5218346413777825  1.0000
  Na  Na7       1.0  0.1583541400000001  0.375  0.49460167717806786  1.0000
  Na  Na8       1.0  0.15171820000000008  0.8361321099999999  0.5227401224592764  1.0000
  Cu  Cu5       1.0  0.5120767800000001  0.65378097  0.5058873033508311  1.0000
  Cu  Cu6       1.0  0.53673951  0.14867553  0.5363808526612607  1.0000
  Cu  Cu7       1.0  0.4975876500000001  0.57070298  0.529632984266324  1.0000
  Cu  Cu8       1.0  0.48112811000000005  0.16989063  0.5080386557339891  1.0000
  Se  Se5       1.0  0.27323185000000005  0.875  0.49460167717806786  1.0000
  Se  Se6       1.0  0.2518221200000001  0.31334449999999997  0.5252139776120777  1.0000
  Se  Se7       1.0  0.7193921700000001  0.375  0.49460167717806786  1.0000
  Se  Se8       1.0  0.7104085800000002  0.85788832  0.5241011346041021  1.0000
