data_image0
_chemical_formula_structural       COIn8As6Se2In8As6Se2
_chemical_formula_sum              "C1 O1 In16 As12 Se4"
_cell_length_a       6.38857257
_cell_length_b       12.72542464
_cell_length_c       108.3314354
_cell_angle_alpha    90.0
_cell_angle_beta     90.0
_cell_angle_gamma    90.0

_space_group_name_H-M_alt    "P 1"
_space_group_IT_number       1

loop_
  _space_group_symop_operation_xyz
  'x, y, z'

loop_
  _atom_site_type_symbol
  _atom_site_label
  _atom_site_symmetry_multiplicity
  _atom_site_fract_x
  _atom_site_fract_y
  _atom_site_fract_z
  _atom_site_occupancy
  C   C1        1.0  0.33813978499999997  0.24283031999999996  0.5577846286518807  1.0000
  O   O1        1.0  0.36856112500000004  0.20858991999999996  0.5674248622270314  1.0000
  In  In1       1.0  0.30517715500000003  0.6955422999999998  0.4325751377729687  1.0000
  In  In2       1.0  0.818282615  0.6955422999999998  0.46283423644761185  1.0000
  In  In3       1.0  0.318282615  0.9395761999999999  0.46206137625104055  1.0000
  In  In4       1.0  0.805177155  0.9395761999999999  0.4333480015078883  1.0000
  In  In5       1.0  0.805177155  0.19554229999999992  0.46206137625104055  1.0000
  In  In6       1.0  0.318282615  0.19554229999999992  0.4333480015078883  1.0000
  In  In7       1.0  0.818282615  0.4395762  0.4325751377729687  1.0000
  In  In8       1.0  0.30517715500000003  0.4395762  0.46283423644761185  1.0000
  As  As1       1.0  0.5617298850000001  0.06755924999999996  0.44770468711029027  1.0000
  As  As2       1.0  0.5617298850000001  0.81755925  0.47719092558836207  1.0000
  As  As3       1.0  0.06172988500000003  0.81755925  0.44770468711029027  1.0000
  As  As4       1.0  0.06172988500000003  0.56755925  0.47719092558836207  1.0000
  As  As5       1.0  0.06172988500000003  0.31755924999999996  0.44770468711029027  1.0000
  As  As6       1.0  0.5617298850000001  0.31755924999999996  0.47719092558836207  1.0000
  Se  Se1       1.0  0.06172988500000003  0.06755924999999996  0.47719092558836207  1.0000
  Se  Se2       1.0  0.5617298850000001  0.56755925  0.44770468711029027  1.0000
  In  In9       1.0  0.30517715500000003  0.6955422999999998  0.49154761119076407  1.0000
  In  In10      1.0  0.7975340750000001  0.7004204100000001  0.5223292673008101  1.0000
  In  In11      1.0  0.316930205  0.94034611  0.5218378437924007  1.0000
  In  In12      1.0  0.805177155  0.9395761999999999  0.49232047492568365  1.0000
  In  In13      1.0  0.830749445  0.18831614999999996  0.5213930061781608  1.0000
  In  In14      1.0  0.318282615  0.19554229999999992  0.49232047492568365  1.0000
  In  In15      1.0  0.818282615  0.4395762  0.49154761119076407  1.0000
  In  In16      1.0  0.30934510500000006  0.43662938  0.5230273975805609  1.0000
  As  As7       1.0  0.5617298850000001  0.06755924999999996  0.5066771605280856  1.0000
  As  As8       1.0  0.493684785  0.78967017  0.5356698029518708  1.0000
  As  As9       1.0  0.06172988500000003  0.81755925  0.5066771605280856  1.0000
  As  As10      1.0  0.9452789149999999  0.51308393  0.5343429824784297  1.0000
  As  As11      1.0  0.06172988500000003  0.31755924999999996  0.5066771605280856  1.0000
  As  As12      1.0  0.684009025  0.37308191  0.5340496640165613  1.0000
  Se  Se3       1.0  0.05472108500000004  0.05965388999999996  0.5349296229405152  1.0000
  Se  Se4       1.0  0.5617298850000001  0.56755925  0.5066771605280856  1.0000
