data_image0
_chemical_formula_structural       COCa4In2Pt4
_chemical_formula_sum              "C1 O1 Ca4 In2 Pt4"
_cell_length_a       5.77352147
_cell_length_b       5.903267010372316
_cell_length_c       102.21193908000001
_cell_angle_alpha    92.93420385261588
_cell_angle_beta     90.0
_cell_angle_gamma    119.27557855454906

_space_group_name_H-M_alt    "P 1"
_space_group_IT_number       1

loop_
  _space_group_symop_operation_xyz
  'x, y, z'

loop_
  _atom_site_type_symbol
  _atom_site_label
  _atom_site_symmetry_multiplicity
  _atom_site_fract_x
  _atom_site_fract_y
  _atom_site_fract_z
  _atom_site_occupancy
  C   C1        1.0  0.05007180000000003  0.5826871699999999  0.5273687892519836  1.0000
  O   O1        1.0  0.05305982000000005  0.58795035  0.5394573530347789  1.0000
  Ca  Ca1       1.0  0.8790843400000001  0.04917545999999997  0.46054264696522096  1.0000
  Ca  Ca2       1.0  0.7799345600000002  0.8497932600000001  0.5244174992037368  1.0000
  Ca  Ca3       1.0  0.9499281999999999  0.6024736199999999  0.48403476775553156  1.0000
  Ca  Ca4       1.0  0.29827912  0.29917546  0.49993620921677473  1.0000
  In  In1       1.0  0.4279195500000001  0.22868827000000003  0.5335943902559702  1.0000
  In  In2       1.0  0.62869084  0.95082454  0.49198548848615314  1.0000
  Pt  Pt1       1.0  0.80228622  0.3195088299999999  0.5133103109952373  1.0000
  Pt  Pt2       1.0  0.41823218  0.55448318  0.47258009051015365  1.0000
  Pt  Pt3       1.0  0.2908458800000001  0.8263997900000001  0.5142181561219767  1.0000
  Pt  Pt4       1.0  0.41078035999999996  0.09716588999999996  0.47199732421059903  1.0000
