data_image0
_chemical_formula_structural       COCa4Ge4Ca4Ge4
_chemical_formula_sum              "C1 O1 Ca8 Ge8"
_cell_length_a       8.14154844
_cell_length_b       4.64631521
_cell_length_c       103.07198059000001
_cell_angle_alpha    90.0
_cell_angle_beta     90.0
_cell_angle_gamma    90.0

_space_group_name_H-M_alt    "P 1"
_space_group_IT_number       1

loop_
  _space_group_symop_operation_xyz
  'x, y, z'

loop_
  _atom_site_type_symbol
  _atom_site_label
  _atom_site_symmetry_multiplicity
  _atom_site_fract_x
  _atom_site_fract_y
  _atom_site_fract_z
  _atom_site_occupancy
  C   C1        1.0  0.12490735500000001  0.99999958  0.5570364678791931  1.0000
  O   O1        1.0  0.12490638499999998  0.99999795  0.568284299623838  1.0000
  Ca  Ca1       1.0  0.124907625  0.50000042  0.4787846246343693  1.0000
  Ca  Ca2       1.0  0.37490762499999997  4.199999999842876e-07  0.4545576455870992  1.0000
  Ca  Ca3       1.0  0.12491106500000002  0.9999980500000001  0.5316506024170933  1.0000
  Ca  Ca4       1.0  0.374723395  0.50000134  0.5080432707058888  1.0000
  Ge  Ge1       1.0  0.124907625  0.50000042  0.4481494122999814  1.0000
  Ge  Ge2       1.0  0.37490762499999997  4.199999999842876e-07  0.48519285792148714  1.0000
  Ge  Ge3       1.0  0.124907625  4.199999999842876e-07  0.5016265730539362  1.0000
  Ge  Ge4       1.0  0.37490762499999997  0.50000042  0.43171570037616197  1.0000
  Ca  Ca5       1.0  0.6249076250000001  0.50000042  0.4787846246343693  1.0000
  Ca  Ca6       1.0  0.874907625  4.199999999842876e-07  0.4545576455870992  1.0000
  Ca  Ca7       1.0  0.6249082750000001  8.619999999984286e-06  0.5316903862152689  1.0000
  Ca  Ca8       1.0  0.875093615  0.50000134  0.5080433027921847  1.0000
  Ge  Ge5       1.0  0.6249076250000001  0.50000042  0.4481494122999814  1.0000
  Ge  Ge6       1.0  0.874907625  4.199999999842876e-07  0.48519285792148714  1.0000
  Ge  Ge7       1.0  0.6249076250000001  4.199999999842876e-07  0.5016265730539362  1.0000
  Ge  Ge8       1.0  0.874907625  0.50000042  0.43171570037616197  1.0000
