data_image0
_chemical_formula_structural       COCa10
_chemical_formula_sum              "C1 O1 Ca10"
_cell_length_a       6.859800536498069
_cell_length_b       7.66037206429355
_cell_length_c       107.95840722
_cell_angle_alpha    74.46674625623098
_cell_angle_beta     68.81148091659134
_cell_angle_gamma    89.99999995719057

_space_group_name_H-M_alt    "P 1"
_space_group_IT_number       1

loop_
  _space_group_symop_operation_xyz
  'x, y, z'

loop_
  _atom_site_type_symbol
  _atom_site_label
  _atom_site_symmetry_multiplicity
  _atom_site_fract_x
  _atom_site_fract_y
  _atom_site_fract_z
  _atom_site_occupancy
  C   C1        1.0  0.8543537850000001  0.21672638500000002  0.530308656651403  1.0000
  O   O1        1.0  0.822843435  0.34010030500000005  0.536868954896538  1.0000
  Ca  Ca1       1.0  0.41079220499999997  0.8754643449999999  0.5315395735581109  1.0000
  Ca  Ca2       1.0  0.575741085  0.256520825  0.4982912592984041  1.0000
  Ca  Ca3       1.0  0.990925575  0.04347917500000001  0.51492168901047  1.0000
  Ca  Ca4       1.0  0.775741085  0.656520825  0.4631310451034619  1.0000
  Ca  Ca5       1.0  0.17574108499999996  0.456520825  0.480711152200933  1.0000
  Ca  Ca6       1.0  0.409074425  0.756520825  0.49829125929840423  1.0000
  Ca  Ca7       1.0  0.609074425  0.15652082500000003  0.46313104510346187  1.0000
  Ca  Ca8       1.0  0.009074424999999988  0.956520825  0.48071115220093313  1.0000
  Ca  Ca9       1.0  0.7927766550000002  0.530027035  0.5167167269417857  1.0000
  Ca  Ca10      1.0  0.178131685  0.349123615  0.5325177131369071  1.0000
