data_image0
_chemical_formula_structural       COAu8Ca4Si8
_chemical_formula_sum              "C1 O1 Au8 Ca4 Si8"
_cell_length_a       5.95916875
_cell_length_b       5.9591687459271325
_cell_length_c       107.37466328
_cell_angle_alpha    90.0
_cell_angle_beta     90.0
_cell_angle_gamma    116.97974298779364

_space_group_name_H-M_alt    "P 1"
_space_group_IT_number       1

loop_
  _space_group_symop_operation_xyz
  'x, y, z'

loop_
  _atom_site_type_symbol
  _atom_site_label
  _atom_site_symmetry_multiplicity
  _atom_site_fract_x
  _atom_site_fract_y
  _atom_site_fract_z
  _atom_site_occupancy
  C   C1        1.0  0.5574884849999999  0.5574886900000001  0.5516537392267711  1.0000
  O   O1        1.0  0.557488995  0.5574885100000001  0.5630181473223722  1.0000
  Au  Au1       1.0  0.05748797499999999  0.5574879500000001  0.4369818526776278  1.0000
  Au  Au2       1.0  0.557487975  0.05748795000000002  0.46598827797024384  1.0000
  Au  Au3       1.0  0.557487975  0.05748795000000002  0.4369818526776278  1.0000
  Au  Au4       1.0  0.05748797499999999  0.5574879500000001  0.46598827797024384  1.0000
  Au  Au5       1.0  0.05748797499999999  0.5574879500000001  0.49499470674363105  1.0000
  Au  Au6       1.0  0.557487705  0.05748803000000002  0.5245903291344707  1.0000
  Au  Au7       1.0  0.557487975  0.05748795000000002  0.49499470674363105  1.0000
  Au  Au8       1.0  0.057487924999999995  0.5574877500000001  0.5245903395767842  1.0000
  Ca  Ca1       1.0  0.557487975  0.5574879500000001  0.4514850670643214  1.0000
  Ca  Ca2       1.0  0.057487974999999976  0.05748795000000002  0.48049149235693744  1.0000
  Ca  Ca3       1.0  0.557487975  0.5574879500000001  0.5094979176495534  1.0000
  Ca  Ca4       1.0  0.05748802499999998  0.05748804000000002  0.5365718083438598  1.0000
  Si  Si1       1.0  0.442512075  0.6724638500000001  0.48049149235693744  1.0000
  Si  Si2       1.0  0.942512075  0.17246385000000003  0.4514850670643214  1.0000
  Si  Si3       1.0  0.172463875  0.9425120499999999  0.4514850670643214  1.0000
  Si  Si4       1.0  0.6724638749999999  0.44251205  0.48049149235693744  1.0000
  Si  Si5       1.0  0.442306195  0.6726699899999999  0.5371481822810772  1.0000
  Si  Si6       1.0  0.942512075  0.17246385000000003  0.5094979176495534  1.0000
  Si  Si7       1.0  0.172463875  0.9425120499999999  0.5094979176495534  1.0000
  Si  Si8       1.0  0.6726698150000001  0.44230627  0.5371481927233906  1.0000
