data_image0
_chemical_formula_structural       COCa8In16Au8
_chemical_formula_sum              "C1 O1 Ca8 In16 Au8"
_cell_length_a       4.67123702
_cell_length_b       23.522660244416524
_cell_length_c       101.3267432
_cell_angle_alpha    70.55254849107926
_cell_angle_beta     90.0
_cell_angle_gamma    90.0

_space_group_name_H-M_alt    "P 1"
_space_group_IT_number       1

loop_
  _space_group_symop_operation_xyz
  'x, y, z'

loop_
  _atom_site_type_symbol
  _atom_site_label
  _atom_site_symmetry_multiplicity
  _atom_site_fract_x
  _atom_site_fract_y
  _atom_site_fract_z
  _atom_site_occupancy
  C   C1        1.0  0.24999937000000005  0.492531925  0.534598007949546  1.0000
  O   O1        1.0  0.24999956  0.4778557949999999  0.5467884167712351  1.0000
  Ca  Ca1       1.0  0.24999946000000003  0.03360640499999996  0.4614630306435826  1.0000
  Ca  Ca2       1.0  0.24999923000000002  0.5282971049999999  0.5075730175172439  1.0000
  Ca  Ca3       1.0  0.7499994600000001  0.20891624499999992  0.4865587875500546  1.0000
  Ca  Ca4       1.0  0.75000449  0.737094115  0.5234413592310365  1.0000
  Ca  Ca5       1.0  0.74999897  0.2840260049999999  0.5181866137704273  1.0000
  Ca  Ca6       1.0  0.7499994600000001  0.783606405  0.48078588054645  1.0000
  Ca  Ca7       1.0  0.24999946000000003  0.458916245  0.4672359376471871  1.0000
  Ca  Ca8       1.0  0.24999551000000006  0.966393595  0.5092168200876208  1.0000
  In  In1       1.0  0.24999651000000003  0.16927503499999993  0.514873830183336  1.0000
  In  In2       1.0  0.24999946000000003  0.678794315  0.47347256831521284  1.0000
  In  In3       1.0  0.24999946000000003  0.17879431499999995  0.46565563769073104  1.0000
  In  In4       1.0  0.2500015  0.6838010649999999  0.5056458615842354  1.0000
  In  In5       1.0  0.7500043300000001  0.07176165499999995  0.5154659317708556  1.0000
  In  In6       1.0  0.7499994600000001  0.563728335  0.4745492498784245  1.0000
  In  In7       1.0  0.7499994600000001  0.06372833499999994  0.4823661805029062  1.0000
  In  In8       1.0  0.74999967  0.597632515  0.5224221701025119  1.0000
  In  In9       1.0  0.7499994600000001  0.4287943149999999  0.49279541821808026  1.0000
  In  In10      1.0  0.7499994600000001  0.9287943149999999  0.4541497184123453  1.0000
  In  In11      1.0  0.7499995100000001  0.4253487249999999  0.5238684529553537  1.0000
  In  In12      1.0  0.7499994600000001  0.9287943149999999  0.48497848759359863  1.0000
  In  In13      1.0  0.24999946000000003  0.3137283349999999  0.493872099781292  1.0000
  In  In14      1.0  0.24999946000000003  0.813728335  0.455226399975557  1.0000
  In  In15      1.0  0.24999946000000003  0.3137283349999999  0.4630433306000387  1.0000
  In  In16      1.0  0.25000076  0.8260398149999999  0.502829069275075  1.0000
  Au  Au1       1.0  0.7499994600000001  0.14036405499999996  0.4532115832287651  1.0000
  Au  Au2       1.0  0.7499994600000001  0.6403640549999998  0.49185728303450005  1.0000
  Au  Au3       1.0  0.2500003  0.10594972499999995  0.49422618095788007  1.0000
  Au  Au4       1.0  0.24999946000000003  0.6021585949999999  0.45616453515913713  1.0000
  Au  Au5       1.0  0.24999973000000006  0.38517545499999994  0.5122749532462401  1.0000
  Au  Au6       1.0  0.24999946000000003  0.8903640549999999  0.4725344331316325  1.0000
  Au  Au7       1.0  0.7499994600000001  0.3521585949999999  0.47548738506200466  1.0000
  Au  Au8       1.0  0.74999627  0.8735497649999998  0.5142382382710831  1.0000
