data_image0
_chemical_formula_structural       CONa8Zn8Se12
_chemical_formula_sum              "C1 O1 Na8 Zn8 Se12"
_cell_length_a       7.86626933
_cell_length_b       12.00670606
_cell_length_c       101.46507732
_cell_angle_alpha    90.0
_cell_angle_beta     90.0
_cell_angle_gamma    90.0

_space_group_name_H-M_alt    "P 1"
_space_group_IT_number       1

loop_
  _space_group_symop_operation_xyz
  'x, y, z'

loop_
  _atom_site_type_symbol
  _atom_site_label
  _atom_site_symmetry_multiplicity
  _atom_site_fract_x
  _atom_site_fract_y
  _atom_site_fract_z
  _atom_site_occupancy
  C   C1        1.0  0.75296551  0.8066638099999999  0.5382268332999993  1.0000
  O   O1        1.0  0.84976115  0.7954947899999999  0.5465959358806312  1.0000
  Na  Na1       1.0  0.74758349  0.36910661  0.47526246904400465  1.0000
  Na  Na2       1.0  0.24754042999999998  0.8691066099999999  0.48009170738275614  1.0000
  Na  Na3       1.0  0.02870754999999998  0.6191066099999999  0.4582970419452736  1.0000
  Na  Na4       1.0  0.8698555499999998  0.10960734000000001  0.4820033741179001  1.0000
  Na  Na5       1.0  0.5287075499999998  0.06127627  0.45829370208793857  1.0000
  Na  Na6       1.0  0.4383586  0.5651153  0.4929850979300367  1.0000
  Na  Na7       1.0  0.24344847999999994  0.28982925000000004  0.5164620591205041  1.0000
  Na  Na8       1.0  0.55597667  0.7990403099999999  0.5154210686941126  1.0000
  Zn  Zn1       1.0  0.43363201999999995  0.07919824  0.4962595505008559  1.0000
  Zn  Zn2       1.0  0.54508245  0.59751376  0.4605476561332668  1.0000
  Zn  Zn3       1.0  0.74291737  0.39984377000000004  0.5078175346000297  1.0000
  Zn  Zn4       1.0  0.15480794999999997  0.8989778399999999  0.5122255880888402  1.0000
  Zn  Zn5       1.0  0.27661361999999995  0.33286912  0.48136120359149565  1.0000
  Zn  Zn6       1.0  0.7185102999999998  0.83286912  0.4739929728352652  1.0000
  Zn  Zn7       1.0  0.92110961  0.60073389  0.5012313080256827  1.0000
  Zn  Zn8       1.0  0.045082449999999975  0.08286912  0.4560430878999454  1.0000
  Se  Se1       1.0  0.7015946899999999  0.5731191299999999  0.5187488349393086  1.0000
  Se  Se2       1.0  0.29185792  0.055853840000000016  0.5189881944827269  1.0000
  Se  Se3       1.0  0.4712924499999999  0.7993334899999999  0.45746454916796603  1.0000
  Se  Se4       1.0  0.52643137  0.28791291  0.49742532506773407  1.0000
  Se  Se5       1.0  0.97129245  0.88104939  0.4591261979663208  1.0000
  Se  Se6       1.0  0.033736539999999975  0.39819295  0.49816588958985175  1.0000
  Se  Se7       1.0  0.23684535999999998  0.13104939  0.47564049623885574  1.0000
  Se  Se8       1.0  0.7582785599999998  0.63104939  0.479713680187905  1.0000
  Se  Se9       1.0  0.81065376  0.21519144  0.4534040641193688  1.0000
  Se  Se10      1.0  0.17791859999999998  0.7219986499999999  0.5039809037218933  1.0000
  Se  Se11      1.0  0.31065375999999995  0.46519144  0.46318668301491794  1.0000
  Se  Se12      1.0  0.66464002  0.94414616  0.4945475898683288  1.0000
