data_image0
_chemical_formula_structural       COAu2Ca4Sb2
_chemical_formula_sum              "C1 O1 Au2 Ca4 Sb2"
_cell_length_a       5.39494862
_cell_length_b       5.39494862
_cell_length_c       100.518438
_cell_angle_alpha    90.0
_cell_angle_beta     90.0
_cell_angle_gamma    90.0

_space_group_name_H-M_alt    "P 1"
_space_group_IT_number       1

loop_
  _space_group_symop_operation_xyz
  'x, y, z'

loop_
  _atom_site_type_symbol
  _atom_site_label
  _atom_site_symmetry_multiplicity
  _atom_site_fract_x
  _atom_site_fract_y
  _atom_site_fract_z
  _atom_site_occupancy
  C   C1        1.0  0.50434245  0.7517994450000001  0.5329327040756365  1.0000
  O   O1        1.0  0.5005250499999999  0.755741735  0.5446415920099416  1.0000
  Au  Au1       1.0  0.750403  0.505833725  0.4553584079900587  1.0000
  Au  Au2       1.0  0.23897323  0.017454325000000017  0.49708010489316096  1.0000
  Ca  Ca1       1.0  0.7345436599999999  0.994166275  0.512074928160813  1.0000
  Ca  Ca2       1.0  0.750403  0.005833725000000016  0.47433405477637264  1.0000
  Ca  Ca3       1.0  0.250403  0.505833725  0.47433405477637264  1.0000
  Ca  Ca4       1.0  0.26208033  0.521675475  0.5120747915361562  1.0000
  Sb  Sb1       1.0  0.250403  0.005833725000000016  0.4553584079900587  1.0000
  Sb  Sb2       1.0  0.7610267700000001  0.49491029499999994  0.49529810645761346  1.0000
