data_image0
_chemical_formula_structural       COCr8As16Cr8As16
_chemical_formula_sum              "C1 O1 Cr16 As32"
_cell_length_a       15.627188487180522
_cell_length_b       6.48842872
_cell_length_c       99.8680319
_cell_angle_alpha    90.0
_cell_angle_beta     84.60788212603515
_cell_angle_gamma    90.0

_space_group_name_H-M_alt    "P 1"
_space_group_IT_number       1

loop_
  _space_group_symop_operation_xyz
  'x, y, z'

loop_
  _atom_site_type_symbol
  _atom_site_label
  _atom_site_symmetry_multiplicity
  _atom_site_fract_x
  _atom_site_fract_y
  _atom_site_fract_z
  _atom_site_occupancy
  C   C1        1.0  0.11107313500000002  0.11126071  0.5327579347622413  1.0000
  O   O1        1.0  0.06846922500000001  0.11211262  0.5434211578956384  1.0000
  Cr  Cr1       1.0  0.08227856500000001  0.11177767  0.48759722057236377  1.0000
  Cr  Cr2       1.0  0.5753051950000001  0.11177985  0.5228647729362849  1.0000
  Cr  Cr3       1.0  0.429389945  0.11177767  0.4686576530215579  1.0000
  Cr  Cr4       1.0  0.9285552350000001  0.11176623000000001  0.504339771191081  1.0000
  Cr  Cr5       1.0  0.333687915  0.35625973  0.5067088220461643  1.0000
  Cr  Cr6       1.0  0.8322785650000001  0.36177767  0.4689050329099573  1.0000
  Cr  Cr7       1.0  0.17769865499999998  0.33496823  0.521746770761571  1.0000
  Cr  Cr8       1.0  0.6793899450000002  0.36177767  0.4873498406839644  1.0000
  As  As1       1.0  0.46237178500000004  0.36153573  0.5214539225005267  1.0000
  As  As2       1.0  0.957677305  0.36177767  0.4853334500996951  1.0000
  As  As3       1.0  0.042388755  0.35816963  0.5097958652507361  1.0000
  As  As4       1.0  0.553991205  0.36177767  0.4709214234942266  1.0000
  As  As5       1.0  0.18072121500000002  0.36177767  0.47527102976676805  1.0000
  As  As6       1.0  0.6881209350000002  0.36233864000000005  0.5138115811996264  1.0000
  As  As7       1.0  0.33094729500000003  0.36177767  0.48098384382715365  1.0000
  As  As8       1.0  0.8487036350000001  0.36039993000000003  0.5198102481567457  1.0000
  As  As9       1.0  0.20936572499999997  0.11175958  0.5025688404336942  1.0000
  As  As10      1.0  0.7076773050000001  0.11177767  0.46664126243728854  1.0000
  As  As11      1.0  0.301748565  0.11184954999999999  0.5268337494437692  1.0000
  As  As12      1.0  0.8039912050000001  0.11177767  0.4896136111566331  1.0000
  As  As13      1.0  0.430721215  0.11177767  0.49396321742917454  1.0000
  As  As14      1.0  0.930721215  0.11177767  0.4565788421043615  1.0000
  As  As15      1.0  0.08094729500000002  0.11177767  0.4622916561647471  1.0000
  As  As16      1.0  0.5814958650000002  0.11178157000000001  0.49937032001265397  1.0000
  Cr  Cr9       1.0  0.08227856500000001  0.61177767  0.48759722057236377  1.0000
  Cr  Cr10      1.0  0.574578925  0.61178199  0.5228999292028403  1.0000
  Cr  Cr11      1.0  0.429389945  0.61177767  0.4686576530215579  1.0000
  Cr  Cr12      1.0  0.9294621850000001  0.61173676  0.5045694159318261  1.0000
  Cr  Cr13      1.0  0.333688005  0.8673311800000001  0.5067055292303857  1.0000
  Cr  Cr14      1.0  0.8322785650000001  0.8617776699999999  0.4689050329099573  1.0000
  Cr  Cr15      1.0  0.177664535  0.8887392900000001  0.5217459602683141  1.0000
  Cr  Cr16      1.0  0.6793899450000002  0.8617776699999999  0.4873498406839644  1.0000
  As  As17      1.0  0.462361995  0.8620136899999999  0.521453034247769  1.0000
  As  As18      1.0  0.957677305  0.8617776699999999  0.4853334500996951  1.0000
  As  As19      1.0  0.042322695  0.8653214100000001  0.5097932812427135  1.0000
  As  As20      1.0  0.553991205  0.8617776699999999  0.4709214234942266  1.0000
  As  As21      1.0  0.18072121500000002  0.8617776699999999  0.47527102976676805  1.0000
  As  As22      1.0  0.6881216750000001  0.8612203599999999  0.5138117068111275  1.0000
  As  As23      1.0  0.33094729500000003  0.8617776699999999  0.48098384382715365  1.0000
  As  As24      1.0  0.8486948450000001  0.86315392  0.5198124044875144  1.0000
  As  As25      1.0  0.204697145  0.61172441  0.5039133919228764  1.0000
  As  As26      1.0  0.7076773050000001  0.61177767  0.46664126243728854  1.0000
  As  As27      1.0  0.279377375  0.61185458  0.5272906582882391  1.0000
  As  As28      1.0  0.8039912050000001  0.61177767  0.4896136111566331  1.0000
  As  As29      1.0  0.430721215  0.61177767  0.49396321742917454  1.0000
  As  As30      1.0  0.930721215  0.61177767  0.4565788421043615  1.0000
  As  As31      1.0  0.08094729500000002  0.61177767  0.46229165616474716  1.0000
  As  As32      1.0  0.5812375950000002  0.6117768800000001  0.49938609023754094  1.0000
