data_image0
_chemical_formula_structural       COGa8Ir4Ru4Ga8Ir4Ru4Ga8Ir4Ru4Ga8Ir4Ru4
_chemical_formula_sum              "C1 O1 Ga32 Ir16 Ru16"
_cell_length_a       8.62916956
_cell_length_b       8.62916956
_cell_length_c       106.61046585
_cell_angle_alpha    90.0
_cell_angle_beta     90.0
_cell_angle_gamma    90.0

_space_group_name_H-M_alt    "P 1"
_space_group_IT_number       1

loop_
  _space_group_symop_operation_xyz
  'x, y, z'

loop_
  _atom_site_type_symbol
  _atom_site_label
  _atom_site_symmetry_multiplicity
  _atom_site_fract_x
  _atom_site_fract_y
  _atom_site_fract_z
  _atom_site_occupancy
  C   C1        1.0  0.24870504999999998  0.49842417  0.5528773935446999  1.0000
  O   O1        1.0  0.24690044  0.50022863  0.564060902779501  1.0000
  Ga  Ga1       1.0  0.37243188000000005  0.12471207999999999  0.5073665800762139  1.0000
  Ga  Ga2       1.0  0.12191935999999999  0.37360943  0.5073706665844206  1.0000
  Ga  Ga3       1.0  0.12757863  0.37993254000000004  0.5371089835018973  1.0000
  Ga  Ga4       1.0  0.37132909000000003  0.12931157000000001  0.5349784875994006  1.0000
  Ga  Ga5       1.0  0.37258874000000003  0.12454003  0.45024759705540096  1.0000
  Ga  Ga6       1.0  0.12258874  0.37454003  0.45024759705540096  1.0000
  Ga  Ga7       1.0  0.12258874  0.37454003  0.47886460359328625  1.0000
  Ga  Ga8       1.0  0.37258874000000003  0.12454003  0.47886460359328625  1.0000
  Ir  Ir1       1.0  0.3691449  0.37798405999999996  0.5214223997763627  1.0000
  Ir  Ir2       1.0  0.12258874  0.12454003  0.4931731034281883  1.0000
  Ir  Ir3       1.0  0.37258874000000003  0.37454003  0.46455610032434363  1.0000
  Ir  Ir4       1.0  0.12258874  0.12454003  0.4359390972204989  1.0000
  Ru  Ru1       1.0  0.12260199000000001  0.12639113  0.5233091165771077  1.0000
  Ru  Ru2       1.0  0.37258874000000003  0.37454003  0.4931731034281883  1.0000
  Ru  Ru3       1.0  0.12258874  0.12454003  0.46455610032434363  1.0000
  Ru  Ru4       1.0  0.37258874000000003  0.37454003  0.4359390972204989  1.0000
  Ga  Ga9       1.0  0.37351954000000004  0.62521012  0.5073705876014889  1.0000
  Ga  Ga10      1.0  0.12285725000000002  0.8754916699999999  0.5071958979607543  1.0000
  Ga  Ga11      1.0  0.12438543000000002  0.8690486100000001  0.5347528814400268  1.0000
  Ga  Ga12      1.0  0.36719620000000003  0.6195507699999999  0.5371089800678568  1.0000
  Ga  Ga13      1.0  0.37258874000000003  0.62454003  0.45024759705540096  1.0000
  Ga  Ga14      1.0  0.12258874  0.87454003  0.45024759705540096  1.0000
  Ga  Ga15      1.0  0.12258874  0.87454003  0.47886460359328625  1.0000
  Ga  Ga16      1.0  0.37258874000000003  0.62454003  0.47886460359328625  1.0000
  Ir  Ir5       1.0  0.3734386  0.8725088  0.5216824768343742  1.0000
  Ir  Ir6       1.0  0.12258874  0.62454003  0.4931731034281883  1.0000
  Ir  Ir7       1.0  0.37258874000000003  0.87454003  0.46455610032434363  1.0000
  Ir  Ir8       1.0  0.12258874  0.62454003  0.4359390972204989  1.0000
  Ru  Ru5       1.0  0.12324907000000002  0.6238808200000001  0.521991815203499  1.0000
  Ru  Ru6       1.0  0.37258874000000003  0.87454003  0.4931731034281883  1.0000
  Ru  Ru7       1.0  0.12258874  0.62454003  0.46455610032434363  1.0000
  Ru  Ru8       1.0  0.37258874000000003  0.87454003  0.4359390972204989  1.0000
  Ga  Ga17      1.0  0.8726351600000001  0.12508782  0.507238459458833  1.0000
  Ga  Ga18      1.0  0.62241628  0.37469707999999996  0.5073666590591456  1.0000
  Ga  Ga19      1.0  0.6178169800000001  0.37580043  0.5349785253738462  1.0000
  Ga  Ga20      1.0  0.8743931400000001  0.12601094  0.5353566407063017  1.0000
  Ga  Ga21      1.0  0.87258874  0.12454003  0.45024759705540096  1.0000
  Ga  Ga22      1.0  0.62258874  0.37454003  0.45024759705540096  1.0000
  Ga  Ga23      1.0  0.62258874  0.37454003  0.47886460359328625  1.0000
  Ga  Ga24      1.0  0.87258874  0.12454003  0.47886460359328625  1.0000
  Ir  Ir9       1.0  0.8746204200000001  0.37369112000000004  0.5216824734003337  1.0000
  Ir  Ir10      1.0  0.62258874  0.12454003  0.4931731034281883  1.0000
  Ir  Ir11      1.0  0.87258874  0.37454003  0.46455610032434363  1.0000
  Ir  Ir12      1.0  0.62258874  0.12454003  0.4359390972204989  1.0000
  Ru  Ru9       1.0  0.62285771  0.12427158999999999  0.5233278664382913  1.0000
  Ru  Ru10      1.0  0.87258874  0.37454003  0.4931731034281883  1.0000
  Ru  Ru11      1.0  0.62258874  0.12454003  0.46455610032434363  1.0000
  Ru  Ru12      1.0  0.87258874  0.37454003  0.4359390972204989  1.0000
  Ga  Ga25      1.0  0.8716372900000001  0.6242609499999999  0.5071955614247842  1.0000
  Ga  Ga26      1.0  0.6220407  0.87449398  0.5072383804759012  1.0000
  Ga  Ga27      1.0  0.62111825  0.8727361600000001  0.5353566166680181  1.0000
  Ga  Ga28      1.0  0.8780806400000001  0.6227443199999999  0.5347528814400268  1.0000
  Ga  Ga29      1.0  0.87258874  0.62454003  0.45024759705540096  1.0000
  Ga  Ga30      1.0  0.62258874  0.87454003  0.45024759705540096  1.0000
  Ga  Ga31      1.0  0.62258874  0.87454003  0.47886460359328625  1.0000
  Ga  Ga32      1.0  0.87258874  0.62454003  0.47886460359328625  1.0000
  Ir  Ir13      1.0  0.8714006000000001  0.87572841  0.5214807063501791  1.0000
  Ir  Ir14      1.0  0.62258874  0.62454003  0.4931731034281883  1.0000
  Ir  Ir15      1.0  0.87258874  0.87454003  0.46455610032434363  1.0000
  Ir  Ir16      1.0  0.62258874  0.62454003  0.4359390972204989  1.0000
  Ru  Ru13      1.0  0.62073733  0.6245273600000001  0.5233091028409456  1.0000
  Ru  Ru14      1.0  0.87258874  0.87454003  0.4931731034281883  1.0000
  Ru  Ru15      1.0  0.62258874  0.62454003  0.46455610032434363  1.0000
  Ru  Ru16      1.0  0.87258874  0.87454003  0.4359390972204989  1.0000
