data_image0
_chemical_formula_structural       COCa8Cu8Ga4
_chemical_formula_sum              "C1 O1 Ca8 Cu8 Ga4"
_cell_length_a       5.783783722776484
_cell_length_b       7.0561192717781775
_cell_length_c       102.86952823
_cell_angle_alpha    89.69051078050435
_cell_angle_beta     87.23295064348585
_cell_angle_gamma    81.00576489138855

_space_group_name_H-M_alt    "P 1"
_space_group_IT_number       1

loop_
  _space_group_symop_operation_xyz
  'x, y, z'

loop_
  _atom_site_type_symbol
  _atom_site_label
  _atom_site_symmetry_multiplicity
  _atom_site_fract_x
  _atom_site_fract_y
  _atom_site_fract_z
  _atom_site_occupancy
  C   C1        1.0  0.5596059400000001  0.09666244999999997  0.5438429179077844  1.0000
  O   O1        1.0  0.41723047  0.06490084999999998  0.5529152272922747  1.0000
  Ca  Ca1       1.0  0.5153776000000001  0.7172529200000001  0.48297285765344933  1.0000
  Ca  Ca2       1.0  0.8460866300000001  0.29678241  0.5089519086482813  1.0000
  Ca  Ca3       1.0  0.18204426000000004  0.13391957999999998  0.4563456569774053  1.0000
  Ca  Ca4       1.0  0.17247872000000003  0.9069628700000001  0.5395558611904798  1.0000
  Ca  Ca5       1.0  0.6592885300000001  0.19926405  0.4772249390961795  1.0000
  Ca  Ca6       1.0  0.99262186  0.7825973799999999  0.5038521365769598  1.0000
  Ca  Ca7       1.0  0.32595520000000006  0.61593072  0.4505977416153993  1.0000
  Ca  Ca8       1.0  0.29823539000000004  0.38037055999999997  0.5300962155345345  1.0000
  Cu  Cu1       1.0  0.16728799000000003  0.09817959999999996  0.4864858233658596  1.0000
  Cu  Cu2       1.0  0.5001441100000001  0.68246179  0.5133737511795371  1.0000
  Cu  Cu3       1.0  0.8339546500000001  0.5148462699999999  0.4598586258850793  1.0000
  Cu  Cu4       1.0  0.78513627  0.26725847999999996  0.5385642941390941  1.0000
  Cu  Cu5       1.0  0.007378140000000034  0.8183373700000001  0.4737119701885055  1.0000
  Cu  Cu6       1.0  0.34071147000000007  0.4016707  0.5003391708645496  1.0000
  Cu  Cu7       1.0  0.6740448099999999  0.23500402999999997  0.44708477270772523  1.0000
  Cu  Cu8       1.0  0.64669742  0.95840818  0.527284233190691  1.0000
  Ga  Ga1       1.0  0.7539997300000001  0.8749251499999999  0.45347169929640224  1.0000
  Ga  Ga2       1.0  0.08733306000000003  0.45825847999999997  0.48009889677718254  1.0000
  Ga  Ga3       1.0  0.77874014  0.60755148  0.5319666079484869  1.0000
  Ga  Ga4       1.0  0.4206664000000001  0.04159181999999999  0.5067260974532266  1.0000
