data_image0
_chemical_formula_structural       COAl8Ru8Al8Ru8
_chemical_formula_sum              "C1 O1 Al16 Ru16"
_cell_length_a       8.54313628
_cell_length_b       5.231581175099441
_cell_length_c       104.57068531
_cell_angle_alpha    92.8914168433092
_cell_angle_beta     90.0
_cell_angle_gamma    90.0

_space_group_name_H-M_alt    "P 1"
_space_group_IT_number       1

loop_
  _space_group_symop_operation_xyz
  'x, y, z'

loop_
  _atom_site_type_symbol
  _atom_site_label
  _atom_site_symmetry_multiplicity
  _atom_site_fract_x
  _atom_site_fract_y
  _atom_site_fract_z
  _atom_site_occupancy
  C   C1        1.0  0.12500605999999997  0.371148595  0.5445383564530847  1.0000
  O   O1        1.0  0.12500516999999997  0.406471905  0.5557409372483443  1.0000
  Al  Al1       1.0  0.12500089999999997  0.08946752500000003  0.47968009958710206  1.0000
  Al  Al2       1.0  0.37500089999999997  0.05375323500000004  0.4442590627516557  1.0000
  Al  Al3       1.0  0.12500089999999997  0.732324665  0.45606607613212563  1.0000
  Al  Al4       1.0  0.37500089999999997  0.410896095  0.46787308620663226  1.0000
  Al  Al5       1.0  0.12499909999999996  0.8011891750000001  0.52622584194514  1.0000
  Al  Al6       1.0  0.37500089999999997  0.768038945  0.4914871096616087  1.0000
  Al  Al7       1.0  0.12499959999999997  0.450070395  0.5026600888610342  1.0000
  Al  Al8       1.0  0.37662029999999996  0.10930780500000004  0.5150296416591454  1.0000
  Ru  Ru1       1.0  0.12500089999999997  0.232324665  0.45606607613212563  1.0000
  Ru  Ru2       1.0  0.37500089999999997  0.910896095  0.4678730862066322  1.0000
  Ru  Ru3       1.0  0.12500089999999997  0.5894675250000001  0.4796800995871021  1.0000
  Ru  Ru4       1.0  0.37500089999999997  0.5537532350000001  0.4442590627516557  1.0000
  Ru  Ru5       1.0  0.12500391999999996  0.9462467649999999  0.5032863903938034  1.0000
  Ru  Ru6       1.0  0.37690063999999995  0.6090259550000001  0.5157486390982802  1.0000
  Ru  Ru7       1.0  0.12500696999999997  0.30342632500000005  0.5266932390435369  1.0000
  Ru  Ru8       1.0  0.37500089999999997  0.26803894500000003  0.4914871096616087  1.0000
  Al  Al9       1.0  0.6250009  0.08946752500000003  0.47968009958710206  1.0000
  Al  Al10      1.0  0.8750009000000001  0.05375323500000004  0.4442590627516557  1.0000
  Al  Al11      1.0  0.6250009  0.732324665  0.45606607613212563  1.0000
  Al  Al12      1.0  0.8750009000000001  0.410896095  0.46787308620663226  1.0000
  Al  Al13      1.0  0.6250018199999999  0.8201082449999999  0.525817472822354  1.0000
  Al  Al14      1.0  0.8750009000000001  0.768038945  0.4914871096616087  1.0000
  Al  Al15      1.0  0.6250063100000001  0.44460851500000004  0.5029600389157629  1.0000
  Al  Al16      1.0  0.8733867  0.10931807500000003  0.515029816875203  1.0000
  Ru  Ru9       1.0  0.6250009  0.232324665  0.45606607613212563  1.0000
  Ru  Ru10      1.0  0.8750009000000001  0.910896095  0.4678730862066322  1.0000
  Ru  Ru11      1.0  0.6250009  0.5894675250000001  0.4796800995871021  1.0000
  Ru  Ru12      1.0  0.8750009000000001  0.5537532350000001  0.4442590627516557  1.0000
  Ru  Ru13      1.0  0.62500174  0.9425630949999999  0.5027256428082977  1.0000
  Ru  Ru14      1.0  0.8731089700000001  0.6090403350000001  0.5157470621537623  1.0000
  Ru  Ru15      1.0  0.62500163  0.316368605  0.5258381185634735  1.0000
  Ru  Ru16      1.0  0.8750009000000001  0.26803894500000003  0.4914871096616087  1.0000
