data_image0
_chemical_formula_structural       COCa6Al4Ge4Ca6Al4Ge4
_chemical_formula_sum              "C1 O1 Ca12 Al8 Ge8"
_cell_length_a       4.61328472
_cell_length_b       18.86693171
_cell_length_c       99.1991202
_cell_angle_alpha    90.0
_cell_angle_beta     90.0
_cell_angle_gamma    90.0

_space_group_name_H-M_alt    "P 1"
_space_group_IT_number       1

loop_
  _space_group_symop_operation_xyz
  'x, y, z'

loop_
  _atom_site_type_symbol
  _atom_site_label
  _atom_site_symmetry_multiplicity
  _atom_site_fract_x
  _atom_site_fract_y
  _atom_site_fract_z
  _atom_site_occupancy
  C   C1        1.0  0.49998774  0.9797140300000001  0.5346795463188754  1.0000
  O   O1        1.0  0.5000048300000001  0.9651424699999998  0.5462367018023239  1.0000
  Ca  Ca1       1.0  5.000000000364229e-07  0.020285969999999993  0.47478819637156244  1.0000
  Ca  Ca2       1.0  5.000000000364229e-07  0.2059589  0.453763298197676  1.0000
  Ca  Ca3       1.0  0.5000005000000001  0.33461304  0.47478819637156244  1.0000
  Ca  Ca4       1.0  0.5000005000000001  0.52028597  0.453763298197676  1.0000
  Ca  Ca5       1.0  0.5000005000000001  0.7059589  0.47478819637156244  1.0000
  Ca  Ca6       1.0  5.000000000364229e-07  0.83461304  0.453763298197676  1.0000
  Al  Al1       1.0  5.000000000364229e-07  0.45217163  0.47478819637156244  1.0000
  Al  Al2       1.0  0.5000005000000001  0.08840030999999998  0.453763298197676  1.0000
  Al  Al3       1.0  0.5000005000000001  0.9521716299999999  0.453763298197676  1.0000
  Al  Al4       1.0  5.000000000364229e-07  0.58840031  0.47478819637156244  1.0000
  Ge  Ge1       1.0  5.000000000364229e-07  0.37419204  0.453763298197676  1.0000
  Ge  Ge2       1.0  0.5000005000000001  0.16637990000000002  0.47478819637156244  1.0000
  Ge  Ge3       1.0  0.5000005000000001  0.8741920400000001  0.47478819637156244  1.0000
  Ge  Ge4       1.0  5.000000000364229e-07  0.6663799  0.453763298197676  1.0000
  Ca  Ca7       1.0  4.300000000036423e-06  0.025259909999999993  0.517893865229235  1.0000
  Ca  Ca8       1.0  1.270000000036423e-06  0.20561552000000002  0.4960323047636715  1.0000
  Ca  Ca9       1.0  0.5000003900000001  0.32794019999999996  0.5170473658080036  1.0000
  Ca  Ca10      1.0  0.49999992000000004  0.52017432  0.4964687236297708  1.0000
  Ca  Ca11      1.0  0.49999978  0.71099327  0.5171387374943069  1.0000
  Ca  Ca12      1.0  3.6000000003642294e-07  0.8356852  0.49617179361240005  1.0000
  Al  Al5       1.0  1.2000000003642296e-07  0.45215560000000005  0.5188809926282008  1.0000
  Al  Al6       1.0  0.5000020700000001  0.08823807  0.4961024715782485  1.0000
  Al  Al7       1.0  0.50000029  0.9534939600000001  0.49610140309290196  1.0000
  Al  Al8       1.0  0.99999978  0.58790994  0.5189706423753093  1.0000
  Ge  Ge5       1.0  2.00000000036423e-07  0.37776649  0.4970863640863165  1.0000
  Ge  Ge6       1.0  0.5000180300000001  0.15999598999999998  0.5167452523121333  1.0000
  Ge  Ge7       1.0  0.50000049  0.8802401599999999  0.5167680201748212  1.0000
  Ge  Ge8       1.0  0.9999998799999998  0.66223479  0.49710812822034556  1.0000
