data_image0
_chemical_formula_structural       COGe4Ru8V4Ge4Ru8V4Ge4Ru8V4Ge4Ru8V4
_chemical_formula_sum              "C1 O1 Ge16 Ru32 V16"
_cell_length_a       8.54251254
_cell_length_b       8.54251254
_cell_length_c       106.24281126
_cell_angle_alpha    90.0
_cell_angle_beta     90.0
_cell_angle_gamma    90.0

_space_group_name_H-M_alt    "P 1"
_space_group_IT_number       1

loop_
  _space_group_symop_operation_xyz
  'x, y, z'

loop_
  _atom_site_type_symbol
  _atom_site_label
  _atom_site_symmetry_multiplicity
  _atom_site_fract_x
  _atom_site_fract_y
  _atom_site_fract_z
  _atom_site_occupancy
  C   C1        1.0  0.62462219  0.250387305  0.553991132234149  1.0000
  O   O1        1.0  0.62462717  0.25039098499999995  0.5650747530334873  1.0000
  Ge  Ge1       1.0  0.12462588  0.250395985  0.4491390735426845  1.0000
  Ge  Ge2       1.0  0.37462587999999997  0.00039598499999998624  0.47756673351766593  1.0000
  Ge  Ge3       1.0  0.12462588  0.250395985  0.5059943900813285  1.0000
  Ge  Ge4       1.0  0.38618259000000005  0.011888294999999986  0.5355889974451823  1.0000
  Ru  Ru1       1.0  0.12462588  0.00039598499999998624  0.4349252469665127  1.0000
  Ru  Ru2       1.0  0.37462587999999997  0.250395985  0.4349252469665127  1.0000
  Ru  Ru3       1.0  0.37462587999999997  0.250395985  0.46335290353017516  1.0000
  Ru  Ru4       1.0  0.12462588  0.00039598499999998624  0.46335290353017516  1.0000
  Ru  Ru5       1.0  0.12462588  0.00039598499999998624  0.4917805600938377  1.0000
  Ru  Ru6       1.0  0.37462587999999997  0.250395985  0.4917805600938377  1.0000
  Ru  Ru7       1.0  0.37530089  0.250395055  0.5197409580705106  1.0000
  Ru  Ru8       1.0  0.12461678999999999  0.9996040150000001  0.5205199498034216  1.0000
  V   V1        1.0  0.37462587999999997  0.00039598499999998624  0.4491390735426845  1.0000
  V   V2        1.0  0.12462588  0.250395985  0.47756673351766593  1.0000
  V   V3        1.0  0.37462587999999997  0.00039598499999998624  0.5059943900813285  1.0000
  V   V4        1.0  0.1246577  0.25035144499999995  0.5329802765809558  1.0000
  Ge  Ge5       1.0  0.12462588  0.7503959849999999  0.4491390735426845  1.0000
  Ge  Ge6       1.0  0.37462587999999997  0.5003959849999999  0.47756673351766593  1.0000
  Ge  Ge7       1.0  0.12462588  0.7503959849999999  0.5059943900813285  1.0000
  Ge  Ge8       1.0  0.38618664999999996  0.48890328499999997  0.5355881105022621  1.0000
  Ru  Ru9       1.0  0.12462588  0.5003959849999999  0.4349252469665127  1.0000
  Ru  Ru10      1.0  0.37462587999999997  0.7503959849999999  0.4349252469665127  1.0000
  Ru  Ru11      1.0  0.37462587999999997  0.7503959849999999  0.46335290353017516  1.0000
  Ru  Ru12      1.0  0.12462588  0.5003959849999999  0.46335290353017516  1.0000
  Ru  Ru13      1.0  0.12462588  0.5003959849999999  0.4917805600938377  1.0000
  Ru  Ru14      1.0  0.37462587999999997  0.7503959849999999  0.4917805600938377  1.0000
  Ru  Ru15      1.0  0.37387045  0.7503960949999999  0.5205220238853274  1.0000
  Ru  Ru16      1.0  0.12461834000000001  0.501183445  0.5205206968822661  1.0000
  V   V5        1.0  0.37462587999999997  0.5003959849999999  0.4491390735426845  1.0000
  V   V6        1.0  0.12462588  0.7503959849999999  0.47756673351766593  1.0000
  V   V7        1.0  0.37462587999999997  0.5003959849999999  0.5059943900813285  1.0000
  V   V8        1.0  0.12464999  0.7504021550000001  0.5327600827670436  1.0000
  Ge  Ge9       1.0  0.62462588  0.250395985  0.4491390735426845  1.0000
  Ge  Ge10      1.0  0.87462588  0.00039598499999998624  0.47756673351766593  1.0000
  Ge  Ge11      1.0  0.62462588  0.250395985  0.5059943900813285  1.0000
  Ge  Ge12      1.0  0.86304914  0.011890934999999986  0.5355882571889757  1.0000
  Ru  Ru17      1.0  0.62462588  0.00039598499999998624  0.4349252469665127  1.0000
  Ru  Ru18      1.0  0.87462588  0.250395985  0.4349252469665127  1.0000
  Ru  Ru19      1.0  0.87462588  0.250395985  0.46335290353017516  1.0000
  Ru  Ru20      1.0  0.62462588  0.00039598499999998624  0.46335290353017516  1.0000
  Ru  Ru21      1.0  0.62462588  0.00039598499999998624  0.4917805600938377  1.0000
  Ru  Ru22      1.0  0.87462588  0.250395985  0.4917805600938377  1.0000
  Ru  Ru23      1.0  0.87395313  0.250396165  0.5197411934515163  1.0000
  Ru  Ru24      1.0  0.6246172  0.0010328949999999862  0.5197413742514193  1.0000
  V   V9        1.0  0.87462588  0.00039598499999998624  0.4491390735426845  1.0000
  V   V10       1.0  0.62462588  0.250395985  0.47756673351766593  1.0000
  V   V11       1.0  0.87462588  0.00039598499999998624  0.5059943900813285  1.0000
  V   V12       1.0  0.6246186  0.250396195  0.5356091685739804  1.0000
  Ge  Ge13      1.0  0.62462588  0.7503959849999999  0.4491390735426845  1.0000
  Ge  Ge14      1.0  0.87462588  0.5003959849999999  0.47756673351766593  1.0000
  Ge  Ge15      1.0  0.62462588  0.7503959849999999  0.5059943900813285  1.0000
  Ge  Ge16      1.0  0.86305963  0.48891192499999997  0.5355883117700786  1.0000
  Ru  Ru25      1.0  0.62462588  0.5003959849999999  0.4349252469665127  1.0000
  Ru  Ru26      1.0  0.87462588  0.7503959849999999  0.4349252469665127  1.0000
  Ru  Ru27      1.0  0.87462588  0.7503959849999999  0.46335290353017516  1.0000
  Ru  Ru28      1.0  0.62462588  0.5003959849999999  0.46335290353017516  1.0000
  Ru  Ru29      1.0  0.62462588  0.5003959849999999  0.4917805600938377  1.0000
  Ru  Ru30      1.0  0.87462588  0.7503959849999999  0.4917805600938377  1.0000
  Ru  Ru31      1.0  0.87538321  0.750397695  0.5205222490323765  1.0000
  Ru  Ru32      1.0  0.6246172099999999  0.49975567499999995  0.5197406169386182  1.0000
  V   V13       1.0  0.87462588  0.5003959849999999  0.4491390735426845  1.0000
  V   V14       1.0  0.62462588  0.7503959849999999  0.47756673351766593  1.0000
  V   V15       1.0  0.87462588  0.5003959849999999  0.5059943900813285  1.0000
  V   V16       1.0  0.6246381999999999  0.750406165  0.5329939593811603  1.0000
