data_image0
_chemical_formula_structural       CONi12As12Se12
_chemical_formula_sum              "C1 O1 Ni12 As12 Se12"
_cell_length_a       5.92993564
_cell_length_b       13.259739193100245
_cell_length_c       103.54478162000001
_cell_angle_alpha    71.5650511907423
_cell_angle_beta     90.0
_cell_angle_gamma    90.0

_space_group_name_H-M_alt    "P 1"
_space_group_IT_number       1

loop_
  _space_group_symop_operation_xyz
  'x, y, z'

loop_
  _atom_site_type_symbol
  _atom_site_label
  _atom_site_symmetry_multiplicity
  _atom_site_fract_x
  _atom_site_fract_y
  _atom_site_fract_z
  _atom_site_occupancy
  C   C1        1.0  0.03295466000000004  0.841312225  0.5320616155902217  1.0000
  O   O1        1.0  0.048096390000000044  0.8114388450000001  0.5438732944311351  1.0000
  Ni  Ni1       1.0  0.5001253  0.707258365  0.45949632640366495  1.0000
  Ni  Ni2       1.0  0.48142183  0.376446625  0.5122030370716848  1.0000
  Ni  Ni3       1.0  0.5001253  0.040591695000000004  0.48649332855317035  1.0000
  Ni  Ni4       1.0  0.017538590000000045  0.883404175  0.5138247943757888  1.0000
  Ni  Ni5       1.0  0.00012529999999988384  0.5405916949999999  0.4870257083130881  1.0000
  Ni  Ni6       1.0  0.00012529999999988384  0.207258365  0.4600287094032227  1.0000
  Ni  Ni7       1.0  0.50669864  0.37611614499999996  0.4731722884782702  1.0000
  Ni  Ni8       1.0  0.5375502000000001  0.05387151500000001  0.5228163471599334  1.0000
  Ni  Ni9       1.0  0.51967881  0.705430065  0.4998820220301648  1.0000
  Ni  Ni10      1.0  0.006698640000000044  0.8717339150000001  0.4733497494781228  1.0000
  Ni  Ni11      1.0  0.9132834299999999  0.5975891849999999  0.512212827263761  1.0000
  Ni  Ni12      1.0  0.9998747  0.20756339499999998  0.5001927844970468  1.0000
  As  As1       1.0  0.8799106099999998  0.707258365  0.49025551924410127  1.0000
  As  As2       1.0  0.8799106099999998  0.37392502499999997  0.4632585203342359  1.0000
  As  As3       1.0  0.9085793299999999  0.053287695  0.5181333600714322  1.0000
  As  As4       1.0  0.37991061000000004  0.5405916949999999  0.4562665187122917  1.0000
  As  As5       1.0  0.36473808999999996  0.21005044499999997  0.5103369234413936  1.0000
  As  As6       1.0  0.37991061000000004  0.873925025  0.4832635176221572  1.0000
  As  As7       1.0  0.12691333000000005  0.7895926050000001  0.4564283516887903  1.0000
  As  As8       1.0  0.10197594000000003  0.446308755  0.5104785021886199  1.0000
  As  As9       1.0  0.12691333000000005  0.122925935  0.4834253538382957  1.0000
  As  As10      1.0  0.66656438  0.776457995  0.5166771321730653  1.0000
  As  As11      1.0  0.62691333  0.458257455  0.4900936862676028  1.0000
  As  As12      1.0  0.62691333  0.124924125  0.4630966841180974  1.0000
  Se  Se1       1.0  0.19595372000000003  0.7059638550000001  0.5148711333025914  1.0000
  Se  Se2       1.0  0.12518705000000005  0.37392502499999997  0.4831237044787303  1.0000
  Se  Se3       1.0  0.12518705000000005  0.040591695000000004  0.4561267055688649  1.0000
  Se  Se4       1.0  0.6251870500000001  0.873925025  0.4633983334776628  1.0000
  Se  Se5       1.0  0.5717525400000001  0.522037925  0.519787287000724  1.0000
  Se  Se6       1.0  0.6251870500000001  0.207258365  0.49039533238752825  1.0000
  Se  Se7       1.0  0.8816368899999999  0.626074975  0.4630500818967151  1.0000
  Se  Se8       1.0  0.8481796899999998  0.29140811499999997  0.5179072558769982  1.0000
  Se  Se9       1.0  0.8816368899999999  0.9594083050000001  0.49004708080658055  1.0000
  Se  Se10      1.0  0.38163689000000006  0.621775085  0.483471956059678  1.0000
  Se  Se11      1.0  0.38163689000000006  0.28844174499999997  0.45647495714981257  1.0000
  Se  Se12      1.0  0.42138279000000006  0.947026965  0.5108357113741642  1.0000
