data_image0
_chemical_formula_structural       COCa4Ga2Cu4Ca4Ga2Cu4
_chemical_formula_sum              "C1 O1 Ca8 Ga4 Cu8"
_cell_length_a       5.59237082
_cell_length_b       9.16623138
_cell_length_c       100.11969752
_cell_angle_alpha    90.0
_cell_angle_beta     90.0
_cell_angle_gamma    90.0

_space_group_name_H-M_alt    "P 1"
_space_group_IT_number       1

loop_
  _space_group_symop_operation_xyz
  'x, y, z'

loop_
  _atom_site_type_symbol
  _atom_site_label
  _atom_site_symmetry_multiplicity
  _atom_site_fract_x
  _atom_site_fract_y
  _atom_site_fract_z
  _atom_site_occupancy
  C   C1        1.0  0.118070375  0.70221402  0.5325921953643522  1.0000
  O   O1        1.0  0.11811360500000001  0.7389824099999999  0.5441404718542792  1.0000
  Ca  Ca1       1.0  0.11807689500000002  0.39880607999999995  0.4558595281457207  1.0000
  Ca  Ca2       1.0  0.6180768950000001  0.2908728799999999  0.47734787635268944  1.0000
  Ca  Ca3       1.0  0.6180768950000001  0.89880608  0.47734787635268944  1.0000
  Ca  Ca4       1.0  0.11807689500000002  0.79087288  0.4558595281457207  1.0000
  Ga  Ga1       1.0  0.11807689500000002  0.09483947999999995  0.47734787635268944  1.0000
  Ga  Ga2       1.0  0.6180768950000001  0.59483948  0.4558595281457207  1.0000
  Cu  Cu1       1.0  0.8579416650000001  0.09483947999999995  0.4558595281457207  1.0000
  Cu  Cu2       1.0  0.378212125  0.09483947999999995  0.4558595281457207  1.0000
  Cu  Cu3       1.0  0.357941665  0.59483948  0.47734787635268944  1.0000
  Cu  Cu4       1.0  0.8782121250000002  0.59483948  0.47734787635268944  1.0000
  Ca  Ca5       1.0  0.11807597500000001  0.39630797999999995  0.49835563162566  1.0000
  Ca  Ca6       1.0  0.618079365  0.30636709999999995  0.5207909331077891  1.0000
  Ca  Ca7       1.0  0.618072975  0.90516052  0.5217420890741759  1.0000
  Ca  Ca8       1.0  0.11807537500000001  0.7993499199999999  0.4988419825775589  1.0000
  Ga  Ga3       1.0  0.11807205500000001  0.10547810999999994  0.5193077260589238  1.0000
  Ga  Ga4       1.0  0.618084535  0.59752576  0.49955806159683047  1.0000
  Cu  Cu5       1.0  0.8479332250000001  0.09844392999999996  0.4992734097401093  1.0000
  Cu  Cu6       1.0  0.388218335  0.09844231999999996  0.49927390010422523  1.0000
  Cu  Cu7       1.0  0.354216175  0.6075596  0.5201539531296164  1.0000
  Cu  Cu8       1.0  0.8819296249999999  0.6075704399999999  0.5201540764727376  1.0000
