data_image0
_chemical_formula_structural       COCa12Zn4Ca12Zn4
_chemical_formula_sum              "C1 O1 Ca24 Zn8"
_cell_length_a       11.107243818289323
_cell_length_b       13.43449532
_cell_length_c       103.20798959999999
_cell_angle_alpha    90.0
_cell_angle_beta     68.05477945964765
_cell_angle_gamma    90.0

_space_group_name_H-M_alt    "P 1"
_space_group_IT_number       1

loop_
  _space_group_symop_operation_xyz
  'x, y, z'

loop_
  _atom_site_type_symbol
  _atom_site_label
  _atom_site_symmetry_multiplicity
  _atom_site_fract_x
  _atom_site_fract_y
  _atom_site_fract_z
  _atom_site_occupancy
  C   C1        1.0  0.10673637499999998  0.48551698000000004  0.5337939431039694  1.0000
  O   O1        1.0  0.051973695000000014  0.44667290000000004  0.5445714632346812  1.0000
  Ca  Ca1       1.0  0.780672695  0.4712478100000001  0.5256048851201318  1.0000
  Ca  Ca2       1.0  0.272379355  0.05667176000000002  0.5255205716708677  1.0000
  Ca  Ca3       1.0  0.948026305  0.15580844000000005  0.5191883562063454  1.0000
  Ca  Ca4       1.0  0.05889650500000001  0.36962709000000005  0.49564827862917915  1.0000
  Ca  Ca5       1.0  0.443990875  0.36814343000000005  0.5195141972494502  1.0000
  Ca  Ca6       1.0  0.5588965049999999  0.15393173000000002  0.49564827862917915  1.0000
  Ca  Ca7       1.0  0.735852175  0.93565875  0.5089452213066716  1.0000
  Ca  Ca8       1.0  0.220654445  0.58255004  0.5105284698363528  1.0000
  Ca  Ca9       1.0  0.947641945  0.65059714  0.49705411305112984  1.0000
  Ca  Ca10      1.0  0.05687335500000001  0.86238676  0.5152570984521282  1.0000
  Ca  Ca11      1.0  0.44665929499999996  0.8725201800000001  0.49734543912055684  1.0000
  Ca  Ca12      1.0  0.555989805  0.66058826  0.5152548911926946  1.0000
  Zn  Zn1       1.0  0.7481681749999999  0.27289304000000003  0.5089992766397367  1.0000
  Zn  Zn2       1.0  0.25156224499999996  0.25127923  0.5082173244184195  1.0000
  Zn  Zn3       1.0  0.787166795  0.7260994700000001  0.5254152120350811  1.0000
  Zn  Zn4       1.0  0.284117305  0.7977977300000001  0.5259688802191584  1.0000
  Ca  Ca13      1.0  0.748327125  0.4433282400000001  0.4880294271872734  1.0000
  Ca  Ca14      1.0  0.24832712499999998  0.08023058000000004  0.4880294271872733  1.0000
  Ca  Ca15      1.0  0.9377577449999999  0.15393173000000002  0.48041057574536744  1.0000
  Ca  Ca16      1.0  0.05889650500000001  0.36962709000000005  0.45542853676531864  1.0000
  Ca  Ca17      1.0  0.43775774500000003  0.36962709000000005  0.4804105757453674  1.0000
  Ca  Ca18      1.0  0.5588965049999999  0.15393173000000002  0.45542853676531864  1.0000
  Ca  Ca19      1.0  0.748327125  0.9433282399999999  0.4679195562553431  1.0000
  Ca  Ca20      1.0  0.24832712499999998  0.58023058  0.46791955625534304  1.0000
  Ca  Ca21      1.0  0.9377577449999999  0.6539317299999999  0.4603007048134372  1.0000
  Ca  Ca22      1.0  0.05889650500000001  0.86962709  0.47553840769724887  1.0000
  Ca  Ca23      1.0  0.43775774500000003  0.86962709  0.4603007048134371  1.0000
  Ca  Ca24      1.0  0.5588965049999999  0.6539317299999999  0.47553840769724887  1.0000
  Zn  Zn5       1.0  0.748327125  0.2646283400000001  0.4679195562553431  1.0000
  Zn  Zn6       1.0  0.24832712499999998  0.25893048  0.46791955625534304  1.0000
  Zn  Zn7       1.0  0.748327125  0.7646283399999999  0.4880294271872734  1.0000
  Zn  Zn8       1.0  0.24832712499999998  0.7589304800000001  0.4880294271872733  1.0000
