data_image0
_chemical_formula_structural       COAl8Fe4Ni4Al8Fe4Ni4Al8Fe4Ni4Al8Fe4Ni4
_chemical_formula_sum              "C1 O1 Al32 Fe16 Ni16"
_cell_length_a       8.1906366
_cell_length_b       8.1906366
_cell_length_c       104.74992806
_cell_angle_alpha    90.0
_cell_angle_beta     90.0
_cell_angle_gamma    90.0

_space_group_name_H-M_alt    "P 1"
_space_group_IT_number       1

loop_
  _space_group_symop_operation_xyz
  'x, y, z'

loop_
  _atom_site_type_symbol
  _atom_site_label
  _atom_site_symmetry_multiplicity
  _atom_site_fract_x
  _atom_site_fract_y
  _atom_site_fract_z
  _atom_site_occupancy
  C   C1        1.0  0.12898133500000006  0.3732973050000001  0.5511036690982429  1.0000
  O   O1        1.0  0.12639062500000006  0.375887835  0.5625588422960367  1.0000
  Al  Al1       1.0  0.9997882250000001  0.24982080500000006  0.5066223539051921  1.0000
  Al  Al2       1.0  0.25144071500000004  0.0014332850000000424  0.5066505353697848  1.0000
  Al  Al3       1.0  0.24941584500000005  0.004523005000000043  0.533475142889604  1.0000
  Al  Al4       1.0  0.0038836950000000403  0.25665941500000006  0.5351576144760855  1.0000
  Al  Al5       1.0  0.0009398950000000405  0.2513369650000001  0.4512637298461715  1.0000
  Al  Al6       1.0  0.250939895  0.0013369650000000426  0.4512637298461715  1.0000
  Al  Al7       1.0  0.250939895  0.0013369650000000426  0.47890888076542376  1.0000
  Al  Al8       1.0  0.0009398950000000405  0.2513369650000001  0.47890888076542376  1.0000
  Fe  Fe1       1.0  0.250939895  0.2513369650000001  0.49273145290763215  1.0000
  Fe  Fe2       1.0  0.00021177499999991412  0.002700775000000043  0.5219884741267904  1.0000
  Fe  Fe3       1.0  0.250939895  0.2513369650000001  0.43744115770396325  1.0000
  Fe  Fe4       1.0  0.0009398950000000405  0.0013369650000000426  0.46508630530579764  1.0000
  Ni  Ni1       1.0  0.0009398950000000405  0.0013369650000000426  0.49273145290763215  1.0000
  Ni  Ni2       1.0  0.24698481500000005  0.25529396500000007  0.5200851620343728  1.0000
  Ni  Ni3       1.0  0.0009398950000000405  0.0013369650000000426  0.43744115770396325  1.0000
  Ni  Ni4       1.0  0.250939895  0.2513369650000001  0.46508630530579764  1.0000
  Al  Al9       1.0  0.0019608350000000405  0.7531620250000001  0.5065492446507259  1.0000
  Al  Al10      1.0  0.25245880500000006  0.502495935  0.50662197240214  1.0000
  Al  Al11      1.0  0.24561966500000004  0.498395885  0.5351574718271181  1.0000
  Al  Al12      1.0  0.0013339750000000406  0.7463171350000001  0.5334494826625735  1.0000
  Al  Al13      1.0  0.0009398950000000405  0.751336965  0.4512637298461715  1.0000
  Al  Al14      1.0  0.250939895  0.501336965  0.4512637298461715  1.0000
  Al  Al15      1.0  0.250939895  0.501336965  0.47890888076542376  1.0000
  Al  Al16      1.0  0.0009398950000000405  0.751336965  0.47890888076542376  1.0000
  Fe  Fe5       1.0  0.250939895  0.751336965  0.49273145290763215  1.0000
  Fe  Fe6       1.0  0.0014162350000000404  0.5008613749999999  0.5206677138776116  1.0000
  Fe  Fe7       1.0  0.250939895  0.751336965  0.43744115770396325  1.0000
  Fe  Fe8       1.0  0.0009398950000000405  0.501336965  0.46508630530579764  1.0000
  Ni  Ni5       1.0  0.0009398950000000405  0.501336965  0.49273145290763215  1.0000
  Ni  Ni6       1.0  0.25243797500000004  0.7500100350000001  0.5204465449473088  1.0000
  Ni  Ni7       1.0  0.0009398950000000405  0.501336965  0.43744115770396325  1.0000
  Ni  Ni8       1.0  0.250939895  0.751336965  0.46508630530579764  1.0000
  Al  Al17      1.0  0.500837745  0.2508385450000001  0.5066509268250904  1.0000
  Al  Al18      1.0  0.7503461049999999  0.0016686950000000427  0.5065946932752012  1.0000
  Al  Al19      1.0  0.7527577950000001  0.9995018149999999  0.5337328299555435  1.0000
  Al  Al20      1.0  0.49774968499999994  0.25287477500000005  0.5334743964705888  1.0000
  Al  Al21      1.0  0.500939895  0.2513369650000001  0.4512637298461715  1.0000
  Al  Al22      1.0  0.750939895  0.0013369650000000426  0.4512637298461715  1.0000
  Al  Al23      1.0  0.750939895  0.0013369650000000426  0.47890888076542376  1.0000
  Al  Al24      1.0  0.500939895  0.2513369650000001  0.47890888076542376  1.0000
  Fe  Fe9       1.0  0.750939895  0.2513369650000001  0.49273145290763215  1.0000
  Fe  Fe10      1.0  0.5017800749999999  0.0004981850000000424  0.5222067071423004  1.0000
  Fe  Fe11      1.0  0.750939895  0.2513369650000001  0.43744115770396325  1.0000
  Fe  Fe12      1.0  0.500939895  0.0013369650000000426  0.46508630530579764  1.0000
  Ni  Ni9       1.0  0.500939895  0.0013369650000000426  0.49273145290763215  1.0000
  Ni  Ni10      1.0  0.752268195  0.24983964500000005  0.5204468965936003  1.0000
  Ni  Ni11      1.0  0.500939895  0.0013369650000000426  0.43744115770396325  1.0000
  Ni  Ni12      1.0  0.750939895  0.2513369650000001  0.46508630530579764  1.0000
  Al  Al25      1.0  0.5006024950000001  0.751930575  0.5065943648508345  1.0000
  Al  Al26      1.0  0.749111535  0.5003244149999999  0.5065497422634027  1.0000
  Al  Al27      1.0  0.755956085  0.5009443650000001  0.533449429583888  1.0000
  Al  Al28      1.0  0.5027738249999999  0.749516375  0.5337327304330082  1.0000
  Al  Al29      1.0  0.500939895  0.751336965  0.4512637298461715  1.0000
  Al  Al30      1.0  0.750939895  0.501336965  0.4512637298461715  1.0000
  Al  Al31      1.0  0.750939895  0.501336965  0.47890888076542376  1.0000
  Al  Al32      1.0  0.500939895  0.751336965  0.47890888076542376  1.0000
  Fe  Fe13      1.0  0.750939895  0.751336965  0.49273145290763215  1.0000
  Fe  Fe14      1.0  0.499574495  0.5020695350000001  0.5219880627669777  1.0000
  Fe  Fe15      1.0  0.750939895  0.751336965  0.43744115770396325  1.0000
  Fe  Fe16      1.0  0.500939895  0.501336965  0.46508630530579764  1.0000
  Ni  Ni13      1.0  0.500939895  0.501336965  0.49273145290763215  1.0000
  Ni  Ni14      1.0  0.7511600150000001  0.751117045  0.5200089476768036  1.0000
  Ni  Ni15      1.0  0.500939895  0.501336965  0.43744115770396325  1.0000
  Ni  Ni16      1.0  0.750939895  0.751336965  0.46508630530579764  1.0000
