data_image0
_chemical_formula_structural       COPd24Si12
_chemical_formula_sum              "C1 O1 Pd24 Si12"
_cell_length_a       7.466434796951769
_cell_length_b       9.65653010508586
_cell_length_c       40.42428138
_cell_angle_alpha    93.38932926183205
_cell_angle_beta     95.00208877085159
_cell_angle_gamma    87.31545075223197

_space_group_name_H-M_alt    "P 1"
_space_group_IT_number       1

loop_
  _space_group_symop_operation_xyz
  'x, y, z'

loop_
  _atom_site_type_symbol
  _atom_site_label
  _atom_site_symmetry_multiplicity
  _atom_site_fract_x
  _atom_site_fract_y
  _atom_site_fract_z
  _atom_site_occupancy
  C   C1        1.0  0.12757414000000006  0.393781505  0.5830183669912292  1.0000
  O   O1        1.0  0.11034685000000004  0.43961883500000004  0.6106743540476175  1.0000
  Pd  Pd1       1.0  0.6641085  0.19692649499999998  0.4672416626621537  1.0000
  Pd  Pd2       1.0  0.47324252000000006  0.948451055  0.5143187104299428  1.0000
  Pd  Pd3       1.0  0.28641798000000007  0.6939080049999999  0.5572854833146903  1.0000
  Pd  Pd4       1.0  0.8516085000000002  0.44692649500000003  0.421514630525856  1.0000
  Pd  Pd5       1.0  0.24319313000000004  0.14594208500000003  0.3907298462878744  1.0000
  Pd  Pd6       1.0  0.055693130000000014  0.8959420849999999  0.436456878424172  1.0000
  Pd  Pd7       1.0  0.8681931300000001  0.6459420849999999  0.4821839105604698  1.0000
  Pd  Pd8       1.0  0.6843491000000002  0.38872732500000007  0.5285653806643771  1.0000
  Pd  Pd9       1.0  0.7961576700000002  0.939130565  0.5587350448660612  1.0000
  Pd  Pd10      1.0  0.37080115  0.696926495  0.4243230238805144  1.0000
  Pd  Pd11      1.0  0.18330115  0.44692649500000003  0.47005005601681193  1.0000
  Pd  Pd12      1.0  0.9783441500000002  0.192120585  0.5142892110069711  1.0000
  Pd  Pd13      1.0  0.42127334  0.986734975  0.443358514256942  1.0000
  Pd  Pd14      1.0  0.23263571000000005  0.7380335549999999  0.4893272485106245  1.0000
  Pd  Pd15      1.0  0.06020028000000003  0.47506926499999996  0.5363257994259673  1.0000
  Pd  Pd16      1.0  0.60877334  0.236734975  0.39763148212064436  1.0000
  Pd  Pd17      1.0  0.021655850000000015  0.191325115  0.44475780533826353  1.0000
  Pd  Pd18      1.0  0.8135654700000002  0.9381608450000001  0.48725677970976894  1.0000
  Pd  Pd19      1.0  0.6277022700000001  0.6878566150000001  0.530643612086208  1.0000
  Pd  Pd20      1.0  0.20915585  0.44132511500000005  0.3990307732019659  1.0000
  Pd  Pd21      1.0  0.74142358  0.736734975  0.4170417293034857  1.0000
  Pd  Pd22      1.0  0.55392358  0.486734975  0.46276876143978335  1.0000
  Pd  Pd23      1.0  0.36943463000000004  0.238209435  0.5108707019824125  1.0000
  Pd  Pd24      1.0  0.15163378000000005  0.963324045  0.5434355334947456  1.0000
  Si  Si1       1.0  0.36353426  0.263265025  0.44267385255017166  1.0000
  Si  Si2       1.0  0.18160656000000003  0.018557445000000006  0.48620606030717856  1.0000
  Si  Si3       1.0  0.9751657100000002  0.7434382049999999  0.5370327320264692  1.0000
  Si  Si4       1.0  0.55103426  0.513265025  0.396946820413874  1.0000
  Si  Si5       1.0  0.75936759  0.013265025000000007  0.42743151094351406  1.0000
  Si  Si6       1.0  0.57186759  0.763265025  0.4731585430798118  1.0000
  Si  Si7       1.0  0.3901975000000001  0.513062425  0.5193089782683912  1.0000
  Si  Si8       1.0  0.20365614  0.21785703499999998  0.5589580537727086  1.0000
  Si  Si9       1.0  0.24895091999999996  0.8882650249999999  0.38932564595238267  1.0000
  Si  Si10      1.0  0.06145092000000002  0.638265025  0.4350526780886804  1.0000
  Si  Si11      1.0  0.8739509200000001  0.388265025  0.4807797102249781  1.0000
  Si  Si12      1.0  0.6781294800000002  0.131946535  0.5265584907290037  1.0000
