data_image0
_chemical_formula_structural       COAu8Cu4Zn4Au8Cu4Zn4Au8Cu4Zn4Au8Cu4Zn4
_chemical_formula_sum              "C1 O1 Au32 Cu16 Zn16"
_cell_length_a       8.98512916
_cell_length_b       8.98512916
_cell_length_c       108.12067456
_cell_angle_alpha    90.0
_cell_angle_beta     90.0
_cell_angle_gamma    90.0

_space_group_name_H-M_alt    "P 1"
_space_group_IT_number       1

loop_
  _space_group_symop_operation_xyz
  'x, y, z'

loop_
  _atom_site_type_symbol
  _atom_site_label
  _atom_site_symmetry_multiplicity
  _atom_site_fract_x
  _atom_site_fract_y
  _atom_site_fract_z
  _atom_site_occupancy
  C   C1        1.0  0.12143129500000001  0.37653570000000003  0.5551562966577138  1.0000
  O   O1        1.0  0.12143199500000001  0.37653631000000004  0.5659054277370761  1.0000
  Au  Au1       1.0  0.37143197499999997  0.37653644000000003  0.4340945722629239  1.0000
  Au  Au2       1.0  0.37143197499999997  0.37653644000000003  0.463475842458091  1.0000
  Au  Au3       1.0  0.12143197500000001  0.12653644000000003  0.463475842458091  1.0000
  Au  Au4       1.0  0.12143197500000001  0.12653644000000003  0.4340945722629239  1.0000
  Au  Au5       1.0  0.37143197499999997  0.37653644000000003  0.492857112653258  1.0000
  Au  Au6       1.0  0.36429622500000003  0.37653966000000005  0.522766618149136  1.0000
  Au  Au7       1.0  0.121433475  0.13364971000000003  0.5227874588725446  1.0000
  Au  Au8       1.0  0.12143197500000001  0.12653644000000003  0.492857112653258  1.0000
  Cu  Cu1       1.0  0.12143197500000001  0.37653644000000003  0.4781664793185508  1.0000
  Cu  Cu2       1.0  0.37143197499999997  0.12653644000000003  0.44878520559763113  1.0000
  Cu  Cu3       1.0  0.12143134500000001  0.37653428  0.5380400195994688  1.0000
  Cu  Cu4       1.0  0.37143197499999997  0.12653644000000003  0.5075477495137178  1.0000
  Zn  Zn1       1.0  0.37143197499999997  0.12653644000000003  0.4781664793185508  1.0000
  Zn  Zn2       1.0  0.12143197500000001  0.37653644000000003  0.44878520559763113  1.0000
  Zn  Zn3       1.0  0.37459290500000003  0.12346209000000004  0.5357021953208063  1.0000
  Zn  Zn4       1.0  0.12143197500000001  0.37653644000000003  0.5075477495137178  1.0000
  Au  Au9       1.0  0.37143197499999997  0.87653644  0.4340945722629239  1.0000
  Au  Au10      1.0  0.37143197499999997  0.87653644  0.463475842458091  1.0000
  Au  Au11      1.0  0.12143197500000001  0.62653644  0.463475842458091  1.0000
  Au  Au12      1.0  0.12143197500000001  0.62653644  0.4340945722629239  1.0000
  Au  Au13      1.0  0.37143197499999997  0.87653644  0.492857112653258  1.0000
  Au  Au14      1.0  0.37082855500000006  0.8765339300000001  0.5222786434169585  1.0000
  Au  Au15      1.0  0.12143500500000001  0.61942111  0.522787649263183  1.0000
  Au  Au16      1.0  0.12143197500000001  0.62653644  0.492857112653258  1.0000
  Cu  Cu5       1.0  0.12143197500000001  0.87653644  0.4781664793185508  1.0000
  Cu  Cu6       1.0  0.37143197499999997  0.62653644  0.44878520559763113  1.0000
  Cu  Cu7       1.0  0.12143124500000001  0.87653342  0.5349027203495594  1.0000
  Cu  Cu8       1.0  0.37143197499999997  0.62653644  0.5075477495137178  1.0000
  Zn  Zn5       1.0  0.37143197499999997  0.62653644  0.4781664793185508  1.0000
  Zn  Zn6       1.0  0.12143197500000001  0.87653644  0.44878520559763113  1.0000
  Zn  Zn7       1.0  0.37459442499999995  0.62961167  0.5357032036860396  1.0000
  Zn  Zn8       1.0  0.12143197500000001  0.87653644  0.5075477495137178  1.0000
  Au  Au17      1.0  0.8714319749999999  0.37653644000000003  0.4340945722629239  1.0000
  Au  Au18      1.0  0.8714319749999999  0.37653644000000003  0.463475842458091  1.0000
  Au  Au19      1.0  0.6214319749999999  0.12653644000000003  0.463475842458091  1.0000
  Au  Au20      1.0  0.6214319749999999  0.12653644000000003  0.4340945722629239  1.0000
  Au  Au21      1.0  0.8714319749999999  0.37653644000000003  0.492857112653258  1.0000
  Au  Au22      1.0  0.878568755  0.37653911  0.5227662796768899  1.0000
  Au  Au23      1.0  0.621427755  0.12701394000000005  0.522282743867191  1.0000
  Au  Au24      1.0  0.6214319749999999  0.12653644000000003  0.492857112653258  1.0000
  Cu  Cu9       1.0  0.6214319749999999  0.37653644000000003  0.4781664793185508  1.0000
  Cu  Cu10      1.0  0.8714319749999999  0.12653644000000003  0.44878520559763113  1.0000
  Cu  Cu11      1.0  0.6214332850000001  0.37653551  0.5348953056919165  1.0000
  Cu  Cu12      1.0  0.8714319749999999  0.12653644000000003  0.5075477495137178  1.0000
  Zn  Zn9       1.0  0.8714319749999999  0.12653644000000003  0.4781664793185508  1.0000
  Zn  Zn10      1.0  0.6214319749999999  0.37653644000000003  0.44878520559763113  1.0000
  Zn  Zn11      1.0  0.868266035  0.12346408000000003  0.5357011270177793  1.0000
  Zn  Zn12      1.0  0.6214319749999999  0.37653644000000003  0.5075477495137178  1.0000
  Au  Au25      1.0  0.8714319749999999  0.87653644  0.4340945722629239  1.0000
  Au  Au26      1.0  0.8714319749999999  0.87653644  0.463475842458091  1.0000
  Au  Au27      1.0  0.6214319749999999  0.62653644  0.463475842458091  1.0000
  Au  Au28      1.0  0.6214319749999999  0.62653644  0.4340945722629239  1.0000
  Au  Au29      1.0  0.8714319749999999  0.87653644  0.492857112653258  1.0000
  Au  Au30      1.0  0.8720360049999999  0.87653472  0.522278340202238  1.0000
  Au  Au31      1.0  0.621429485  0.62605924  0.5222831599059936  1.0000
  Au  Au32      1.0  0.6214319749999999  0.62653644  0.492857112653258  1.0000
  Cu  Cu13      1.0  0.6214319749999999  0.87653644  0.4781664793185508  1.0000
  Cu  Cu14      1.0  0.8714319749999999  0.62653644  0.44878520559763113  1.0000
  Cu  Cu15      1.0  0.6214332749999999  0.8765379099999999  0.5352556975417968  1.0000
  Cu  Cu16      1.0  0.8714319749999999  0.62653644  0.5075477495137178  1.0000
  Zn  Zn13      1.0  0.8714319749999999  0.62653644  0.4781664793185508  1.0000
  Zn  Zn14      1.0  0.6214319749999999  0.87653644  0.44878520559763113  1.0000
  Zn  Zn15      1.0  0.8682706949999999  0.6296111999999999  0.5357021882693012  1.0000
  Zn  Zn16      1.0  0.6214319749999999  0.87653644  0.5075477495137178  1.0000
