data_image0
_chemical_formula_structural       COSi4Se8Si4Se8
_chemical_formula_sum              "C1 O1 Si8 Se16"
_cell_length_a       10.98550083
_cell_length_b       6.65662414
_cell_length_c       105.84426139
_cell_angle_alpha    90.0
_cell_angle_beta     90.0
_cell_angle_gamma    90.0

_space_group_name_H-M_alt    "P 1"
_space_group_IT_number       1

loop_
  _space_group_symop_operation_xyz
  'x, y, z'

loop_
  _atom_site_type_symbol
  _atom_site_label
  _atom_site_symmetry_multiplicity
  _atom_site_fract_x
  _atom_site_fract_y
  _atom_site_fract_z
  _atom_site_occupancy
  C   C1        1.0  0.8087668700000001  0.75794004  0.5545711818541281  1.0000
  O   O1        1.0  0.8012089500000001  0.73821205  0.5653209828617893  1.0000
  Si  Si1       1.0  0.05501085000000001  0.9999716499999999  0.5051172734745232  1.0000
  Si  Si2       1.0  0.55501011  0.50008383  0.5051171346276271  1.0000
  Si  Si3       1.0  0.55606024  0.49845831999999995  0.5337925271078008  1.0000
  Si  Si4       1.0  0.06107035  0.011913810000000021  0.5338913319137091  1.0000
  Se  Se1       1.0  0.6668501499999999  0.6882622599999999  0.5191666321224299  1.0000
  Se  Se2       1.0  0.9432199600000001  0.8073649  0.4911208459726389  1.0000
  Se  Se3       1.0  0.94501542  0.1918541  0.5191888408527955  1.0000
  Se  Se4       1.0  0.6667492  0.3073649  0.4911208459726389  1.0000
  Se  Se5       1.0  0.1667492  0.19269180000000002  0.4911208459726389  1.0000
  Se  Se6       1.0  0.44288472999999995  0.31147647999999994  0.5191938088624701  1.0000
  Se  Se7       1.0  0.44321996  0.6926917999999999  0.4911208459726389  1.0000
  Se  Se8       1.0  0.16712595000000002  0.8133964  0.5193041278012304  1.0000
  Si  Si5       1.0  0.05498457999999999  2.8350000000021953e-05  0.4487894751934451  1.0000
  Si  Si6       1.0  0.55498458  0.50002835  0.4487894751934451  1.0000
  Si  Si7       1.0  0.55498458  0.50002835  0.4770103879174044  1.0000
  Si  Si8       1.0  0.05498457999999999  2.8350000000021953e-05  0.4770103879174044  1.0000
  Se  Se9       1.0  0.6667492  0.6926917999999999  0.4628999298621699  1.0000
  Se  Se10      1.0  0.9432199600000001  0.8073649  0.43467901713821055  1.0000
  Se  Se11      1.0  0.9432199600000001  0.19269180000000002  0.4628999298621699  1.0000
  Se  Se12      1.0  0.6667492  0.3073649  0.43467901713821055  1.0000
  Se  Se13      1.0  0.1667492  0.19269180000000002  0.43467901713821055  1.0000
  Se  Se14      1.0  0.44321996  0.3073649  0.4628999298621699  1.0000
  Se  Se15      1.0  0.44321996  0.6926917999999999  0.43467901713821055  1.0000
  Se  Se16      1.0  0.1667492  0.8073649  0.4628999298621699  1.0000
