data_image0
_chemical_formula_structural       COZn3Pt3Zn3Pt3Zn3Pt3Zn3Pt3
_chemical_formula_sum              "C1 O1 Zn12 Pt12"
_cell_length_a       4.598393015487309
_cell_length_b       8.19197018
_cell_length_c       102.60698618
_cell_angle_alpha    90.0
_cell_angle_beta     100.06674027779519
_cell_angle_gamma    63.552899298213774

_space_group_name_H-M_alt    "P 1"
_space_group_IT_number       1

loop_
  _space_group_symop_operation_xyz
  'x, y, z'

loop_
  _atom_site_type_symbol
  _atom_site_label
  _atom_site_symmetry_multiplicity
  _atom_site_fract_x
  _atom_site_fract_y
  _atom_site_fract_z
  _atom_site_occupancy
  C   C1        1.0  0.27522100999999993  0.4771510200000001  0.5491351536697715  1.0000
  O   O1        1.0  0.3384454099999999  0.46117364000000005  0.5607854340246576  1.0000
  Zn  Zn1       1.0  0.16378550999999994  0.0006406600000001054  0.5010061430401361  1.0000
  Zn  Zn2       1.0  0.4842568799999999  0.17326774000000011  0.5188065021627131  1.0000
  Zn  Zn3       1.0  0.84377139  0.3160154500000001  0.5346857191909629  1.0000
  Pt  Pt1       1.0  0.15622860999999993  0.9993593399999999  0.526631963805977  1.0000
  Pt  Pt2       1.0  0.49711883999999995  0.16730733000000006  0.49217877443404384  1.0000
  Pt  Pt3       1.0  0.8283111899999999  0.34089124000000004  0.5093758595822158  1.0000
  Zn  Zn4       1.0  0.16378550999999994  0.0006406600000001054  0.44804193458143465  1.0000
  Zn  Zn5       1.0  0.49711883999999995  0.16730733000000006  0.4656966686157669  1.0000
  Zn  Zn6       1.0  0.83045218  0.33397399  0.48335140582795155  1.0000
  Pt  Pt4       1.0  0.16378550999999994  0.0006406600000001054  0.4745240372218592  1.0000
  Pt  Pt5       1.0  0.49711883999999995  0.16730733000000006  0.4392145659753425  1.0000
  Pt  Pt6       1.0  0.83045218  0.33397399  0.45686930318752705  1.0000
  Zn  Zn7       1.0  0.16378550999999994  0.50064066  0.5010061430401361  1.0000
  Zn  Zn8       1.0  0.4946792199999999  0.6657032800000001  0.5191690983044219  1.0000
  Zn  Zn9       1.0  0.7919489999999999  0.8621171900000001  0.5350187676606477  1.0000
  Pt  Pt7       1.0  0.16028126999999992  0.50850308  0.5304486376817852  1.0000
  Pt  Pt8       1.0  0.49711883999999995  0.6673073300000001  0.49217877443404384  1.0000
  Pt  Pt9       1.0  0.8364741299999998  0.8247824100000002  0.50955582454397  1.0000
  Zn  Zn10      1.0  0.16378550999999994  0.50064066  0.44804193458143465  1.0000
  Zn  Zn11      1.0  0.49711883999999995  0.6673073300000001  0.4656966686157669  1.0000
  Zn  Zn12      1.0  0.83045218  0.83397399  0.48335140582795155  1.0000
  Pt  Pt10      1.0  0.16378550999999994  0.50064066  0.4745240372218592  1.0000
  Pt  Pt11      1.0  0.49711883999999995  0.6673073300000001  0.4392145659753425  1.0000
  Pt  Pt12      1.0  0.83045218  0.83397399  0.45686930318752705  1.0000
