data_image0
_chemical_formula_structural       COCa8Ge8Ca8Ge8
_chemical_formula_sum              "C1 O1 Ca16 Ge16"
_cell_length_a       11.02399353
_cell_length_b       6.177333386757079
_cell_length_c       107.06400033
_cell_angle_alpha    97.55487905346699
_cell_angle_beta     90.0
_cell_angle_gamma    90.0

_space_group_name_H-M_alt    "P 1"
_space_group_IT_number       1

loop_
  _space_group_symop_operation_xyz
  'x, y, z'

loop_
  _atom_site_type_symbol
  _atom_site_label
  _atom_site_symmetry_multiplicity
  _atom_site_fract_x
  _atom_site_fract_y
  _atom_site_fract_z
  _atom_site_occupancy
  C   C1        1.0  0.836218565  0.7703874149999999  0.5573664256597306  1.0000
  O   O1        1.0  0.8218131750000001  0.713950565  0.5671326498576568  1.0000
  Ca  Ca1       1.0  0.36595434500000007  0.107655455  0.4617161374200452  1.0000
  Ca  Ca2       1.0  0.36595434500000007  0.607655455  0.43286735014234307  1.0000
  Ca  Ca3       1.0  0.13943728500000005  0.107655455  0.43286735014234307  1.0000
  Ca  Ca4       1.0  0.13943728500000005  0.607655455  0.4617161374200452  1.0000
  Ca  Ca5       1.0  0.8659543449999999  0.35765545499999996  0.44729174205026684  1.0000
  Ca  Ca6       1.0  0.8659543449999999  0.8576554549999998  0.47614053278982355  1.0000
  Ca  Ca7       1.0  0.639437285  0.8576554549999998  0.44729174205026684  1.0000
  Ca  Ca8       1.0  0.639437285  0.35765545499999996  0.47614053278982355  1.0000
  Ge  Ge1       1.0  0.07952167500000004  0.107655455  0.4617161374200452  1.0000
  Ge  Ge2       1.0  0.07952167500000004  0.607655455  0.43286735014234307  1.0000
  Ge  Ge3       1.0  0.42586995499999997  0.107655455  0.43286735014234307  1.0000
  Ge  Ge4       1.0  0.42586995499999997  0.607655455  0.4617161374200452  1.0000
  Ge  Ge5       1.0  0.5795216750000001  0.35765545499999996  0.44729174205026684  1.0000
  Ge  Ge6       1.0  0.5795216750000001  0.8576554549999998  0.47614053278982355  1.0000
  Ge  Ge7       1.0  0.925869955  0.8576554549999998  0.44729174205026684  1.0000
  Ge  Ge8       1.0  0.925869955  0.35765545499999996  0.47614053278982355  1.0000
  Ca  Ca9       1.0  0.366879095  0.118381385  0.5199302033742567  1.0000
  Ca  Ca10      1.0  0.36595434500000007  0.607655455  0.4905649246977473  1.0000
  Ca  Ca11      1.0  0.13943728500000005  0.107655455  0.4905649246977473  1.0000
  Ca  Ca12      1.0  0.13669856500000005  0.612826585  0.5199760660241538  1.0000
  Ca  Ca13      1.0  0.8659543449999999  0.35765545499999996  0.5049893200675257  1.0000
  Ca  Ca14      1.0  0.859845785  0.8807702049999998  0.5343961617705043  1.0000
  Ca  Ca15      1.0  0.639437285  0.8576554549999998  0.5049893200675256  1.0000
  Ca  Ca16      1.0  0.6423537749999999  0.38894172499999996  0.5337258151671849  1.0000
  Ge  Ge9       1.0  0.07276103500000004  0.11390032500000002  0.5199629282859021  1.0000
  Ge  Ge10      1.0  0.07952167500000004  0.607655455  0.4905649246977473  1.0000
  Ge  Ge11      1.0  0.42586995499999997  0.107655455  0.4905649246977473  1.0000
  Ge  Ge12      1.0  0.431637135  0.6211522549999999  0.5198075187086691  1.0000
  Ge  Ge13      1.0  0.5795216750000001  0.35765545499999996  0.5049893200675257  1.0000
  Ge  Ge14      1.0  0.5754964650000001  0.8923445449999999  0.5331447394087399  1.0000
  Ge  Ge15      1.0  0.925869955  0.8576554549999998  0.5049893200675256  1.0000
  Ge  Ge16      1.0  0.9272389649999999  0.38720078499999994  0.5331473254141349  1.0000
