data_image0
_chemical_formula_structural       COAl6Cu2Al6Cu2Al6Cu2Al6Cu2
_chemical_formula_sum              "C1 O1 Al24 Cu8"
_cell_length_a       9.599382823974018
_cell_length_b       7.96781584
_cell_length_c       101.87126336
_cell_angle_alpha    90.0
_cell_angle_beta     65.47960730890053
_cell_angle_gamma    65.47960730890053

_space_group_name_H-M_alt    "P 1"
_space_group_IT_number       1

loop_
  _space_group_symop_operation_xyz
  'x, y, z'

loop_
  _atom_site_type_symbol
  _atom_site_label
  _atom_site_symmetry_multiplicity
  _atom_site_fract_x
  _atom_site_fract_y
  _atom_site_fract_z
  _atom_site_occupancy
  C   C1        1.0  0.20779196499999997  0.13176826500000016  0.534459563491894  1.0000
  O   O1        1.0  0.138524815  0.16682372500000014  0.547415345128515  1.0000
  Al  Al1       1.0  0.862610155  0.06119127500000011  0.5129139524909847  1.0000
  Al  Al2       1.0  0.8629406650000001  0.3060558450000001  0.4916919338881531  1.0000
  Al  Al3       1.0  0.13705933499999998  0.43117928500000013  0.5193405267377694  1.0000
  Al  Al4       1.0  0.14209361499999998  0.16649489500000017  0.5007622071251995  1.0000
  Al  Al5       1.0  0.584710995  0.19292222500000006  0.5028331878357177  1.0000
  Al  Al6       1.0  0.601058205  0.43712887500000014  0.5205772146578224  1.0000
  Cu  Cu1       1.0  0.362940665  0.30605584500000016  0.49169193388815313  1.0000
  Cu  Cu2       1.0  0.357512155  0.059427595000000125  0.5138190982852813  1.0000
  Al  Al7       1.0  0.8629406650000001  0.05605584500000004  0.472138294379819  1.0000
  Al  Al8       1.0  0.8629406650000001  0.3060558450000001  0.452584654871485  1.0000
  Al  Al9       1.0  0.138717295  0.4181675250000002  0.48090705988139393  1.0000
  Al  Al10      1.0  0.138717295  0.16816752500000015  0.4613534203730598  1.0000
  Al  Al11      1.0  0.5871640350000001  0.1939441550000001  0.4633695288782443  1.0000
  Al  Al12      1.0  0.5871640350000001  0.4439441550000001  0.48292316838657834  1.0000
  Cu  Cu3       1.0  0.362940665  0.30605584500000016  0.452584654871485  1.0000
  Cu  Cu4       1.0  0.362940665  0.056055845000000125  0.47213829437981913  1.0000
  Al  Al13      1.0  0.862439205  0.551394165  0.5129007530021709  1.0000
  Al  Al14      1.0  0.8629406650000001  0.8060558450000002  0.4916919338881531  1.0000
  Al  Al15      1.0  0.137455285  0.9067099450000002  0.5193431203325137  1.0000
  Al  Al16      1.0  0.140302565  0.6673604350000002  0.5000472541073814  1.0000
  Al  Al17      1.0  0.5840151350000001  0.6978991550000001  0.5028557793286601  1.0000
  Al  Al18      1.0  0.6195817450000001  0.9277577250000001  0.5206282105496601  1.0000
  Cu  Cu5       1.0  0.362940665  0.8060558450000002  0.49169193388815313  1.0000
  Cu  Cu6       1.0  0.36386661500000006  0.5553836550000001  0.5112741217101694  1.0000
  Al  Al19      1.0  0.8629406650000001  0.556055845  0.472138294379819  1.0000
  Al  Al20      1.0  0.8629406650000001  0.8060558450000002  0.452584654871485  1.0000
  Al  Al21      1.0  0.138717295  0.9181675250000002  0.48090705988139393  1.0000
  Al  Al22      1.0  0.138717295  0.6681675250000002  0.4613534203730598  1.0000
  Al  Al23      1.0  0.5871640350000001  0.6939441550000002  0.4633695288782443  1.0000
  Al  Al24      1.0  0.5871640350000001  0.9439441550000002  0.48292316838657834  1.0000
  Cu  Cu7       1.0  0.362940665  0.8060558450000002  0.452584654871485  1.0000
  Cu  Cu8       1.0  0.362940665  0.556055845  0.47213829437981913  1.0000
