data_image0
_chemical_formula_structural       COAl16Pt8Al16Pt8
_chemical_formula_sum              "C1 O1 Al32 Pt16"
_cell_length_a       8.45045896
_cell_length_b       10.349656271335911
_cell_length_c       109.18316625
_cell_angle_alpha    95.05115250342205
_cell_angle_beta     90.0
_cell_angle_gamma    90.0

_space_group_name_H-M_alt    "P 1"
_space_group_IT_number       1

loop_
  _space_group_symop_operation_xyz
  'x, y, z'

loop_
  _atom_site_type_symbol
  _atom_site_label
  _atom_site_symmetry_multiplicity
  _atom_site_fract_x
  _atom_site_fract_y
  _atom_site_fract_z
  _atom_site_occupancy
  C   C1        1.0  0.29494647999999996  0.43008069  0.5385397647859844  1.0000
  O   O1        1.0  0.29494642  0.44375995000000007  0.5495385352619082  1.0000
  Al  Al1       1.0  0.29494652  0.421875  0.4728911851312298  1.0000
  Al  Al2       1.0  0.29494652  0.10937500000000004  0.49532090552436775  1.0000
  Al  Al3       1.0  0.29494652  0.80988742  0.5152580918372097  1.0000
  Al  Al4       1.0  0.29494652  0.734375  0.4504614647380918  1.0000
  Al  Al5       1.0  0.04494652  0.578125  0.46167632493466076  1.0000
  Al  Al6       1.0  0.04494652  0.26562500000000006  0.4841060453277987  1.0000
  Al  Al7       1.0  0.04292317  0.95782734  0.5065226021666325  1.0000
  Al  Al8       1.0  0.95707683  0.62470936  0.5267021335336229  1.0000
  Al  Al9       1.0  0.04494652  0.765625  0.48410604532779883  1.0000
  Al  Al10      1.0  0.04709081  0.45458679  0.5057173141956793  1.0000
  Al  Al11      1.0  0.04450176  0.15851884000000005  0.5260032306236833  1.0000
  Al  Al12      1.0  0.04494652  0.07812500000000004  0.4616763249346608  1.0000
  Al  Al13      1.0  0.29494652  0.609375  0.49532090552436775  1.0000
  Al  Al14      1.0  0.29494653  0.2977917400000001  0.5168276231851742  1.0000
  Al  Al15      1.0  0.29494652  0.23437500000000006  0.4504614647380918  1.0000
  Al  Al16      1.0  0.29494652  0.921875  0.4728911851312298  1.0000
  Pt  Pt1       1.0  0.06845253999999999  0.40458002  0.5284028338864464  1.0000
  Pt  Pt2       1.0  0.04494652  0.32812500000000006  0.4616763249346608  1.0000
  Pt  Pt3       1.0  0.04494652  0.015625000000000035  0.48410604532779883  1.0000
  Pt  Pt4       1.0  0.04518344999999999  0.70697106  0.506785055016519  1.0000
  Pt  Pt5       1.0  0.29494652  0.671875  0.47289118513122985  1.0000
  Pt  Pt6       1.0  0.29494652  0.35937500000000006  0.49532090552436786  1.0000
  Pt  Pt7       1.0  0.29494652  0.05335395000000003  0.5176596904478992  1.0000
  Pt  Pt8       1.0  0.29494652  0.984375  0.45046146473809184  1.0000
  Al  Al17      1.0  0.79494652  0.421875  0.4728911851312298  1.0000
  Al  Al18      1.0  0.79494652  0.10937500000000004  0.49532090552436775  1.0000
  Al  Al19      1.0  0.7949464999999999  0.81941879  0.5164044766408807  1.0000
  Al  Al20      1.0  0.79494652  0.734375  0.4504614647380918  1.0000
  Al  Al21      1.0  0.54494652  0.578125  0.46167632493466076  1.0000
  Al  Al22      1.0  0.54494652  0.26562500000000006  0.4841060453277987  1.0000
  Al  Al23      1.0  0.54696986  0.95782735  0.5065225985778772  1.0000
  Al  Al24      1.0  0.63281615  0.62470936  0.5267021371223782  1.0000
  Al  Al25      1.0  0.54494652  0.765625  0.48410604532779883  1.0000
  Al  Al26      1.0  0.5428022299999999  0.45458677000000003  0.5057173213731899  1.0000
  Al  Al27      1.0  0.5453912799999999  0.15851883000000005  0.5260032306236833  1.0000
  Al  Al28      1.0  0.54494652  0.07812500000000004  0.4616763249346608  1.0000
  Al  Al29      1.0  0.79494652  0.609375  0.49532090552436775  1.0000
  Al  Al30      1.0  0.7949464999999999  0.32487009000000006  0.5191031057584146  1.0000
  Al  Al31      1.0  0.79494652  0.23437500000000006  0.4504614647380918  1.0000
  Al  Al32      1.0  0.79494652  0.921875  0.4728911851312298  1.0000
  Pt  Pt9       1.0  0.5214404699999999  0.40458002  0.528402841063957  1.0000
  Pt  Pt10      1.0  0.54494652  0.32812500000000006  0.4616763249346608  1.0000
  Pt  Pt11      1.0  0.54494652  0.015625000000000035  0.48410604532779883  1.0000
  Pt  Pt12      1.0  0.5447095799999999  0.70697106  0.5067850514277638  1.0000
  Pt  Pt13      1.0  0.79494652  0.671875  0.47289118513122985  1.0000
  Pt  Pt14      1.0  0.79494652  0.35937500000000006  0.49532090552436786  1.0000
  Pt  Pt15      1.0  0.7949465099999998  0.06432603000000003  0.5176828666293868  1.0000
  Pt  Pt16      1.0  0.79494652  0.984375  0.45046146473809184  1.0000
