data_image0
_chemical_formula_structural       COCa30Cu6Pb18
_chemical_formula_sum              "C1 O1 Ca30 Cu6 Pb18"
_cell_length_a       9.76671226314243
_cell_length_b       16.86402296648302
_cell_length_c       105.82963677000001
_cell_angle_alpha    90.25186349401248
_cell_angle_beta     114.13457906130208
_cell_angle_gamma    73.16764013869329

_space_group_name_H-M_alt    "P 1"
_space_group_IT_number       1

loop_
  _space_group_symop_operation_xyz
  'x, y, z'

loop_
  _atom_site_type_symbol
  _atom_site_label
  _atom_site_symmetry_multiplicity
  _atom_site_fract_x
  _atom_site_fract_y
  _atom_site_fract_z
  _atom_site_occupancy
  C   C1        1.0  0.08827686  0.04027329000000002  0.5605516964113917  1.0000
  O   O1        1.0  0.020519349999999992  0.11141301000000002  0.5610156753799499  1.0000
  Ca  Ca1       1.0  0.7497576700000002  0.83485688  0.4982018576243182  1.0000
  Ca  Ca2       1.0  0.7947737600000001  0.15464441  0.5365897328853474  1.0000
  Ca  Ca3       1.0  0.74975767  0.50152355  0.4605841275260508  1.0000
  Ca  Ca4       1.0  0.67099498  0.055555560000000004  0.4766020547183174  1.0000
  Ca  Ca5       1.0  0.67099498  0.38888889  0.5142197848165847  1.0000
  Ca  Ca6       1.0  0.6709949800000001  0.7222222199999999  0.43898432462005016  1.0000
  Ca  Ca7       1.0  0.25889895000000007  0.16514312  0.48008074080155866  1.0000
  Ca  Ca8       1.0  0.25889895000000007  0.49847645  0.5176984708998258  1.0000
  Ca  Ca9       1.0  0.2588989500000002  0.8318097899999999  0.44246301070329147  1.0000
  Ca  Ca10      1.0  0.004328310000000008  0.99847645  0.4612718774452229  1.0000
  Ca  Ca11      1.0  0.004328310000000008  0.33180979  0.4988896075434902  1.0000
  Ca  Ca12      1.0  0.008004379999999995  0.66929686  0.5350927375581808  1.0000
  Ca  Ca13      1.0  0.33766164  0.77777778  0.4828716769656279  1.0000
  Ca  Ca14      1.0  0.34268981  0.10719043000000002  0.5208130158473654  1.0000
  Ca  Ca15      1.0  0.33766164000000004  0.44444444  0.4452539468673607  1.0000
  Ca  Ca16      1.0  0.00432831  0.0015235500000000124  0.5170107243662495  1.0000
  Ca  Ca17      1.0  0.004328310000000008  0.33485688  0.4417752607841194  1.0000
  Ca  Ca18      1.0  0.004328310000000008  0.66819021  0.4793929942679824  1.0000
  Ca  Ca19      1.0  0.25889895000000007  0.08333333  0.4421191357437054  1.0000
  Ca  Ca20      1.0  0.25889895000000007  0.41666667  0.4797368658419726  1.0000
  Ca  Ca21      1.0  0.2588989500000001  0.7499999999999999  0.5173545959402398  1.0000
  Ca  Ca22      1.0  0.33766164  0.94444444  0.5016805437075593  1.0000
  Ca  Ca23      1.0  0.2803246  0.2996637  0.5374544275804161  1.0000
  Ca  Ca24      1.0  0.33766164000000004  0.61111111  0.46406281360929225  1.0000
  Ca  Ca25      1.0  0.7497576699999999  0.25  0.4609280024856369  1.0000
  Ca  Ca26      1.0  0.74975767  0.58333333  0.4985457325839041  1.0000
  Ca  Ca27      1.0  0.7509944  0.9090131099999998  0.5333584627533869  1.0000
  Ca  Ca28      1.0  0.6709949800000001  0.88888889  0.45779319136198166  1.0000
  Ca  Ca29      1.0  0.67099498  0.22222222  0.4954109214602488  1.0000
  Ca  Ca30      1.0  0.66116603  0.56427227  0.5334564757501381  1.0000
  Cu  Cu1       1.0  0.004328310000000008  0.16666667  0.45152356911467123  1.0000
  Cu  Cu2       1.0  0.004328310000000008  0.5  0.48914129921293836  1.0000
  Cu  Cu3       1.0  0.08323658000000014  0.8399176199999999  0.5343422593210879  1.0000
  Cu  Cu4       1.0  0.05230837999999999  0.96370559  0.5468348435351831  1.0000
  Cu  Cu5       1.0  0.004328310000000033  0.3333333299999999  0.47033243585660267  1.0000
  Cu  Cu6       1.0  0.004328310000000008  0.66666667  0.5079501659548697  1.0000
  Pb  Pb1       1.0  0.004328310000000008  0.88452206  0.48699210949308946  1.0000
  Pb  Pb2       1.0  0.010599430000000014  0.20193481  0.5226007322809577  1.0000
  Pb  Pb3       1.0  0.004328310000000008  0.55118873  0.4493743793948222  1.0000
  Pb  Pb4       1.0  0.6007621300000001  0.051188730000000016  0.505800976235021  1.0000
  Pb  Pb5       1.0  0.59433354  0.35695814  0.5414128085676532  1.0000
  Pb  Pb6       1.0  0.6007621300000001  0.71785539  0.4681832461367538  1.0000
  Pb  Pb7       1.0  0.6007621300000001  0.08333333  0.4421191357437054  1.0000
  Pb  Pb8       1.0  0.6007621300000001  0.41666667  0.4797368658419726  1.0000
  Pb  Pb9       1.0  0.6007621300000001  0.7499999999999999  0.5173545959402398  1.0000
  Pb  Pb10      1.0  0.40789448999999994  0.94881127  0.47248162557645157  1.0000
  Pb  Pb11      1.0  0.40789448999999994  0.28214461  0.5100993556747188  1.0000
  Pb  Pb12      1.0  0.34030398000000006  0.48140564  0.5517085609586082  1.0000
  Pb  Pb13      1.0  0.40789449000000005  0.25  0.4609280024856369  1.0000
  Pb  Pb14      1.0  0.40789449  0.58333333  0.4985457325839041  1.0000
  Pb  Pb15      1.0  0.41377736  0.89157254  0.5354312531197061  1.0000
  Pb  Pb16      1.0  0.004328310000000008  0.11547794  0.4912904889327874  1.0000
  Pb  Pb17      1.0  0.99567169  0.47209399  0.5303060333309388  1.0000
  Pb  Pb18      1.0  0.004328310000000008  0.78214461  0.45367275883452013  1.0000
