data_image0
_chemical_formula_structural       COAg12Pd4Ag12Pd4Ag12Pd4Ag12Pd4
_chemical_formula_sum              "C1 O1 Ag48 Pd16"
_cell_length_a       17.02566842302879
_cell_length_b       8.30655984
_cell_length_c       99.07295944
_cell_angle_alpha    90.0
_cell_angle_beta     75.88066718549544
_cell_angle_gamma    90.0

_space_group_name_H-M_alt    "P 1"
_space_group_IT_number       1

loop_
  _space_group_symop_operation_xyz
  'x, y, z'

loop_
  _atom_site_type_symbol
  _atom_site_label
  _atom_site_symmetry_multiplicity
  _atom_site_fract_x
  _atom_site_fract_y
  _atom_site_fract_z
  _atom_site_occupancy
  C   C1        1.0  0.5400212200000001  0.12409145999999999  0.5362112583804342  1.0000
  O   O1        1.0  0.51235324  0.12409130999999998  0.5482517992511838  1.0000
  Ag  Ag1       1.0  0.18591140000000003  0.12409113  0.5098149823628623  1.0000
  Ag  Ag2       1.0  0.7008117100000001  0.12409411999999997  0.529820369405031  1.0000
  Ag  Ag3       1.0  0.19503804  0.37359201999999997  0.529527327305648  1.0000
  Ag  Ag4       1.0  0.6858959  0.37669797  0.5099436308406158  1.0000
  Ag  Ag5       1.0  0.06138120000000004  0.37227404  0.5146376510896494  1.0000
  Ag  Ag6       1.0  0.56361883  0.37409147  0.4936696277497903  1.0000
  Ag  Ag7       1.0  0.44161739000000005  0.37850839999999997  0.5199349839866482  1.0000
  Ag  Ag8       1.0  0.93861883  0.37409147  0.4989098083257869  1.0000
  Ag  Ag9       1.0  0.43861883000000007  0.12409146999999998  0.4989098083257869  1.0000
  Ag  Ag10      1.0  0.9342669600000001  0.12409311999999999  0.5203017583317437  1.0000
  Ag  Ag11      1.0  0.31696082000000003  0.12409102999999999  0.5244943370985333  1.0000
  Ag  Ag12      1.0  0.81419251  0.12409276999999998  0.5036910477822976  1.0000
  Pd  Pd1       1.0  0.06361883000000004  0.12409146999999998  0.4936696277497902  1.0000
  Pd  Pd2       1.0  0.56243862  0.12409119999999998  0.5162914090772718  1.0000
  Pd  Pd3       1.0  0.314636  0.37386673  0.5043629426285651  1.0000
  Pd  Pd4       1.0  0.8157526000000002  0.37662647  0.5237198873480567  1.0000
  Ag  Ag13      1.0  0.18861883000000007  0.12409146999999998  0.4674687366078066  1.0000
  Ag  Ag14      1.0  0.68861883  0.12409146999999998  0.4884294501082934  1.0000
  Ag  Ag15      1.0  0.18861883000000007  0.37409147  0.4884294501082935  1.0000
  Ag  Ag16      1.0  0.68861883  0.37409147  0.4674687366078066  1.0000
  Ag  Ag17      1.0  0.06361883000000004  0.37409147  0.4727089142493033  1.0000
  Ag  Ag18      1.0  0.56361883  0.37409147  0.45174820074881644  1.0000
  Ag  Ag19      1.0  0.43861883000000007  0.37409147  0.4779490948253  1.0000
  Ag  Ag20      1.0  0.93861883  0.37409147  0.45698837839031314  1.0000
  Ag  Ag21      1.0  0.43861883000000007  0.12409146999999998  0.45698837839031314  1.0000
  Ag  Ag22      1.0  0.93861883  0.12409146999999998  0.4779490948253  1.0000
  Ag  Ag23      1.0  0.31361883  0.12409146999999998  0.4831892724667967  1.0000
  Ag  Ag24      1.0  0.81361883  0.12409146999999998  0.46222855896630977  1.0000
  Pd  Pd5       1.0  0.06361883000000004  0.12409146999999998  0.45174820074881633  1.0000
  Pd  Pd6       1.0  0.56361883  0.12409146999999998  0.47270891424930334  1.0000
  Pd  Pd7       1.0  0.31361883  0.37409147  0.46222855896630977  1.0000
  Pd  Pd8       1.0  0.81361883  0.37409147  0.4831892724667967  1.0000
  Ag  Ag25      1.0  0.18482858000000008  0.62409123  0.5098832241591706  1.0000
  Ag  Ag26      1.0  0.69501468  0.6240924099999999  0.5298618456273066  1.0000
  Ag  Ag27      1.0  0.19503811000000004  0.8745901100000001  0.5295273155676482  1.0000
  Ag  Ag28      1.0  0.68589538  0.87148569  0.5099437716966133  1.0000
  Ag  Ag29      1.0  0.06138117000000005  0.87590897  0.5146375982686503  1.0000
  Ag  Ag30      1.0  0.56361883  0.87409147  0.4936696277497903  1.0000
  Ag  Ag31      1.0  0.4416174500000001  0.8696736400000001  0.5199351424496454  1.0000
  Ag  Ag32      1.0  0.93861883  0.87409147  0.4989098083257869  1.0000
  Ag  Ag33      1.0  0.43861883000000007  0.6240914700000001  0.4989098083257869  1.0000
  Ag  Ag34      1.0  0.9372644000000001  0.6240927199999998  0.5200392966563266  1.0000
  Ag  Ag35      1.0  0.31618276000000006  0.62409105  0.5245315348198839  1.0000
  Ag  Ag36      1.0  0.81409452  0.6240926399999999  0.5037635064550323  1.0000
  Pd  Pd9       1.0  0.06361883000000004  0.6240914700000001  0.4936696277497902  1.0000
  Pd  Pd10      1.0  0.56563876  0.62409125  0.5138575465577716  1.0000
  Pd  Pd11      1.0  0.31463620000000003  0.8743158200000001  0.5043629484975649  1.0000
  Pd  Pd12      1.0  0.81575626  0.87155723  0.5237193650070658  1.0000
  Ag  Ag37      1.0  0.18861883000000007  0.6240914700000001  0.4674687366078066  1.0000
  Ag  Ag38      1.0  0.68861883  0.6240914700000001  0.4884294501082934  1.0000
  Ag  Ag39      1.0  0.18861883000000007  0.87409147  0.4884294501082935  1.0000
  Ag  Ag40      1.0  0.68861883  0.87409147  0.4674687366078066  1.0000
  Ag  Ag41      1.0  0.06361883000000004  0.87409147  0.4727089142493033  1.0000
  Ag  Ag42      1.0  0.56361883  0.87409147  0.45174820074881644  1.0000
  Ag  Ag43      1.0  0.43861883000000007  0.87409147  0.4779490948253  1.0000
  Ag  Ag44      1.0  0.93861883  0.87409147  0.45698837839031314  1.0000
  Ag  Ag45      1.0  0.43861883000000007  0.6240914700000001  0.45698837839031314  1.0000
  Ag  Ag46      1.0  0.93861883  0.6240914700000001  0.4779490948253  1.0000
  Ag  Ag47      1.0  0.31361883  0.6240914700000001  0.4831892724667967  1.0000
  Ag  Ag48      1.0  0.81361883  0.6240914700000001  0.46222855896630977  1.0000
  Pd  Pd13      1.0  0.06361883000000004  0.6240914700000001  0.45174820074881633  1.0000
  Pd  Pd14      1.0  0.56361883  0.6240914700000001  0.47270891424930334  1.0000
  Pd  Pd15      1.0  0.31361883  0.87409147  0.46222855896630977  1.0000
  Pd  Pd16      1.0  0.81361883  0.87409147  0.4831892724667967  1.0000
