data_image0
_chemical_formula_structural       COAl4Ge4Ru8Al4Ge4Ru8Al4Ge4Ru8Al4Ge4Ru8
_chemical_formula_sum              "C1 O1 Al16 Ge16 Ru32"
_cell_length_a       8.56020502
_cell_length_b       8.56020502
_cell_length_c       106.31787412
_cell_angle_alpha    90.0
_cell_angle_beta     90.0
_cell_angle_gamma    90.0

_space_group_name_H-M_alt    "P 1"
_space_group_IT_number       1

loop_
  _space_group_symop_operation_xyz
  'x, y, z'

loop_
  _atom_site_type_symbol
  _atom_site_label
  _atom_site_symmetry_multiplicity
  _atom_site_fract_x
  _atom_site_fract_y
  _atom_site_fract_z
  _atom_site_occupancy
  C   C1        1.0  0.375823995  0.12461015500000001  0.55286459900489  1.0000
  O   O1        1.0  0.375827815  0.12460971500000001  0.5639595453962446  1.0000
  Al  Al1       1.0  0.375838405  0.37382353500000004  0.5215033714904233  1.0000
  Al  Al2       1.0  0.12582622499999999  0.12460965500000001  0.4929732970630478  1.0000
  Al  Al3       1.0  0.375826225  0.37460965500000004  0.4645068758334016  1.0000
  Al  Al4       1.0  0.12582622499999999  0.12460965500000001  0.4360404546037554  1.0000
  Ge  Ge1       1.0  0.12761868499999998  0.12460416500000002  0.5216034116078806  1.0000
  Ge  Ge2       1.0  0.375826225  0.37460965500000004  0.4929732970630478  1.0000
  Ge  Ge3       1.0  0.12582622499999999  0.12460965500000001  0.4645068758334016  1.0000
  Ge  Ge4       1.0  0.375826225  0.37460965500000004  0.4360404546037554  1.0000
  Ru  Ru1       1.0  0.37582187499999997  0.12460998500000002  0.5352375617358309  1.0000
  Ru  Ru2       1.0  0.375825595  0.124608305  0.5070080449050751  1.0000
  Ru  Ru3       1.0  0.125674205  0.37501753500000007  0.5069912554091622  1.0000
  Ru  Ru4       1.0  0.126643865  0.374520145  0.5343090701601302  1.0000
  Ru  Ru5       1.0  0.375826225  0.12460965500000001  0.47874008815621  1.0000
  Ru  Ru6       1.0  0.375826225  0.12460965500000001  0.4502736635105931  1.0000
  Ru  Ru7       1.0  0.12582622499999999  0.37460965500000004  0.4502736635105931  1.0000
  Ru  Ru8       1.0  0.12582622499999999  0.37460965500000004  0.47874008815621  1.0000
  Al  Al5       1.0  0.375814345  0.875395835  0.5215034193140128  1.0000
  Al  Al6       1.0  0.12582622499999999  0.624609655  0.4929732970630478  1.0000
  Al  Al7       1.0  0.375826225  0.8746096550000001  0.4645068758334016  1.0000
  Al  Al8       1.0  0.12582622499999999  0.624609655  0.4360404546037554  1.0000
  Ge  Ge5       1.0  0.12416838499999999  0.6246040650000001  0.5217306735957205  1.0000
  Ge  Ge6       1.0  0.375826225  0.8746096550000001  0.4929732970630478  1.0000
  Ge  Ge7       1.0  0.12582622499999999  0.624609655  0.4645068758334016  1.0000
  Ge  Ge8       1.0  0.375826225  0.8746096550000001  0.4360404546037554  1.0000
  Ru  Ru9       1.0  0.375825355  0.6246092150000001  0.5341117876052058  1.0000
  Ru  Ru10      1.0  0.375829015  0.6246105949999999  0.5070407152486988  1.0000
  Ru  Ru11      1.0  0.125670125  0.874204855  0.5069885499603803  1.0000
  Ru  Ru12      1.0  0.126637975  0.874678295  0.5343128960472965  1.0000
  Ru  Ru13      1.0  0.375826225  0.624609655  0.47874008815621  1.0000
  Ru  Ru14      1.0  0.375826225  0.624609655  0.4502736635105931  1.0000
  Ru  Ru15      1.0  0.12582622499999999  0.8746096550000001  0.4502736635105931  1.0000
  Ru  Ru16      1.0  0.12582622499999999  0.8746096550000001  0.47874008815621  1.0000
  Al  Al9       1.0  0.875816685  0.376222805  0.5215503786630086  1.0000
  Al  Al10      1.0  0.625826225  0.12460965500000001  0.4929732970630478  1.0000
  Al  Al11      1.0  0.875826225  0.37460965500000004  0.4645068758334016  1.0000
  Al  Al12      1.0  0.625826225  0.12460965500000001  0.4360404546037554  1.0000
  Ge  Ge9       1.0  0.6240317649999999  0.12461584500000002  0.5216038010285386  1.0000
  Ge  Ge10      1.0  0.875826225  0.37460965500000004  0.4929732970630478  1.0000
  Ge  Ge11      1.0  0.625826225  0.12460965500000001  0.4645068758334016  1.0000
  Ge  Ge12      1.0  0.875826225  0.37460965500000004  0.4360404546037554  1.0000
  Ru  Ru17      1.0  0.875827315  0.12460977500000002  0.5339893216402066  1.0000
  Ru  Ru18      1.0  0.8758240049999999  0.12461016500000002  0.5069992317007098  1.0000
  Ru  Ru19      1.0  0.6259789649999999  0.37500929499999996  0.5069881502918103  1.0000
  Ru  Ru20      1.0  0.625012535  0.37454267500000005  0.5343128994632671  1.0000
  Ru  Ru21      1.0  0.875826225  0.12460965500000001  0.47874008815621  1.0000
  Ru  Ru22      1.0  0.875826225  0.12460965500000001  0.4502736635105931  1.0000
  Ru  Ru23      1.0  0.625826225  0.37460965500000004  0.4502736635105931  1.0000
  Ru  Ru24      1.0  0.625826225  0.37460965500000004  0.47874008815621  1.0000
  Al  Al13      1.0  0.875831615  0.8729963850000001  0.5215505836212495  1.0000
  Al  Al14      1.0  0.625826225  0.624609655  0.4929732970630478  1.0000
  Al  Al15      1.0  0.875826225  0.8746096550000001  0.4645068758334016  1.0000
  Al  Al16      1.0  0.625826225  0.624609655  0.4360404546037554  1.0000
  Ge  Ge13      1.0  0.6274849849999999  0.624615585  0.5217307384991634  1.0000
  Ge  Ge14      1.0  0.875826225  0.8746096550000001  0.4929732970630478  1.0000
  Ge  Ge15      1.0  0.625826225  0.624609655  0.4645068758334016  1.0000
  Ge  Ge16      1.0  0.875826225  0.8746096550000001  0.4360404546037554  1.0000
  Ru  Ru25      1.0  0.875829185  0.624607915  0.5343280800369877  1.0000
  Ru  Ru26      1.0  0.8758241849999999  0.6246091949999999  0.5068821253937142  1.0000
  Ru  Ru27      1.0  0.625979895  0.874204625  0.5069912349133382  1.0000
  Ru  Ru28      1.0  0.625006155  0.874699005  0.5343092921982247  1.0000
  Ru  Ru29      1.0  0.875826225  0.624609655  0.47874008815621  1.0000
  Ru  Ru30      1.0  0.875826225  0.624609655  0.4502736635105931  1.0000
  Ru  Ru31      1.0  0.625826225  0.8746096550000001  0.4502736635105931  1.0000
  Ru  Ru32      1.0  0.625826225  0.8746096550000001  0.47874008815621  1.0000
