data_image0
_chemical_formula_structural       COAl4Fe8Mn4Al4Fe8Mn4Al4Fe8Mn4Al4Fe8Mn4
_chemical_formula_sum              "C1 O1 Al16 Fe32 Mn16"
_cell_length_a       8.00772002
_cell_length_b       8.00772002
_cell_length_c       103.9738788
_cell_angle_alpha    90.0
_cell_angle_beta     90.0
_cell_angle_gamma    90.0

_space_group_name_H-M_alt    "P 1"
_space_group_IT_number       1

loop_
  _space_group_symop_operation_xyz
  'x, y, z'

loop_
  _atom_site_type_symbol
  _atom_site_label
  _atom_site_symmetry_multiplicity
  _atom_site_fract_x
  _atom_site_fract_y
  _atom_site_fract_z
  _atom_site_occupancy
  C   C1        1.0  0.121259605  0.3778381049999999  0.5510196508424052  1.0000
  O   O1        1.0  0.12356516500000002  0.377472625  0.5624234562644076  1.0000
  Al  Al1       1.0  0.37216124500000003  0.128104745  0.4784207913390587  1.0000
  Al  Al2       1.0  0.122161245  0.378104745  0.45119129402592767  1.0000
  Al  Al3       1.0  0.349049435  0.143700305  0.5344417255418539  1.0000
  Al  Al4       1.0  0.12272888500000001  0.378365115  0.5050151344616373  1.0000
  Fe  Fe1       1.0  0.122161245  0.128104745  0.43757654373559235  1.0000
  Fe  Fe2       1.0  0.37216124500000003  0.378104745  0.43757654373559235  1.0000
  Fe  Fe3       1.0  0.37216124500000003  0.378104745  0.4648060410487233  1.0000
  Fe  Fe4       1.0  0.122161245  0.128104745  0.4648060410487233  1.0000
  Fe  Fe5       1.0  0.122161245  0.128104745  0.4920355416293941  1.0000
  Fe  Fe6       1.0  0.37216124500000003  0.378104745  0.4920355416293941  1.0000
  Fe  Fe7       1.0  0.362276605  0.37855106499999996  0.5191652450092404  1.0000
  Fe  Fe8       1.0  0.112020455  0.13359247500000002  0.5188673336023003  1.0000
  Mn  Mn1       1.0  0.37216124500000003  0.128104745  0.45119129402592767  1.0000
  Mn  Mn2       1.0  0.122161245  0.378104745  0.4784207913390587  1.0000
  Mn  Mn3       1.0  0.367893625  0.12126657499999999  0.506692431263562  1.0000
  Mn  Mn4       1.0  0.11691670500000001  0.378339475  0.5336143387168407  1.0000
  Al  Al5       1.0  0.37216124500000003  0.628104745  0.4784207913390587  1.0000
  Al  Al6       1.0  0.122161245  0.878104745  0.45119129402592767  1.0000
  Al  Al7       1.0  0.348294715  0.6135353549999999  0.5344381867962416  1.0000
  Al  Al8       1.0  0.129468665  0.8781100550000002  0.5054431298958847  1.0000
  Fe  Fe9       1.0  0.122161245  0.628104745  0.43757654373559235  1.0000
  Fe  Fe10      1.0  0.37216124500000003  0.878104745  0.43757654373559235  1.0000
  Fe  Fe11      1.0  0.37216124500000003  0.878104745  0.4648060410487233  1.0000
  Fe  Fe12      1.0  0.122161245  0.628104745  0.4648060410487233  1.0000
  Fe  Fe13      1.0  0.122161245  0.628104745  0.4920355416293941  1.0000
  Fe  Fe14      1.0  0.37216124500000003  0.878104745  0.4920355416293941  1.0000
  Fe  Fe15      1.0  0.38406495500000004  0.878509595  0.520665107864496  1.0000
  Fe  Fe16      1.0  0.111595765  0.623158225  0.5188810343967164  1.0000
  Mn  Mn5       1.0  0.37216124500000003  0.628104745  0.45119129402592767  1.0000
  Mn  Mn6       1.0  0.122161245  0.878104745  0.4784207913390587  1.0000
  Mn  Mn7       1.0  0.368272115  0.635005875  0.5066851871278071  1.0000
  Mn  Mn8       1.0  0.15300567499999998  0.8787334250000001  0.5305359535205249  1.0000
  Al  Al9       1.0  0.872161245  0.128104745  0.4784207913390587  1.0000
  Al  Al10      1.0  0.6221612449999999  0.378104745  0.45119129402592767  1.0000
  Al  Al11      1.0  0.874603055  0.137522305  0.5339801757413153  1.0000
  Al  Al12      1.0  0.6183995550000001  0.37822591499999997  0.5055270305155418  1.0000
  Fe  Fe17      1.0  0.6221612449999999  0.128104745  0.43757654373559235  1.0000
  Fe  Fe18      1.0  0.872161245  0.378104745  0.43757654373559235  1.0000
  Fe  Fe19      1.0  0.872161245  0.378104745  0.4648060410487233  1.0000
  Fe  Fe20      1.0  0.6221612449999999  0.128104745  0.4648060410487233  1.0000
  Fe  Fe21      1.0  0.6221612449999999  0.128104745  0.4920355416293941  1.0000
  Fe  Fe22      1.0  0.872161245  0.378104745  0.4920355416293941  1.0000
  Fe  Fe23      1.0  0.8755623349999999  0.37818558500000005  0.5188716663600861  1.0000
  Fe  Fe24      1.0  0.6010748050000001  0.127587645  0.5203277343792915  1.0000
  Mn  Mn9       1.0  0.872161245  0.128104745  0.45119129402592767  1.0000
  Mn  Mn10      1.0  0.6221612449999999  0.378104745  0.4784207913390587  1.0000
  Mn  Mn11      1.0  0.859148915  0.12796060499999998  0.5067104092675871  1.0000
  Mn  Mn12      1.0  0.636236455  0.37772582499999996  0.5301363432045919  1.0000
  Al  Al13      1.0  0.872161245  0.628104745  0.4784207913390587  1.0000
  Al  Al14      1.0  0.6221612449999999  0.878104745  0.45119129402592767  1.0000
  Al  Al15      1.0  0.8743462849999999  0.618835425  0.534008351737082  1.0000
  Al  Al16      1.0  0.627152235  0.8778850850000001  0.5056832646639348  1.0000
  Fe  Fe25      1.0  0.6221612449999999  0.628104745  0.43757654373559235  1.0000
  Fe  Fe26      1.0  0.872161245  0.878104745  0.43757654373559235  1.0000
  Fe  Fe27      1.0  0.872161245  0.878104745  0.4648060410487233  1.0000
  Fe  Fe28      1.0  0.6221612449999999  0.628104745  0.4648060410487233  1.0000
  Fe  Fe29      1.0  0.6221612449999999  0.628104745  0.4920355416293941  1.0000
  Fe  Fe30      1.0  0.872161245  0.878104745  0.4920355416293941  1.0000
  Fe  Fe31      1.0  0.888404235  0.8780585750000001  0.5199276862130242  1.0000
  Fe  Fe32      1.0  0.6008421450000001  0.628495035  0.5203784727374343  1.0000
  Mn  Mn13      1.0  0.872161245  0.628104745  0.45119129402592767  1.0000
  Mn  Mn14      1.0  0.6221612449999999  0.878104745  0.4784207913390587  1.0000
  Mn  Mn15      1.0  0.8590048050000001  0.628282395  0.5067264986336031  1.0000
  Mn  Mn16      1.0  0.6610318749999999  0.877972725  0.5304373751120489  1.0000
