data_image0
_chemical_formula_structural       COPd24Si24
_chemical_formula_sum              "C1 O1 Pd24 Si24"
_cell_length_a       8.396295438603524
_cell_length_b       9.093633990910378
_cell_length_c       102.53315763
_cell_angle_alpha    97.62784303511285
_cell_angle_beta     91.37557395479011
_cell_angle_gamma    94.92681552938973

_space_group_name_H-M_alt    "P 1"
_space_group_IT_number       1

loop_
  _space_group_symop_operation_xyz
  'x, y, z'

loop_
  _atom_site_type_symbol
  _atom_site_label
  _atom_site_symmetry_multiplicity
  _atom_site_fract_x
  _atom_site_fract_y
  _atom_site_fract_z
  _atom_site_occupancy
  C   C1        1.0  0.907880375  0.08292928000000004  0.5470340582314885  1.0000
  O   O1        1.0  0.897492385  0.13420306  0.557938301875437  1.0000
  Pd  Pd1       1.0  0.9021837549999999  0.16204397000000004  0.46730452827629926  1.0000
  Pd  Pd2       1.0  0.4021837549999999  0.71204397  0.45143982734345617  1.0000
  Pd  Pd3       1.0  0.0890279949999999  0.036268330000000036  0.4452428784367961  1.0000
  Pd  Pd4       1.0  0.5890279949999999  0.48626833  0.46110757936963914  1.0000
  Pd  Pd5       1.0  0.593259015  0.9900762499999999  0.46124182646893286  1.0000
  Pd  Pd6       1.0  0.09325901499999992  0.5400762500000001  0.4453771255360899  1.0000
  Pd  Pd7       1.0  0.39795273499999984  0.20823605000000003  0.45130558024416245  1.0000
  Pd  Pd8       1.0  0.8979527349999998  0.6582360500000001  0.46717028117700543  1.0000
  Pd  Pd9       1.0  0.9021837549999999  0.06204397000000003  0.4990339301419852  1.0000
  Pd  Pd10      1.0  0.40218375499999987  0.61204397  0.4831692292091422  1.0000
  Pd  Pd11      1.0  0.0890279949999999  0.9362683299999999  0.4769722803024821  1.0000
  Pd  Pd12      1.0  0.5890279949999999  0.38626833  0.49283698123532516  1.0000
  Pd  Pd13      1.0  0.593259015  0.89007625  0.49297122833461887  1.0000
  Pd  Pd14      1.0  0.09325901499999992  0.44007625000000006  0.47710652740177584  1.0000
  Pd  Pd15      1.0  0.39795273499999984  0.10823605000000003  0.4830349821098485  1.0000
  Pd  Pd16      1.0  0.8979527349999998  0.5582360500000001  0.49889968304269156  1.0000
  Pd  Pd17      1.0  0.914040705  0.9881946399999999  0.5287615335627855  1.0000
  Pd  Pd18      1.0  0.40239395499999986  0.5163588100000002  0.5143607225249992  1.0000
  Pd  Pd19      1.0  0.08595929499999994  0.83666818  0.5080459655221521  1.0000
  Pd  Pd20      1.0  0.5877227149999998  0.2936188  0.5222104591477831  1.0000
  Pd  Pd21      1.0  0.590468935  0.802366  0.523102943763461  1.0000
  Pd  Pd22      1.0  0.09575421499999993  0.3431909  0.508500454301536  1.0000
  Pd  Pd23      1.0  0.38793790499999986  0.009923750000000038  0.5144611905030667  1.0000
  Pd  Pd24      1.0  0.8905413449999998  0.47917158000000004  0.5276627412032368  1.0000
  Si  Si1       1.0  0.29769305499999993  0.9618574400000001  0.4602469764569557  1.0000
  Si  Si2       1.0  0.7976930549999999  0.51185744  0.44438227552411275  1.0000
  Si  Si3       1.0  0.693518695  0.23645486000000004  0.45230043025613964  1.0000
  Si  Si4       1.0  0.1935186949999999  0.68645486  0.4681651311889826  1.0000
  Si  Si5       1.0  0.8708295349999998  0.89603461  0.457926399057406  1.0000
  Si  Si6       1.0  0.3708295349999999  0.44603461000000005  0.4420616981245629  1.0000
  Si  Si7       1.0  0.12038221499999995  0.30227769000000004  0.45462100765568936  1.0000
  Si  Si8       1.0  0.620382215  0.75227769  0.4704857085885323  1.0000
  Si  Si9       1.0  0.29769305499999993  0.86185744  0.49197637832264174  1.0000
  Si  Si10      1.0  0.7976930549999999  0.41185744  0.47611167738979876  1.0000
  Si  Si11      1.0  0.693518695  0.13645486  0.48402983212182554  1.0000
  Si  Si12      1.0  0.19351869499999988  0.58645486  0.4998945330546686  1.0000
  Si  Si13      1.0  0.8708295349999998  0.79603461  0.489655800923092  1.0000
  Si  Si14      1.0  0.37082953499999993  0.34603461  0.47379109999024904  1.0000
  Si  Si15      1.0  0.12038221499999992  0.20227769  0.48635040952137526  1.0000
  Si  Si16      1.0  0.620382215  0.65227769  0.5022151104542183  1.0000
  Si  Si17      1.0  0.30028755499999993  0.77697101  0.5240041666564128  1.0000
  Si  Si18      1.0  0.8006691749999999  0.3087441900000001  0.5075335896220043  1.0000
  Si  Si19      1.0  0.681418585  0.04859688000000004  0.5162588546681092  1.0000
  Si  Si20      1.0  0.16654446499999992  0.55608875  0.5292089403396731  1.0000
  Si  Si21      1.0  0.8673763249999998  0.71981383  0.5215278962548484  1.0000
  Si  Si22      1.0  0.36780680499999985  0.24848813000000006  0.5058646452944506  1.0000
  Si  Si23      1.0  0.12798187499999994  0.10788854000000003  0.5174816138007474  1.0000
  Si  Si24      1.0  0.627573095  0.56170193  0.5315445511298268  1.0000
