data_image0
_chemical_formula_structural       COMn8Sb8Mn8Sb8
_chemical_formula_sum              "C1 O1 Mn16 Sb16"
_cell_length_a       6.80973004
_cell_length_b       11.456542306199825
_cell_length_c       101.45279576
_cell_angle_alpha    99.88013390337906
_cell_angle_beta     90.0
_cell_angle_gamma    72.71059537051131

_space_group_name_H-M_alt    "P 1"
_space_group_IT_number       1

loop_
  _space_group_symop_operation_xyz
  'x, y, z'

loop_
  _atom_site_type_symbol
  _atom_site_label
  _atom_site_symmetry_multiplicity
  _atom_site_fract_x
  _atom_site_fract_y
  _atom_site_fract_z
  _atom_site_occupancy
  C   C1        1.0  0.24200360500000007  0.37658920999999995  0.5355982760265439  1.0000
  O   O1        1.0  0.17070951500000006  0.40817413999999996  0.5468373353101531  1.0000
  Mn  Mn1       1.0  0.781981575  0.52276665  0.4652729749594769  1.0000
  Mn  Mn2       1.0  0.03198157500000007  0.022766649999999968  0.45558472674377287  1.0000
  Mn  Mn3       1.0  0.531981575  0.022766649999999968  0.4749612231751808  1.0000
  Mn  Mn4       1.0  0.28198157500000004  0.52276665  0.4846494713908848  1.0000
  Mn  Mn5       1.0  0.6569815749999999  0.77276665  0.47011709906732885  1.0000
  Mn  Mn6       1.0  0.906981575  0.27276664999999994  0.46042885085162494  1.0000
  Mn  Mn7       1.0  0.40698157500000004  0.27276664999999994  0.47980534728303287  1.0000
  Mn  Mn8       1.0  0.1569815750000001  0.77276665  0.48949359549873683  1.0000
  Sb  Sb1       1.0  0.8861482450000001  0.6477666499999999  0.48707153344481086  1.0000
  Sb  Sb2       1.0  0.13614824500000006  0.14776664999999997  0.47738328522910684  1.0000
  Sb  Sb3       1.0  0.6361482450000001  0.14776664999999997  0.4580067887976989  1.0000
  Sb  Sb4       1.0  0.3861482450000001  0.6477666499999999  0.4676950370134028  1.0000
  Sb  Sb5       1.0  0.4278149050000001  0.8977666499999999  0.4531626646898469  1.0000
  Sb  Sb6       1.0  0.677814905  0.39776665  0.4822274093369588  1.0000
  Sb  Sb7       1.0  0.1778149050000001  0.39776665  0.4628509129055508  1.0000
  Sb  Sb8       1.0  0.9278149050000001  0.8977666499999999  0.4725391611212548  1.0000
  Mn  Mn9       1.0  0.801306605  0.5173295299999999  0.5056994522641652  1.0000
  Mn  Mn10      1.0  0.03198157500000007  0.022766649999999968  0.49433771960658873  1.0000
  Mn  Mn11      1.0  0.569998945  0.97723335  0.513882329621275  1.0000
  Mn  Mn12      1.0  0.2443128150000001  0.52626588  0.5222587828280939  1.0000
  Mn  Mn13      1.0  0.657052325  0.7859352399999999  0.5099760031387878  1.0000
  Mn  Mn14      1.0  0.9163454150000001  0.26152838999999994  0.5008211077134956  1.0000
  Mn  Mn15      1.0  0.3766755450000001  0.29571096  0.5197624731400822  1.0000
  Mn  Mn16      1.0  0.21222454500000004  0.6947019  0.5290843970648526  1.0000
  Sb  Sb9       1.0  0.8438845050000001  0.6712267799999999  0.528289601083391  1.0000
  Sb  Sb10      1.0  0.17932755500000003  0.13023653  0.515818159423871  1.0000
  Sb  Sb11      1.0  0.6361482450000001  0.14776664999999997  0.4967597816605148  1.0000
  Sb  Sb12      1.0  0.40527763499999997  0.64504734  0.5058446271759082  1.0000
  Sb  Sb13      1.0  0.4278149050000001  0.8977666499999999  0.4919156575526628  1.0000
  Sb  Sb14      1.0  0.6574981849999999  0.40017423  0.5206240699805209  1.0000
  Sb  Sb15      1.0  0.17774657500000007  0.38873849  0.5003289509046168  1.0000
  Sb  Sb16      1.0  0.968018425  0.88204457  0.5132634629266924  1.0000
