data_image0
_chemical_formula_structural       COCa12Cu12Ga6
_chemical_formula_sum              "C1 O1 Ca12 Cu12 Ga6"
_cell_length_a       5.783783722505188
_cell_length_b       8.395270670920794
_cell_length_c       104.08976982
_cell_angle_alpha    91.82436579692322
_cell_angle_beta     90.24752452398897
_cell_angle_gamma    90.82526082095316

_space_group_name_H-M_alt    "P 1"
_space_group_IT_number       1

loop_
  _space_group_symop_operation_xyz
  'x, y, z'

loop_
  _atom_site_type_symbol
  _atom_site_label
  _atom_site_symmetry_multiplicity
  _atom_site_fract_x
  _atom_site_fract_y
  _atom_site_fract_z
  _atom_site_occupancy
  C   C1        1.0  0.81003888  0.61312729  0.5593058882053958  1.0000
  O   O1        1.0  0.8245049499999999  0.6276364200000001  0.5707096111711641  1.0000
  Ca  Ca1       1.0  0.6076401500000002  0.27879185999999995  0.5259965265514278  1.0000
  Ca  Ca2       1.0  0.35370966000000004  0.64962299  0.5476499547507026  1.0000
  Ca  Ca3       1.0  0.87636537  0.88283711  0.5033513193317514  1.0000
  Ca  Ca4       1.0  0.1063166500000001  0.5180771900000001  0.5166246716760943  1.0000
  Ca  Ca5       1.0  0.8364510000000001  0.9147617600000001  0.5395062054622012  1.0000
  Ca  Ca6       1.0  0.37298332  0.11807718999999998  0.4947911001455208  1.0000
  Ca  Ca7       1.0  0.4096987000000001  0.08283710999999999  0.4596841762706045  1.0000
  Ca  Ca8       1.0  0.14303204000000008  0.48283711  0.4815177478011779  1.0000
  Ca  Ca9       1.0  0.6763653700000001  0.68283711  0.4378506080150665  1.0000
  Ca  Ca10      1.0  0.9063166500000001  0.31807718999999995  0.4511239603594094  1.0000
  Ca  Ca11      1.0  0.6396499800000001  0.71807719  0.4729575286149472  1.0000
  Ca  Ca12      1.0  0.17298332000000008  0.9180771900000001  0.4292903888288358  1.0000
  Cu  Cu1       1.0  0.8794041200000001  0.24843010999999998  0.4995137865823785  1.0000
  Cu  Cu2       1.0  0.6201339400000001  0.64010418  0.5219351483961656  1.0000
  Cu  Cu3       1.0  0.3097963800000001  0.047515800000000004  0.5407504897247286  1.0000
  Cu  Cu4       1.0  0.09718700000000008  0.14672393  0.5199170845806408  1.0000
  Cu  Cu5       1.0  0.8477798599999999  0.5457972600000001  0.5422386495106658  1.0000
  Cu  Cu6       1.0  0.36994457000000003  0.7524842  0.4986286328948938  1.0000
  Cu  Cu7       1.0  0.6794041200000001  0.048430110000000005  0.4340130752656936  1.0000
  Cu  Cu8       1.0  0.41273745  0.44843011  0.45584664352123144  1.0000
  Cu  Cu9       1.0  0.14607078000000007  0.84843011  0.47768021505180497  1.0000
  Cu  Cu10      1.0  0.9032779  0.9524842  0.4549614931087823  1.0000
  Cu  Cu11      1.0  0.63661124  0.35248419999999997  0.4767950613643202  1.0000
  Cu  Cu12      1.0  0.16994457000000007  0.5524842000000001  0.4331279215782088  1.0000
  Ga  Ga1       1.0  0.09368335000000008  0.30270244999999996  0.5414177028954493  1.0000
  Ga  Ga2       1.0  0.6246743400000001  0.5004571500000001  0.4990712081011184  1.0000
  Ga  Ga3       1.0  0.3632988800000001  0.8861603299999999  0.5209611921193134  1.0000
  Ga  Ga4       1.0  0.8913410100000002  0.10045715  0.47723763984558043  1.0000
  Ga  Ga5       1.0  0.4246743400000001  0.30045714999999995  0.4335704967844335  1.0000
  Ga  Ga6       1.0  0.15800768000000007  0.7004571500000001  0.4554040683150069  1.0000
