data_image0
_chemical_formula_structural       COPb8Se8
_chemical_formula_sum              "C1 O1 Pb8 Se8"
_cell_length_a       6.30865251
_cell_length_b       12.515719102922871
_cell_length_c       107.76361419
_cell_angle_alpha    90.0
_cell_angle_beta     90.0
_cell_angle_gamma    104.59762033717259

_space_group_name_H-M_alt    "P 1"
_space_group_IT_number       1

loop_
  _space_group_symop_operation_xyz
  'x, y, z'

loop_
  _atom_site_type_symbol
  _atom_site_label
  _atom_site_symmetry_multiplicity
  _atom_site_fract_x
  _atom_site_fract_y
  _atom_site_fract_z
  _atom_site_occupancy
  C   C1        1.0  0.513069345  0.18952493499999998  0.5460287887467911  1.0000
  O   O1        1.0  0.5130683949999999  0.18952408499999998  0.5566896608827808  1.0000
  Pb  Pb1       1.0  0.3008463049999999  0.8038553449999999  0.44331033911721923  1.0000
  Pb  Pb2       1.0  0.6863092749999999  0.574781285  0.44331033911721923  1.0000
  Pb  Pb3       1.0  0.8008463049999999  0.8038553449999999  0.4725128463543974  1.0000
  Pb  Pb4       1.0  0.186309275  0.574781285  0.4725128463543974  1.0000
  Pb  Pb5       1.0  0.3008463049999999  0.8038553449999999  0.5017153570958767  1.0000
  Pb  Pb6       1.0  0.6863092749999999  0.574781285  0.5017153570958767  1.0000
  Pb  Pb7       1.0  0.7940079449999999  0.800548085  0.5292335570962652  1.0000
  Pb  Pb8       1.0  0.18284696499999992  0.5785652349999999  0.5292483102035115  1.0000
  Se  Se1       1.0  0.8171530349999999  0.8104759149999999  0.44331033911721923  1.0000
  Se  Se2       1.0  0.19599543499999997  0.568160715  0.44331033911721923  1.0000
  Se  Se3       1.0  0.31715303499999997  0.8104759149999999  0.4725128463543974  1.0000
  Se  Se4       1.0  0.695995435  0.568160715  0.4725128463543974  1.0000
  Se  Se5       1.0  0.8171530349999999  0.8104759149999999  0.5017153570958767  1.0000
  Se  Se6       1.0  0.19599543499999997  0.568160715  0.5017153570958767  1.0000
  Se  Se7       1.0  0.32267289499999985  0.8098904149999998  0.5297296750072615  1.0000
  Se  Se8       1.0  0.703467165  0.569160095  0.5297097810904354  1.0000
