data_image0
_chemical_formula_structural       COTiGa5CoTiGa5CoTiGa5CoTiGa5Co
_chemical_formula_sum              "C1 O1 Ti4 Ga20 Co4"
_cell_length_a       6.57737584
_cell_length_b       8.2161109
_cell_length_c       98.75638814999999
_cell_angle_alpha    90.0
_cell_angle_beta     90.0
_cell_angle_gamma    90.0

_space_group_name_H-M_alt    "P 1"
_space_group_IT_number       1

loop_
  _space_group_symop_operation_xyz
  'x, y, z'

loop_
  _atom_site_type_symbol
  _atom_site_label
  _atom_site_symmetry_multiplicity
  _atom_site_fract_x
  _atom_site_fract_y
  _atom_site_fract_z
  _atom_site_occupancy
  C   C1        1.0  0.43075067999999994  0.124999985  0.5355842117869851  1.0000
  O   O1        1.0  0.41451895  0.12499999499999999  0.54729371658524  1.0000
  Ti  Ti1       1.0  0.14187992000000002  0.125000015  0.49229308327972576  1.0000
  Ga  Ga1       1.0  0.43456666999999993  0.37988322500000005  0.4952697724028928  1.0000
  Ga  Ga2       1.0  0.84855613  0.37593343500000004  0.49553204864060946  1.0000
  Ga  Ga3       1.0  0.4049933499999999  0.125000165  0.514346626968324  1.0000
  Ga  Ga4       1.0  0.86638496  0.125000155  0.5162367094123896  1.0000
  Ga  Ga5       1.0  0.13361508000000002  0.390400385  0.5172957758053163  1.0000
  Co  Co1       1.0  0.63997583  0.125000045  0.4954093636250251  1.0000
  Ti  Ti2       1.0  0.13743466000000001  0.125000015  0.45270628341476016  1.0000
  Ga  Ga6       1.0  0.43494371000000004  0.375000015  0.45270628341476016  1.0000
  Ga  Ga7       1.0  0.83992561  0.375000015  0.45270628341476016  1.0000
  Ga  Ga8       1.0  0.43494371000000004  0.125000015  0.47350521827251946  1.0000
  Ga  Ga9       1.0  0.83992561  0.125000015  0.47350521827251946  1.0000
  Ga  Ga10      1.0  0.13743466000000001  0.375000015  0.47350521827251946  1.0000
  Co  Co2       1.0  0.6374346599999999  0.125000015  0.45270628341476016  1.0000
  Ti  Ti3       1.0  0.13951782  0.625000035  0.4922798139749998  1.0000
  Ga  Ga11      1.0  0.43456671  0.870116875  0.4952697753147437  1.0000
  Ga  Ga12      1.0  0.84855613  0.8740666649999999  0.49553204864060946  1.0000
  Ga  Ga13      1.0  0.4227658999999999  0.6250001550000001  0.5167972756602282  1.0000
  Ga  Ga14      1.0  0.83892795  0.6250001449999999  0.5164490998198309  1.0000
  Ga  Ga15      1.0  0.13361504  0.8595999549999999  0.5172957758053163  1.0000
  Co  Co3       1.0  0.6412093600000001  0.625000035  0.4944781507830983  1.0000
  Ti  Ti4       1.0  0.13743466000000001  0.625000015  0.45270628341476016  1.0000
  Ga  Ga16      1.0  0.43494371000000004  0.875000015  0.45270628341476016  1.0000
  Ga  Ga17      1.0  0.83992561  0.875000015  0.45270628341476016  1.0000
  Ga  Ga18      1.0  0.43494371000000004  0.625000015  0.47350521827251946  1.0000
  Ga  Ga19      1.0  0.83992561  0.625000015  0.47350521827251946  1.0000
  Ga  Ga20      1.0  0.13743466000000001  0.875000015  0.47350521827251946  1.0000
  Co  Co4       1.0  0.6374346599999999  0.625000015  0.45270628341476016  1.0000
