data_image0
_chemical_formula_structural       COTi2Ga10Ni2Ti2Ga10Ni2
_chemical_formula_sum              "C1 O1 Ti4 Ga20 Ni4"
_cell_length_a       5.90807737
_cell_length_b       6.48233993
_cell_length_c       105.44846419999999
_cell_angle_alpha    90.0
_cell_angle_beta     90.0
_cell_angle_gamma    90.0

_space_group_name_H-M_alt    "P 1"
_space_group_IT_number       1

loop_
  _space_group_symop_operation_xyz
  'x, y, z'

loop_
  _atom_site_type_symbol
  _atom_site_label
  _atom_site_symmetry_multiplicity
  _atom_site_fract_x
  _atom_site_fract_y
  _atom_site_fract_z
  _atom_site_occupancy
  C   C1        1.0  0.11876493499999999  0.724143645  0.5505990864328248  1.0000
  O   O1        1.0  0.11909855499999997  0.722872485  0.5619387631440715  1.0000
  Ti  Ti1       1.0  0.6193249449999999  0.007834994999999999  0.5207750708330698  1.0000
  Ti  Ti2       1.0  0.119964555  0.0033547450000000006  0.49408933717171843  1.0000
  Ga  Ga1       1.0  0.3920084449999999  0.735121165  0.5369428549848293  1.0000
  Ga  Ga2       1.0  0.8710750850000001  0.7085995249999999  0.5082735247917939  1.0000
  Ga  Ga3       1.0  0.3568734249999999  0.296568245  0.5361984095861556  1.0000
  Ga  Ga4       1.0  0.875406845  0.29738703499999997  0.5084468667766087  1.0000
  Ga  Ga5       1.0  0.8465277849999999  0.736392845  0.5369188760774971  1.0000
  Ga  Ga6       1.0  0.36770642499999995  0.7086667149999999  0.508264848279832  1.0000
  Ga  Ga7       1.0  0.881235065  0.295817755  0.5362108612716678  1.0000
  Ga  Ga8       1.0  0.364503925  0.297549645  0.5084372792476991  1.0000
  Ga  Ga9       1.0  0.6199645549999998  0.0033547450000000006  0.49408933717171843  1.0000
  Ga  Ga10      1.0  0.11968025499999996  0.9966452549999999  0.5223202429799978  1.0000
  Ni  Ni1       1.0  0.619685855  0.505675875  0.5220830491283852  1.0000
  Ni  Ni2       1.0  0.119964555  0.503354745  0.49408933717171843  1.0000
  Ti  Ti3       1.0  0.6199645549999998  0.0033547450000000006  0.4660752870138235  1.0000
  Ti  Ti4       1.0  0.119964555  0.0033547450000000006  0.4380612368559286  1.0000
  Ga  Ga11      1.0  0.3699645549999999  0.709950825  0.48008231377361404  1.0000
  Ga  Ga12      1.0  0.8699645549999999  0.709950825  0.452068260254033  1.0000
  Ga  Ga13      1.0  0.3699645549999999  0.296758665  0.48008231377361404  1.0000
  Ga  Ga14      1.0  0.8699645549999999  0.296758665  0.452068260254033  1.0000
  Ga  Ga15      1.0  0.8699645549999999  0.709950825  0.48008231377361404  1.0000
  Ga  Ga16      1.0  0.3699645549999999  0.709950825  0.452068260254033  1.0000
  Ga  Ga17      1.0  0.8699645549999999  0.296758665  0.48008231377361404  1.0000
  Ga  Ga18      1.0  0.3699645549999999  0.296758665  0.452068260254033  1.0000
  Ga  Ga19      1.0  0.6199645549999998  0.0033547450000000006  0.4380612368559286  1.0000
  Ga  Ga20      1.0  0.119964555  0.0033547450000000006  0.4660752870138235  1.0000
  Ni  Ni3       1.0  0.6199645549999998  0.503354745  0.4660752870138235  1.0000
  Ni  Ni4       1.0  0.119964555  0.503354745  0.4380612368559286  1.0000
