data_image0
_chemical_formula_structural       COMn4Sb4Mn4Sb4Mn4Sb4Mn4Sb4
_chemical_formula_sum              "C1 O1 Mn16 Sb16"
_cell_length_a       6.6637974297700255
_cell_length_b       7.863198941282734
_cell_length_c       109.98278458
_cell_angle_alpha    72.84264723474351
_cell_angle_beta     107.68685709947987
_cell_angle_gamma    72.84264710780681

_space_group_name_H-M_alt    "P 1"
_space_group_IT_number       1

loop_
  _space_group_symop_operation_xyz
  'x, y, z'

loop_
  _atom_site_type_symbol
  _atom_site_label
  _atom_site_symmetry_multiplicity
  _atom_site_fract_x
  _atom_site_fract_y
  _atom_site_fract_z
  _atom_site_occupancy
  C   C1        1.0  0.535362645  0.15877830499999995  0.5561970147672963  1.0000
  O   O1        1.0  0.5831093449999999  0.08758137500000003  0.5683227941266957  1.0000
  Mn  Mn1       1.0  0.14583333499999998  0.258092705  0.49226666620315046  1.0000
  Mn  Mn2       1.0  0.6903588949999999  0.2456677549999999  0.5235768544965815  1.0000
  Mn  Mn3       1.0  0.46103629499999993  0.26696401499999994  0.5374674993744312  1.0000
  Mn  Mn4       1.0  0.895833335  0.25809270500000003  0.5074140321944539  1.0000
  Sb  Sb1       1.0  0.16898889499999997  0.07524062499999999  0.5345503786643601  1.0000
  Sb  Sb2       1.0  0.6041666649999999  0.09142603500000002  0.5048894693782197  1.0000
  Sb  Sb3       1.0  0.187500005  0.4247593749999999  0.5099385913753207  1.0000
  Sb  Sb4       1.0  0.7996471849999998  0.379969375  0.5433003993439484  1.0000
  Mn  Mn5       1.0  0.14583333499999998  0.258092705  0.43167720587330416  1.0000
  Mn  Mn6       1.0  0.645833335  0.258092705  0.46197193785591106  1.0000
  Mn  Mn7       1.0  0.3958333349999999  0.258092705  0.477119300211847  1.0000
  Mn  Mn8       1.0  0.895833335  0.25809270500000003  0.44682457186460756  1.0000
  Sb  Sb5       1.0  0.10416666499999998  0.09142603499999999  0.4745947410309802  1.0000
  Sb  Sb6       1.0  0.6041666649999999  0.09142603500000002  0.44430001268374075  1.0000
  Sb  Sb7       1.0  0.187500005  0.4247593749999999  0.4493491310454743  1.0000
  Sb  Sb8       1.0  0.687500005  0.424759375  0.4796438630280813  1.0000
  Mn  Mn9       1.0  0.14583333499999998  0.7580927049999999  0.49226666620315046  1.0000
  Mn  Mn10      1.0  0.6775756849999999  0.741492835  0.5237329462729508  1.0000
  Mn  Mn11      1.0  0.4766966949999999  0.7235972649999999  0.5361779472566596  1.0000
  Mn  Mn12      1.0  0.895833335  0.7580927050000001  0.5074140321944539  1.0000
  Sb  Sb9       1.0  0.136932075  0.5931395949999999  0.5343620302717458  1.0000
  Sb  Sb10      1.0  0.6041666649999999  0.5914260349999999  0.5048894693782197  1.0000
  Sb  Sb11      1.0  0.187500005  0.9247593749999999  0.5099385913753207  1.0000
  Sb  Sb12      1.0  0.7316191149999999  0.9078213049999998  0.5419026368757703  1.0000
  Mn  Mn13      1.0  0.14583333499999998  0.7580927049999999  0.43167720587330416  1.0000
  Mn  Mn14      1.0  0.645833335  0.7580927049999999  0.46197193785591106  1.0000
  Mn  Mn15      1.0  0.3958333349999999  0.7580927049999999  0.477119300211847  1.0000
  Mn  Mn16      1.0  0.895833335  0.7580927050000001  0.44682457186460756  1.0000
  Sb  Sb13      1.0  0.10416666499999998  0.591426035  0.4745947410309802  1.0000
  Sb  Sb14      1.0  0.6041666649999999  0.5914260349999999  0.44430001268374075  1.0000
  Sb  Sb15      1.0  0.187500005  0.9247593749999999  0.4493491310454743  1.0000
  Sb  Sb16      1.0  0.687500005  0.9247593749999999  0.4796438630280813  1.0000
