data_image0
_chemical_formula_structural       COAl6Ge6Ru12
_chemical_formula_sum              "C1 O1 Al6 Ge6 Ru12"
_cell_length_a       7.413355014261447
_cell_length_b       6.05297902
_cell_length_c       102.5962896
_cell_angle_alpha    90.0
_cell_angle_beta     85.65224687398525
_cell_angle_gamma    114.09484254217165

_space_group_name_H-M_alt    "P 1"
_space_group_IT_number       1

loop_
  _space_group_symop_operation_xyz
  'x, y, z'

loop_
  _atom_site_type_symbol
  _atom_site_label
  _atom_site_symmetry_multiplicity
  _atom_site_fract_x
  _atom_site_fract_y
  _atom_site_fract_z
  _atom_site_occupancy
  C   C1        1.0  0.39386344  0.44834168500000005  0.5392808549632204  1.0000
  O   O1        1.0  0.39542033000000004  0.4309285849999999  0.5506681197196275  1.0000
  Al  Al1       1.0  0.35416667  0.19791666500000002  0.4758080588494586  1.0000
  Al  Al2       1.0  0.5186282  0.7798432050000002  0.5026180246931564  1.0000
  Al  Al3       1.0  0.1875  0.6145833350000001  0.4493318802803726  1.0000
  Al  Al4       1.0  0.9375000000000001  0.48958333500000006  0.48904614495686044  1.0000
  Al  Al5       1.0  0.09268873999999998  0.06069248500000002  0.5151995704626324  1.0000
  Al  Al6       1.0  0.7708333400000001  0.906249995  0.4625699695649156  1.0000
  Ge  Ge1       1.0  0.35416667  0.6979166649999999  0.4758080588494586  1.0000
  Ge  Ge2       1.0  0.5172435  0.27874563500000005  0.5025588059588121  1.0000
  Ge  Ge3       1.0  0.1875  0.11458333500000004  0.4493318802803726  1.0000
  Ge  Ge4       1.0  0.9375000000000001  0.9895833350000001  0.48904614495686044  1.0000
  Ge  Ge5       1.0  0.09535717999999997  0.572467095  0.5151172983919287  1.0000
  Ge  Ge6       1.0  0.7708333400000001  0.40624999500000014  0.4625699695649156  1.0000
  Ru  Ru1       1.0  0.4791666700000001  0.010416665000000032  0.4559509265112147  1.0000
  Ru  Ru2       1.0  0.64583334  0.593749995  0.48242710190315957  1.0000
  Ru  Ru3       1.0  0.8113098700000001  0.17596613500000008  0.5083321671062094  1.0000
  Ru  Ru4       1.0  0.81118589  0.670811335  0.5086570520312513  1.0000
  Ru  Ru5       1.0  0.4791666700000001  0.5104166649999999  0.4559509265112147  1.0000
  Ru  Ru6       1.0  0.64583334  0.09374999500000003  0.48242710190315957  1.0000
  Ru  Ru7       1.0  0.36424637  0.44931838500000004  0.5211621430755133  1.0000
  Ru  Ru8       1.0  0.062499999999999986  0.30208333500000006  0.4691890126186165  1.0000
  Ru  Ru9       1.0  0.22888504999999998  0.885348915  0.4949829414233958  1.0000
  Ru  Ru10      1.0  0.23078209  0.386530065  0.4949088060112388  1.0000
  Ru  Ru11      1.0  0.38404891  0.960246945  0.520759297460341  1.0000
  Ru  Ru12      1.0  0.062499999999999986  0.802083335  0.4691890126186165  1.0000
