data_image0
_chemical_formula_structural       COCa8Ge8
_chemical_formula_sum              "C1 O1 Ca8 Ge8"
_cell_length_a       5.981569156713878
_cell_length_b       9.77378444365672
_cell_length_c       99.84869502000001
_cell_angle_alpha    97.29477329145186
_cell_angle_beta     94.55880670271242
_cell_angle_gamma    104.0480320453741

_space_group_name_H-M_alt    "P 1"
_space_group_IT_number       1

loop_
  _space_group_symop_operation_xyz
  'x, y, z'

loop_
  _atom_site_type_symbol
  _atom_site_label
  _atom_site_symmetry_multiplicity
  _atom_site_fract_x
  _atom_site_fract_y
  _atom_site_fract_z
  _atom_site_occupancy
  C   C1        1.0  0.19862467999999994  0.02153661999999999  0.5391101367179896  1.0000
  O   O1        1.0  0.15917403999999996  0.04028830999999999  0.5502414031376327  1.0000
  Ca  Ca1       1.0  0.2105054999999999  0.4964942699999999  0.4684423006241072  1.0000
  Ca  Ca2       1.0  0.7105054999999999  0.05899426999999999  0.44975859686236724  1.0000
  Ca  Ca3       1.0  0.30028109999999997  0.11614305  0.4735519737379347  1.0000
  Ca  Ca4       1.0  0.8002810999999999  0.6786430499999998  0.4548682699761947  1.0000
  Ca  Ca5       1.0  0.19038378999999994  0.35577638999999994  0.5075675307853436  1.0000
  Ca  Ca6       1.0  0.7105055  0.93399427  0.4871260043858472  1.0000
  Ca  Ca7       1.0  0.2880504499999999  0.9784633799999999  0.5137731092482345  1.0000
  Ca  Ca8       1.0  0.76891972  0.54164737  0.4922725666043818  1.0000
  Ge  Ge1       1.0  0.64015452  0.37117996999999997  0.4630906780306541  1.0000
  Ge  Ge2       1.0  0.14015451999999992  0.8086799699999999  0.48177438179239407  1.0000
  Ge  Ge3       1.0  0.8706320799999999  0.24145734999999996  0.47890359633138774  1.0000
  Ge  Ge4       1.0  0.37063207999999986  0.8039573499999999  0.46021989256964785  1.0000
  Ge  Ge5       1.0  0.6478841299999998  0.23173750999999998  0.5009524055359954  1.0000
  Ge  Ge6       1.0  0.1293679199999999  0.6598958399999999  0.5184395152270556  1.0000
  Ge  Ge7       1.0  0.8348874599999999  0.10136403999999999  0.5165415678004786  1.0000
  Ge  Ge8       1.0  0.33674928999999987  0.67324316  0.4982688008927557  1.0000
