data_image0
_chemical_formula_structural       COZn4Pt4Zn4Pt4Zn4Pt4Zn4Pt4
_chemical_formula_sum              "C1 O1 Zn16 Pt16"
_cell_length_a       7.708127686285883
_cell_length_b       8.19197018
_cell_length_c       102.76788072
_cell_angle_alpha    90.0
_cell_angle_beta     74.59188825148259
_cell_angle_gamma    74.59188825148259

_space_group_name_H-M_alt    "P 1"
_space_group_IT_number       1

loop_
  _space_group_symop_operation_xyz
  'x, y, z'

loop_
  _atom_site_type_symbol
  _atom_site_label
  _atom_site_symmetry_multiplicity
  _atom_site_fract_x
  _atom_site_fract_y
  _atom_site_fract_z
  _atom_site_occupancy
  C   C1        1.0  0.287723435  0.43111484000000005  0.5347904978761474  1.0000
  O   O1        1.0  0.24145698499999999  0.44306988999999997  0.5466721271050526  1.0000
  Zn  Zn1       1.0  0.129586255  0.47081398999999996  0.49745051575310756  1.0000
  Zn  Zn2       1.0  0.608046975  0.10632558999999991  0.5088150828606605  1.0000
  Zn  Zn3       1.0  0.689598385  0.33345800999999997  0.5284638994323098  1.0000
  Zn  Zn4       1.0  0.117556595  0.20936211999999993  0.5192398265970944  1.0000
  Pt  Pt1       1.0  0.877581305  0.02655809999999994  0.5212328575825645  1.0000
  Pt  Pt2       1.0  0.37081338500000005  0.16094189999999994  0.49318453882308744  1.0000
  Pt  Pt3       1.0  0.33940562500000004  0.41482135000000003  0.5158005024266903  1.0000
  Pt  Pt4       1.0  0.868774255  0.28733848  0.5025287396494102  1.0000
  Zn  Zn5       1.0  0.12081338500000001  0.47344189999999997  0.45830995613596487  1.0000
  Zn  Zn6       1.0  0.620813385  0.0984418999999999  0.4682741226179999  1.0000
  Zn  Zn7       1.0  0.620813385  0.34844189999999986  0.48820245558207  1.0000
  Zn  Zn8       1.0  0.12081338500000001  0.22344189999999997  0.47823828910003496  1.0000
  Pt  Pt5       1.0  0.8708133849999999  0.03594189999999991  0.4832203723410524  1.0000
  Pt  Pt6       1.0  0.37081338500000005  0.16094189999999994  0.4533278728949473  1.0000
  Pt  Pt7       1.0  0.37081338500000005  0.41094189999999997  0.4732562058590174  1.0000
  Pt  Pt8       1.0  0.8708133849999999  0.28594189999999997  0.4632920393769823  1.0000
  Zn  Zn9       1.0  0.126611745  0.9726444799999999  0.49751138166477965  1.0000
  Zn  Zn10      1.0  0.606913625  0.59704885  0.5089078787445409  1.0000
  Zn  Zn11      1.0  0.6258661849999999  0.8458936099999997  0.5265219423728267  1.0000
  Zn  Zn12      1.0  0.126117585  0.7341448399999999  0.5193308305252748  1.0000
  Pt  Pt9       1.0  0.882443405  0.54262756  0.5210483244078505  1.0000
  Pt  Pt10      1.0  0.37081338500000005  0.6609418999999999  0.49318453882308744  1.0000
  Pt  Pt11      1.0  0.374214445  0.9101950499999998  0.5126863512566608  1.0000
  Pt  Pt12      1.0  0.877314785  0.78437155  0.5021300900882637  1.0000
  Zn  Zn13      1.0  0.12081338500000001  0.9734418999999999  0.45830995613596487  1.0000
  Zn  Zn14      1.0  0.620813385  0.5984419  0.4682741226179999  1.0000
  Zn  Zn15      1.0  0.620813385  0.8484418999999999  0.48820245558207  1.0000
  Zn  Zn16      1.0  0.12081338500000001  0.7234419  0.47823828910003496  1.0000
  Pt  Pt13      1.0  0.8708133849999999  0.5359419  0.4832203723410524  1.0000
  Pt  Pt14      1.0  0.37081338500000005  0.6609418999999999  0.4533278728949473  1.0000
  Pt  Pt15      1.0  0.37081338500000005  0.9109418999999997  0.4732562058590174  1.0000
  Pt  Pt16      1.0  0.8708133849999999  0.7859418999999997  0.4632920393769823  1.0000
