data_image0
_chemical_formula_structural       COPb16Pd8
_chemical_formula_sum              "C1 O1 Pb16 Pd8"
_cell_length_a       10.0402219
_cell_length_b       5.840286572616468
_cell_length_c       100.79473524
_cell_angle_alpha    88.5463900427753
_cell_angle_beta     90.0
_cell_angle_gamma    90.0

_space_group_name_H-M_alt    "P 1"
_space_group_IT_number       1

loop_
  _space_group_symop_operation_xyz
  'x, y, z'

loop_
  _atom_site_type_symbol
  _atom_site_label
  _atom_site_symmetry_multiplicity
  _atom_site_fract_x
  _atom_site_fract_y
  _atom_site_fract_z
  _atom_site_occupancy
  C   C1        1.0  0.61497009  0.8599710899999999  0.5504223662788327  1.0000
  O   O1        1.0  0.5726678399999999  0.8699646899999999  0.5612247551616814  1.0000
  Pb  Pb1       1.0  0.5631633199999999  0.35721019  0.5309474123179655  1.0000
  Pb  Pb2       1.0  0.07460151999999999  0.1279748  0.5064734510274024  1.0000
  Pb  Pb3       1.0  0.08440349999999999  0.60548108  0.4559210511589385  1.0000
  Pb  Pb4       1.0  0.5844035  0.8554810799999999  0.48138099038996246  1.0000
  Pb  Pb5       1.0  0.92112475  0.11056295999999999  0.4387752448383186  1.0000
  Pb  Pb6       1.0  0.41454008000000003  0.85619061  0.5155774765472496  1.0000
  Pb  Pb7       1.0  0.42112475  0.36056296000000004  0.4642351840693426  1.0000
  Pb  Pb8       1.0  0.92112475  0.61056296  0.4896951233003665  1.0000
  Pb  Pb9       1.0  0.75134167  0.12345112  0.5076626298429819  1.0000
  Pb  Pb10      1.0  0.25784599999999996  0.8554810799999999  0.48138099038996246  1.0000
  Pb  Pb11      1.0  0.23011392999999997  0.38391702  0.5330352913804333  1.0000
  Pb  Pb12      1.0  0.757846  0.60548108  0.4559210511589385  1.0000
  Pb  Pb13      1.0  0.92539848  0.64677498  0.5249397391858537  1.0000
  Pb  Pb14      1.0  0.42112475  0.35039921  0.49852679671058236  1.0000
  Pb  Pb15      1.0  0.42112475  0.8503992099999998  0.4476069151933416  1.0000
  Pb  Pb16      1.0  0.92112475  0.10039921  0.4730668544243655  1.0000
  Pd  Pd1       1.0  0.65865476  0.82665452  0.5321424601589713  1.0000
  Pd  Pd2       1.0  0.17031121  0.5992948699999999  0.506431671265453  1.0000
  Pd  Pd3       1.0  0.17112475  0.10548108  0.4559210511589385  1.0000
  Pd  Pd4       1.0  0.6711247499999999  0.35548107999999995  0.48138099038996246  1.0000
  Pd  Pd5       1.0  0.67676448  0.6158527500000001  0.5071742450483462  1.0000
  Pd  Pd6       1.0  0.17112475  0.35548107999999995  0.48138099038996246  1.0000
  Pd  Pd7       1.0  0.16889706  0.8996007899999998  0.5290012056022144  1.0000
  Pd  Pd8       1.0  0.6711247499999999  0.10548108  0.4559210511589385  1.0000
