data_image0
_chemical_formula_structural       COCa2Si4Ca2Si4Ca2Si4Ca2Si4
_chemical_formula_sum              "C1 O1 Ca8 Si16"
_cell_length_a       8.5927467
_cell_length_b       7.16542482
_cell_length_c       98.95871966
_cell_angle_alpha    90.0
_cell_angle_beta     90.0
_cell_angle_gamma    90.0

_space_group_name_H-M_alt    "P 1"
_space_group_IT_number       1

loop_
  _space_group_symop_operation_xyz
  'x, y, z'

loop_
  _atom_site_type_symbol
  _atom_site_label
  _atom_site_symmetry_multiplicity
  _atom_site_fract_x
  _atom_site_fract_y
  _atom_site_fract_z
  _atom_site_occupancy
  C   C1        1.0  0.5731967099999999  0.198715355  0.5390808757531161  1.0000
  O   O1        1.0  0.5454021499999999  0.259389275  0.5495882073078456  1.0000
  Ca  Ca1       1.0  0.12536617  0.5833333350000001  0.4504117926921542  1.0000
  Ca  Ca2       1.0  0.12536617  0.083333335  0.4713142451637658  1.0000
  Si  Si1       1.0  0.37536617  0.7500000050000001  0.4713142451637658  1.0000
  Si  Si2       1.0  0.37536617  0.250000005  0.4504117926921542  1.0000
  Si  Si3       1.0  0.37536617  0.416666665  0.4713142451637658  1.0000
  Si  Si4       1.0  0.37536617  0.916666665  0.4504117926921542  1.0000
  Ca  Ca3       1.0  0.12368851000000002  0.5841749150000001  0.49308330204485823  1.0000
  Ca  Ca4       1.0  0.12301819000000001  0.084330795  0.5134274081948812  1.0000
  Si  Si5       1.0  0.37108448  0.7550523650000001  0.5139044606966914  1.0000
  Si  Si6       1.0  0.37444718  0.25555316499999997  0.49271151889434006  1.0000
  Si  Si7       1.0  0.36846765000000004  0.4153918750000001  0.5138250046205709  1.0000
  Si  Si8       1.0  0.37389084  0.9117987750000001  0.4926516078658186  1.0000
  Ca  Ca5       1.0  0.62536617  0.5833333350000001  0.4504117926921542  1.0000
  Ca  Ca6       1.0  0.62536617  0.083333335  0.4713142451637658  1.0000
  Si  Si9       1.0  0.87536617  0.7500000050000001  0.4713142451637658  1.0000
  Si  Si10      1.0  0.87536617  0.250000005  0.4504117926921542  1.0000
  Si  Si11      1.0  0.87536617  0.416666665  0.4713142451637658  1.0000
  Si  Si12      1.0  0.87536617  0.916666665  0.4504117926921542  1.0000
  Ca  Ca7       1.0  0.62397536  0.5841270650000001  0.49341830398512454  1.0000
  Ca  Ca8       1.0  0.62334135  0.084756215  0.5139224079607914  1.0000
  Si  Si13      1.0  0.87600709  0.7546322550000001  0.5139200844441282  1.0000
  Si  Si14      1.0  0.87354353  0.256137865  0.4927251351702014  1.0000
  Si  Si15      1.0  0.87698181  0.414818075  0.5138974111354299  1.0000
  Si  Si16      1.0  0.8743889300000001  0.9117223050000002  0.4926869317570549  1.0000
