data_image0
_chemical_formula_structural       COAu12Ca30
_chemical_formula_sum              "C1 O1 Au12 Ca30"
_cell_length_a       9.233934960662612
_cell_length_b       16.050044027630594
_cell_length_c       109.90832881
_cell_angle_alpha    95.19562420993311
_cell_angle_beta     95.72328887141582
_cell_angle_gamma    105.46584796216747

_space_group_name_H-M_alt    "P 1"
_space_group_IT_number       1

loop_
  _space_group_symop_operation_xyz
  'x, y, z'

loop_
  _atom_site_type_symbol
  _atom_site_label
  _atom_site_symmetry_multiplicity
  _atom_site_fract_x
  _atom_site_fract_y
  _atom_site_fract_z
  _atom_site_occupancy
  C   C1        1.0  0.6231064299999999  0.31237182999999996  0.5407135739894867  1.0000
  O   O1        1.0  0.66045578  0.3128104  0.5512806729309724  1.0000
  Au  Au1       1.0  0.5677841699999999  0.38962946  0.45760784332404336  1.0000
  Au  Au2       1.0  0.73445083  0.05629612999999998  0.48786664508696254  1.0000
  Au  Au3       1.0  0.90031391  0.72487629  0.517542963752192  1.0000
  Au  Au4       1.0  0.08411591999999997  0.5754962  0.4713535214151032  1.0000
  Au  Au5       1.0  0.25078259  0.24216285999999998  0.5016123195469664  1.0000
  Au  Au6       1.0  0.40006949999999997  0.90682825  0.5307960963696712  1.0000
  Au  Au7       1.0  0.9863229000000001  0.27108223  0.45359892519960776  1.0000
  Au  Au8       1.0  0.15298956999999988  0.93774889  0.4838577269625269  1.0000
  Au  Au9       1.0  0.31538063999999993  0.6061465500000001  0.5144750664492039  1.0000
  Au  Au10      1.0  0.8033244900000001  0.41854882  0.5003708470033303  1.0000
  Au  Au11      1.0  0.016935559999999957  0.08797687999999997  0.5296404692501209  1.0000
  Au  Au12      1.0  0.63665782  0.7518821600000001  0.4701120488714671  1.0000
  Ca  Ca1       1.0  0.32848852999999995  0.6697858999999999  0.45355842440186417  1.0000
  Ca  Ca2       1.0  0.4951551899999999  0.33645257  0.4838172225337274  1.0000
  Ca  Ca3       1.0  0.6737891099999999  0.009074219999999971  0.5159224380188441  1.0000
  Ca  Ca4       1.0  0.25227246999999997  0.43761793000000004  0.4624874414546236  1.0000
  Ca  Ca5       1.0  0.41893913999999993  0.10428459999999998  0.4927462395864869  1.0000
  Ca  Ca6       1.0  0.58540452  0.7673799400000001  0.5233614040706671  1.0000
  Ca  Ca7       1.0  0.5573271299999999  0.32155999999999996  0.5177653949758048  1.0000
  Ca  Ca8       1.0  0.22561854999999995  0.9909257800000001  0.4576483477528429  1.0000
  Ca  Ca9       1.0  0.3922852099999999  0.65759245  0.4879071458847061  1.0000
  Ca  Ca10      1.0  0.30183459999999995  0.22309375999999997  0.44871932706902756  1.0000
  Ca  Ca11      1.0  0.46850127  0.8897604200000001  0.4789781288319466  1.0000
  Ca  Ca12      1.0  0.63462832  0.55646454  0.5081672941416382  1.0000
  Ca  Ca13      1.0  0.013677099999999979  0.60710872  0.49856305319190924  1.0000
  Ca  Ca14      1.0  0.16644092  0.27623686000000003  0.5279824020296049  1.0000
  Ca  Ca15      1.0  0.8470104299999999  0.94044205  0.4683042550600461  1.0000
  Ca  Ca16      1.0  0.19552852999999995  0.71763395  0.5330323329934423  1.0000
  Ca  Ca17      1.0  0.8737633100000001  0.38693629999999996  0.4731613152265242  1.0000
  Ca  Ca18      1.0  0.04042996999999996  0.05360296999999998  0.5034201133583873  1.0000
  Ca  Ca19      1.0  0.9755365099999999  0.47677239  0.525397141048589  1.0000
  Ca  Ca20      1.0  0.64893223  0.14322029  0.46542069194194674  1.0000
  Ca  Ca21      1.0  0.8155988999999999  0.80988695  0.4956794937048659  1.0000
  Ca  Ca22      1.0  0.36106813999999987  0.09378964999999996  0.5300061783093228  1.0000
  Ca  Ca23      1.0  0.03561538999999998  0.7566103  0.4694679249684614  1.0000
  Ca  Ca24      1.0  0.20228205999999996  0.42327697  0.49972672310032473  1.0000
  Ca  Ca25      1.0  0.4181627299999999  0.52070185  0.5350926994236769  1.0000
  Ca  Ca26      1.0  0.07184150999999997  0.18415806999999998  0.4760448747135676  1.0000
  Ca  Ca27      1.0  0.23850818000000001  0.85082473  0.5063036764764868  1.0000
  Ca  Ca28      1.0  0.6851583499999999  0.57076805  0.4719976453181088  1.0000
  Ca  Ca29      1.0  0.8518250099999999  0.23743471999999996  0.5022564470810279  1.0000
  Ca  Ca30      1.0  0.020948089999999992  0.90498384  0.5314926127785617  1.0000
