data_image0
_chemical_formula_structural       COAl12Ca6
_chemical_formula_sum              "C1 O1 Al12 Ca6"
_cell_length_a       5.718948277047442
_cell_length_b       5.71894828
_cell_length_c       112.02551542
_cell_angle_alpha    90.0
_cell_angle_beta     90.0
_cell_angle_gamma    120.00000001707829

_space_group_name_H-M_alt    "P 1"
_space_group_IT_number       1

loop_
  _space_group_symop_operation_xyz
  'x, y, z'

loop_
  _atom_site_type_symbol
  _atom_site_label
  _atom_site_symmetry_multiplicity
  _atom_site_fract_x
  _atom_site_fract_y
  _atom_site_fract_z
  _atom_site_occupancy
  C   C1        1.0  0.21736822999999997  0.55476654  0.5484308533526718  1.0000
  O   O1        1.0  0.10811630999999995  0.49132669  0.5604689913833193  1.0000
  Al  Al1       1.0  0.10961931999999995  0.2657389400000001  0.4968444244501336  1.0000
  Al  Al2       1.0  0.4532925699999999  0.9414667400000001  0.5406634634138567  1.0000
  Al  Al3       1.0  0.7762859899999999  0.59907228  0.4551619412307379  1.0000
  Al  Al4       1.0  0.94295266  0.9324056099999999  0.47600318096472394  1.0000
  Al  Al5       1.0  0.27628599  0.59907228  0.5176856641841198  1.0000
  Al  Al6       1.0  0.7309235299999999  0.37185399999999996  0.558724425634779  1.0000
  Al  Al7       1.0  0.10961931999999995  0.7657389400000002  0.4968444244501336  1.0000
  Al  Al8       1.0  0.4597526399999999  0.44306059  0.5390100122399464  1.0000
  Al  Al9       1.0  0.7762859899999999  0.09907228000000007  0.4551619412307379  1.0000
  Al  Al10      1.0  0.60961932  0.76573894  0.4968444244501336  1.0000
  Al  Al11      1.0  0.92494568  0.42319020000000007  0.5358626541833165  1.0000
  Al  Al12      1.0  0.27628599  0.09907228000000003  0.4551619412307379  1.0000
  Ca  Ca1       1.0  0.60961932  0.2657389400000001  0.48121349183607637  1.0000
  Ca  Ca2       1.0  0.94295266  0.9324056099999999  0.5228959750554721  1.0000
  Ca  Ca3       1.0  0.27628599  0.59907228  0.43953100861668054  1.0000
  Ca  Ca4       1.0  0.60961932  0.2657389400000001  0.5124753570641909  1.0000
  Ca  Ca5       1.0  0.05704733999999996  0.058533260000000024  0.5574207384334326  1.0000
  Ca  Ca6       1.0  0.27628599  0.59907228  0.4707928700933715  1.0000
