data_image0
_chemical_formula_structural       COAu4Cu8Pd4Au4Cu8Pd4
_chemical_formula_sum              "C1 O1 Au8 Cu16 Pd8"
_cell_length_a       8.73416206
_cell_length_b       6.17598522
_cell_length_c       104.93664824
_cell_angle_alpha    90.0
_cell_angle_beta     90.0
_cell_angle_gamma    90.0

_space_group_name_H-M_alt    "P 1"
_space_group_IT_number       1

loop_
  _space_group_symop_operation_xyz
  'x, y, z'

loop_
  _atom_site_type_symbol
  _atom_site_label
  _atom_site_symmetry_multiplicity
  _atom_site_fract_x
  _atom_site_fract_y
  _atom_site_fract_z
  _atom_site_occupancy
  C   C1        1.0  0.37622208  0.5000023499999999  0.5351040364729837  1.0000
  O   O1        1.0  0.37622229  0.4999940399999999  0.546172642430977  1.0000
  Au  Au1       1.0  0.12575770000000003  0.50000348  0.49549546214994683  1.0000
  Au  Au2       1.0  0.12622251000000004  0.5000008699999999  0.453827357569023  1.0000
  Au  Au3       1.0  0.37622271  6.3700000000060825e-06  0.515583368114668  1.0000
  Au  Au4       1.0  0.37622251  8.700000000060836e-07  0.47463553613792525  1.0000
  Cu  Cu1       1.0  0.37622251  0.7500008699999999  0.453827357569023  1.0000
  Cu  Cu2       1.0  0.37622279000000003  0.74279999  0.49536154404198596  1.0000
  Cu  Cu3       1.0  0.37622251  0.25000087  0.453827357569023  1.0000
  Cu  Cu4       1.0  0.37622329  0.25720798  0.49536208006066595  1.0000
  Cu  Cu5       1.0  0.12622251000000004  0.25000087  0.47463553613792525  1.0000
  Cu  Cu6       1.0  0.12377699000000003  0.24622704999999998  0.516067875732392  1.0000
  Cu  Cu7       1.0  0.12378038000000002  0.75377926  0.5160693506160889  1.0000
  Cu  Cu8       1.0  0.12622251000000004  0.7500008699999999  0.47463553613792525  1.0000
  Pd  Pd1       1.0  0.12920390000000004  0.9999989499999999  0.49536819932981946  1.0000
  Pd  Pd2       1.0  0.12622251000000004  8.700000000060836e-07  0.453827357569023  1.0000
  Pd  Pd3       1.0  0.37622247000000003  0.5000118400000001  0.5169876305182232  1.0000
  Pd  Pd4       1.0  0.37622251  0.5000008699999999  0.47463553613792525  1.0000
  Au  Au5       1.0  0.6266895  0.5000062999999999  0.49549585167904964  1.0000
  Au  Au6       1.0  0.6262225100000001  0.5000008699999999  0.453827357569023  1.0000
  Au  Au7       1.0  0.8762210800000001  0.9999952  0.5160867362654469  1.0000
  Au  Au8       1.0  0.87622251  8.700000000060836e-07  0.47463553613792525  1.0000
  Cu  Cu9       1.0  0.87622251  0.7500008699999999  0.453827357569023  1.0000
  Cu  Cu10      1.0  0.8762230099999999  0.7500677899999999  0.4954092164114145  1.0000
  Cu  Cu11      1.0  0.87622251  0.25000087  0.453827357569023  1.0000
  Cu  Cu12      1.0  0.87622255  0.24993362  0.4954096292456772  1.0000
  Cu  Cu13      1.0  0.6262225100000001  0.25000087  0.47463553613792525  1.0000
  Cu  Cu14      1.0  0.62866667  0.24623009999999998  0.5160690443197004  1.0000
  Cu  Cu15      1.0  0.62866318  0.7537767599999999  0.5160705658137174  1.0000
  Cu  Cu16      1.0  0.6262225100000001  0.7500008699999999  0.47463553613792525  1.0000
  Pd  Pd5       1.0  0.6232415099999999  0.99999913  0.4953688818380765  1.0000
  Pd  Pd6       1.0  0.6262225100000001  8.700000000060836e-07  0.453827357569023  1.0000
  Pd  Pd7       1.0  0.8762223600000001  0.5000039399999999  0.5154902273780849  1.0000
  Pd  Pd8       1.0  0.87622251  0.5000008699999999  0.47463553613792525  1.0000
