data_image0
_chemical_formula_structural       CORu8Sn16
_chemical_formula_sum              "C1 O1 Ru8 Sn16"
_cell_length_a       8.710575793799975
_cell_length_b       5.425949405793585
_cell_length_c       101.20464322000001
_cell_angle_alpha    87.32398364244916
_cell_angle_beta     86.66546774958034
_cell_angle_gamma    94.79712168007595

_space_group_name_H-M_alt    "P 1"
_space_group_IT_number       1

loop_
  _space_group_symop_operation_xyz
  'x, y, z'

loop_
  _atom_site_type_symbol
  _atom_site_label
  _atom_site_symmetry_multiplicity
  _atom_site_fract_x
  _atom_site_fract_y
  _atom_site_fract_z
  _atom_site_occupancy
  C   C1        1.0  0.38909506  0.9285722849999998  0.5507396132440039  1.0000
  O   O1        1.0  0.39745831  0.911118745  0.5623507722660122  1.0000
  Ru  Ru1       1.0  0.14078846000000003  0.974645595  0.4912725110581064  1.0000
  Ru  Ru2       1.0  0.64078846  0.641312265  0.46557816791090745  1.0000
  Ru  Ru3       1.0  0.14078846000000003  0.3079789349999999  0.43988382168038714  1.0000
  Ru  Ru4       1.0  0.63638707  0.30384962499999996  0.515803769910786  1.0000
  Ru  Ru5       1.0  0.8907884600000001  0.641312265  0.5041196841733666  1.0000
  Ru  Ru6       1.0  0.39078846000000006  0.30797893499999995  0.4784253379428463  1.0000
  Ru  Ru7       1.0  0.8907884600000001  0.974645595  0.4527309947956473  1.0000
  Ru  Ru8       1.0  0.36937168  0.9563735050000001  0.5325167341902033  1.0000
  Sn  Sn1       1.0  0.9353088500000001  0.13570887499999992  0.5109894843646948  1.0000
  Sn  Sn2       1.0  0.43427266000000003  0.8079789350000001  0.48512912594868646  1.0000
  Sn  Sn3       1.0  0.93427266  0.47464559500000003  0.4594347828014874  1.0000
  Sn  Sn4       1.0  0.43047249  0.45516442500000004  0.5343129630972758  1.0000
  Sn  Sn5       1.0  0.8556557300000002  0.5103167149999999  0.5320221170370613  1.0000
  Sn  Sn6       1.0  0.34730426000000003  0.25727012499999996  0.5063542781197656  1.0000
  Sn  Sn7       1.0  0.84730426  0.923936795  0.48065993497256676  1.0000
  Sn  Sn8       1.0  0.34730426000000003  0.5906034549999999  0.4549655918253678  1.0000
  Sn  Sn9       1.0  0.18217082  0.7010310750000001  0.514433255175742  1.0000
  Sn  Sn10      1.0  0.6842726600000001  0.35868773499999995  0.4890379140283859  1.0000
  Sn  Sn11      1.0  0.18427266000000003  0.02535440499999992  0.46334357088118705  1.0000
  Sn  Sn12      1.0  0.6842726600000001  0.692021075  0.437649227733988  1.0000
  Sn  Sn13      1.0  0.09730426000000002  0.4746455949999999  0.4845687230522663  1.0000
  Sn  Sn14      1.0  0.5973042600000001  0.14131226499999994  0.45887437990506735  1.0000
  Sn  Sn15      1.0  0.06469115  0.025496694999999917  0.5384047740460812  1.0000
  Sn  Sn16      1.0  0.60499829  0.8142969250000001  0.511676889265503  1.0000
