data_image0
_chemical_formula_structural       COCu4Ga4Pt8Cu4Ga4Pt8Cu4Ga4Pt8Cu4Ga4Pt8
_chemical_formula_sum              "C1 O1 Cu16 Ga16 Pt32"
_cell_length_a       8.71913994
_cell_length_b       8.71913994
_cell_length_c       106.99217788
_cell_angle_alpha    90.0
_cell_angle_beta     90.0
_cell_angle_gamma    90.0

_space_group_name_H-M_alt    "P 1"
_space_group_IT_number       1

loop_
  _space_group_symop_operation_xyz
  'x, y, z'

loop_
  _atom_site_type_symbol
  _atom_site_label
  _atom_site_symmetry_multiplicity
  _atom_site_fract_x
  _atom_site_fract_y
  _atom_site_fract_z
  _atom_site_occupancy
  C   C1        1.0  0.12215071000000002  0.37562344999999997  0.5547496443485402  1.0000
  O   O1        1.0  0.12215059  0.37562333000000003  0.5656051771455906  1.0000
  Cu  Cu1       1.0  0.12215062000000002  0.37562335  0.4776131433580467  1.0000
  Cu  Cu2       1.0  0.37215062  0.12562335000000002  0.4488009273839781  1.0000
  Cu  Cu3       1.0  0.12215078000000003  0.37562352000000004  0.5374719521038248  1.0000
  Cu  Cu4       1.0  0.37215062  0.12562335000000002  0.5064253558746495  1.0000
  Ga  Ga1       1.0  0.37215062  0.12562335000000002  0.4776131433580467  1.0000
  Ga  Ga2       1.0  0.12215062000000002  0.37562335  0.4488009273839781  1.0000
  Ga  Ga3       1.0  0.37339739  0.12437676  0.5337106824151872  1.0000
  Ga  Ga4       1.0  0.12215062000000002  0.37562335  0.5064253558746495  1.0000
  Pt  Pt1       1.0  0.37215062  0.37562335  0.46320703537101243  1.0000
  Pt  Pt2       1.0  0.37215062  0.37562335  0.43439482285440945  1.0000
  Pt  Pt3       1.0  0.12215062000000002  0.12562335000000002  0.43439482285440945  1.0000
  Pt  Pt4       1.0  0.12215062000000002  0.12562335000000002  0.46320703537101243  1.0000
  Pt  Pt5       1.0  0.36645186  0.37562331000000004  0.5211559435545595  1.0000
  Pt  Pt6       1.0  0.37215062  0.37562335  0.49201924788761525  1.0000
  Pt  Pt7       1.0  0.12215062000000002  0.12562335000000002  0.49201924788761525  1.0000
  Pt  Pt8       1.0  0.12215063000000002  0.13132214  0.5211559850441472  1.0000
  Cu  Cu5       1.0  0.12215062000000002  0.87562335  0.4776131433580467  1.0000
  Cu  Cu6       1.0  0.37215062  0.62562335  0.4488009273839781  1.0000
  Cu  Cu7       1.0  0.12215069000000002  0.87562322  0.5347356273594577  1.0000
  Cu  Cu8       1.0  0.37215062  0.62562335  0.5064253558746495  1.0000
  Ga  Ga5       1.0  0.37215062  0.62562335  0.4776131433580467  1.0000
  Ga  Ga6       1.0  0.12215062000000002  0.87562335  0.4488009273839781  1.0000
  Ga  Ga7       1.0  0.3733972  0.6268699299999999  0.5337106582129277  1.0000
  Ga  Ga8       1.0  0.12215062000000002  0.87562335  0.5064253558746495  1.0000
  Pt  Pt9       1.0  0.37215062  0.87562335  0.46320703537101243  1.0000
  Pt  Pt10      1.0  0.37215062  0.87562335  0.43439482285440945  1.0000
  Pt  Pt11      1.0  0.12215062000000002  0.62562335  0.43439482285440945  1.0000
  Pt  Pt12      1.0  0.12215062000000002  0.62562335  0.46320703537101243  1.0000
  Pt  Pt13      1.0  0.37061486000000005  0.8756233899999999  0.5208304162495948  1.0000
  Pt  Pt14      1.0  0.37215062  0.87562335  0.49201924788761525  1.0000
  Pt  Pt15      1.0  0.12215062000000002  0.62562335  0.49201924788761525  1.0000
  Pt  Pt16      1.0  0.12215059  0.6199245899999999  0.5211559435545595  1.0000
  Cu  Cu9       1.0  0.62215062  0.37562335  0.4776131433580467  1.0000
  Cu  Cu10      1.0  0.8721506200000001  0.12562335000000002  0.4488009273839781  1.0000
  Cu  Cu11      1.0  0.62215049  0.37562342  0.5347356273594577  1.0000
  Cu  Cu12      1.0  0.8721506200000001  0.12562335000000002  0.5064253558746495  1.0000
  Ga  Ga9       1.0  0.8721506200000001  0.12562335000000002  0.4776131433580467  1.0000
  Ga  Ga10      1.0  0.62215062  0.37562335  0.4488009273839781  1.0000
  Ga  Ga11      1.0  0.8709039  0.12437661  0.5337106858726528  1.0000
  Ga  Ga12      1.0  0.62215062  0.37562335  0.5064253558746495  1.0000
  Pt  Pt17      1.0  0.8721506200000001  0.37562335  0.46320703537101243  1.0000
  Pt  Pt18      1.0  0.8721506200000001  0.37562335  0.43439482285440945  1.0000
  Pt  Pt19      1.0  0.62215062  0.12562335000000002  0.43439482285440945  1.0000
  Pt  Pt20      1.0  0.62215062  0.12562335000000002  0.46320703537101243  1.0000
  Pt  Pt21      1.0  0.87784941  0.37562332  0.5211559850441472  1.0000
  Pt  Pt22      1.0  0.8721506200000001  0.37562335  0.49201924788761525  1.0000
  Pt  Pt23      1.0  0.62215062  0.12562335000000002  0.49201924788761525  1.0000
  Pt  Pt24      1.0  0.6221506400000001  0.12715910000000002  0.52083044390932  1.0000
  Cu  Cu13      1.0  0.62215062  0.87562335  0.4776131433580467  1.0000
  Cu  Cu14      1.0  0.8721506200000001  0.62562335  0.4488009273839781  1.0000
  Cu  Cu15      1.0  0.62215054  0.8756232599999999  0.5347540452789233  1.0000
  Cu  Cu16      1.0  0.8721506200000001  0.62562335  0.5064253558746495  1.0000
  Ga  Ga13      1.0  0.8721506200000001  0.62562335  0.4776131433580467  1.0000
  Ga  Ga14      1.0  0.62215062  0.87562335  0.4488009273839781  1.0000
  Ga  Ga15      1.0  0.87090402  0.62687008  0.5337106755002559  1.0000
  Ga  Ga16      1.0  0.62215062  0.87562335  0.5064253558746495  1.0000
  Pt  Pt25      1.0  0.8721506200000001  0.87562335  0.46320703537101243  1.0000
  Pt  Pt26      1.0  0.8721506200000001  0.87562335  0.43439482285440945  1.0000
  Pt  Pt27      1.0  0.62215062  0.62562335  0.43439482285440945  1.0000
  Pt  Pt28      1.0  0.62215062  0.62562335  0.46320703537101243  1.0000
  Pt  Pt29      1.0  0.8736863699999999  0.87562338  0.52083044390932  1.0000
  Pt  Pt30      1.0  0.8721506200000001  0.87562335  0.49201924788761525  1.0000
  Pt  Pt31      1.0  0.62215062  0.62562335  0.49201924788761525  1.0000
  Pt  Pt32      1.0  0.6221506400000001  0.6240875899999999  0.5208304162495948  1.0000
