data_image0
_chemical_formula_structural       Co9Ni3Co9Ni3CO
_chemical_formula_sum              "Co18 Ni6 C1 O1"
_cell_length_a       4.94551128
_cell_length_b       4.945511277243877
_cell_length_c       106.34193743
_cell_angle_alpha    90.0
_cell_angle_beta     90.0
_cell_angle_gamma    59.999999981564734

_space_group_name_H-M_alt    "P 1"
_space_group_IT_number       1

loop_
  _space_group_symop_operation_xyz
  'x, y, z'

loop_
  _atom_site_type_symbol
  _atom_site_label
  _atom_site_symmetry_multiplicity
  _atom_site_fract_x
  _atom_site_fract_y
  _atom_site_fract_z
  _atom_site_occupancy
  Co  Co1       1.0  0.9147917649999998  0.421108425  0.45926882574981814  1.0000
  Co  Co2       1.0  0.2481251050000001  0.7544417649999999  0.44028293237414384  1.0000
  Co  Co3       1.0  0.581458435  0.08777509500000003  0.4782547157080319  1.0000
  Co  Co4       1.0  0.41479176500000003  0.921108425  0.45926882574981814  1.0000
  Co  Co5       1.0  0.7481251050000001  0.254441765  0.44028293237414384  1.0000
  Co  Co6       1.0  0.08145843500000004  0.587775095  0.4782547157080319  1.0000
  Co  Co7       1.0  0.914791765  0.921108425  0.45926882574981814  1.0000
  Co  Co8       1.0  0.24812510500000004  0.254441765  0.44028293237414384  1.0000
  Co  Co9       1.0  0.5814584350000002  0.587775095  0.4782547157080319  1.0000
  Ni  Ni1       1.0  0.7481251050000002  0.7544417649999999  0.44028293237414384  1.0000
  Ni  Ni2       1.0  0.08145843500000004  0.08777509500000003  0.4782547157080319  1.0000
  Ni  Ni3       1.0  0.41479176500000003  0.421108425  0.45926882574981814  1.0000
  Co  Co10      1.0  0.9185310449999999  0.41939627500000004  0.516209367312262  1.0000
  Co  Co11      1.0  0.2481251050000001  0.7544417649999999  0.49724060908370626  1.0000
  Co  Co12      1.0  0.5960394849999999  0.07872215500000003  0.5352904540511171  1.0000
  Co  Co13      1.0  0.414403115  0.921277845  0.516247666792469  1.0000
  Co  Co14      1.0  0.7481251050000001  0.254441765  0.49724060908370626  1.0000
  Co  Co15      1.0  0.08723977500000005  0.584855435  0.5345009454835795  1.0000
  Co  Co16      1.0  0.9185415650000002  0.9190778949999999  0.5162066538485978  1.0000
  Co  Co17      1.0  0.24812510500000004  0.254441765  0.49724060908370626  1.0000
  Co  Co18      1.0  0.5960036850000001  0.582258125  0.5352939125211778  1.0000
  Ni  Ni4       1.0  0.7481251050000002  0.7544417649999999  0.49724060908370626  1.0000
  Ni  Ni5       1.0  0.09422704500000004  0.08136122500000002  0.5354322684109059  1.0000
  Ni  Ni6       1.0  0.42008618500000006  0.418445805  0.5160621807045135  1.0000
  C   C1        1.0  0.6827029650000002  0.287140375  0.5485143415105227  1.0000
  O   O1        1.0  0.704159335  0.276365165  0.5597170676258562  1.0000
