data_image0
_chemical_formula_structural       COAg24Ga12
_chemical_formula_sum              "C1 O1 Ag24 Ga12"
_cell_length_a       9.92086453097485
_cell_length_b       8.494677862961261
_cell_length_c       101.6168096
_cell_angle_alpha    97.23512271261744
_cell_angle_beta     95.02204251974604
_cell_angle_gamma    80.30431627842844

_space_group_name_H-M_alt    "P 1"
_space_group_IT_number       1

loop_
  _space_group_symop_operation_xyz
  'x, y, z'

loop_
  _atom_site_type_symbol
  _atom_site_label
  _atom_site_symmetry_multiplicity
  _atom_site_fract_x
  _atom_site_fract_y
  _atom_site_fract_z
  _atom_site_occupancy
  C   C1        1.0  0.5014099049999999  0.5051404250000001  0.5394923104904106  1.0000
  O   O1        1.0  0.519498135  0.544836825  0.5507309924016769  1.0000
  Ag  Ag1       1.0  0.45916016499999995  0.42826617500000014  0.5184364876620267  1.0000
  Ag  Ag2       1.0  0.656150445  0.24137482500000018  0.49954590246069913  1.0000
  Ag  Ag3       1.0  0.842875825  0.050672625000000054  0.4789804635934601  1.0000
  Ag  Ag4       1.0  0.03037582499999997  0.8631726250000002  0.4595343639985364  1.0000
  Ag  Ag5       1.0  0.355003255  0.844076895  0.4892413613919582  1.0000
  Ag  Ag6       1.0  0.542503255  0.6565768949999999  0.46979526179703446  1.0000
  Ag  Ag7       1.0  0.730003255  0.4690768950000001  0.45034916220211074  1.0000
  Ag  Ag8       1.0  0.146364895  0.03389344500000006  0.5093527633917272  1.0000
  Ag  Ag9       1.0  0.6972414549999999  0.7773239950000002  0.5215509034115031  1.0000
  Ag  Ag10      1.0  0.909546265  0.6056406350000001  0.504825372266052  1.0000
  Ag  Ag11      1.0  0.09112032499999997  0.41349151500000003  0.48492186307214447  1.0000
  Ag  Ag12      1.0  0.27862032499999995  0.2259915150000001  0.46547576347722075  1.0000
  Ag  Ag13      1.0  0.859545215  0.961949895  0.5071705625430721  1.0000
  Ag  Ag14      1.0  0.05988643499999998  0.778144645  0.4881612067881706  1.0000
  Ag  Ag15      1.0  0.24738643499999996  0.5906446450000001  0.46871510719324694  1.0000
  Ag  Ag16      1.0  0.43488643499999996  0.403144645  0.4492690075983231  1.0000
  Ag  Ag17      1.0  0.582385685  0.5957817650000001  0.4983585516218165  1.0000
  Ag  Ag18      1.0  0.782124175  0.4169559750000001  0.479523324021128  1.0000
  Ag  Ag19      1.0  0.9696241750000001  0.22945597500000006  0.4600772244262042  1.0000
  Ag  Ag20      1.0  0.39210127499999997  0.8109274650000001  0.517687619922314  1.0000
  Ag  Ag21      1.0  0.35306654499999995  0.2103925350000001  0.49499484620966094  1.0000
  Ag  Ag22      1.0  0.5407388049999999  0.019390405000000097  0.4757361043394264  1.0000
  Ag  Ag23      1.0  0.7282388049999999  0.831890405  0.45629000474450276  1.0000
  Ag  Ag24      1.0  0.16222005499999995  0.3947890150000001  0.5141086010726916  1.0000
  Ga  Ga1       1.0  0.300083405  0.5640310550000001  0.49774984825660834  1.0000
  Ga  Ga2       1.0  0.49216646499999994  0.37358034500000015  0.47789919511708767  1.0000
  Ga  Ga3       1.0  0.6796664649999999  0.1860803450000001  0.458453095522164  1.0000
  Ga  Ga4       1.0  0.12490885499999999  0.7411357049999999  0.517668186268223  1.0000
  Ga  Ga5       1.0  0.566384605  0.9806095949999999  0.5054996758814778  1.0000
  Ga  Ga6       1.0  0.762999805  0.7694136750000001  0.48438122727827027  1.0000
  Ga  Ga7       1.0  0.9504998050000001  0.581913675  0.46493512768334655  1.0000
  Ga  Ga8       1.0  0.368846795  0.1380692350000001  0.5231797180477018  1.0000
  Ga  Ga9       1.0  0.760894605  0.45141266500000016  0.5195776812389108  1.0000
  Ga  Ga10      1.0  0.9360407850000001  0.2614420250000001  0.5026496181883345  1.0000
  Ga  Ga11      1.0  0.127583135  0.07149701500000007  0.48114021275336694  1.0000
  Ga  Ga12      1.0  0.31508313499999996  0.8839970149999999  0.4616941131584432  1.0000
