data_image0
_chemical_formula_structural       COZn4Ge2Se8
_chemical_formula_sum              "C1 O1 Zn4 Ge2 Se8"
_cell_length_a       5.84280952
_cell_length_b       5.84280952
_cell_length_c       102.60636937999999
_cell_angle_alpha    90.0
_cell_angle_beta     90.0
_cell_angle_gamma    90.0

_space_group_name_H-M_alt    "P 1"
_space_group_IT_number       1

loop_
  _space_group_symop_operation_xyz
  'x, y, z'

loop_
  _atom_site_type_symbol
  _atom_site_label
  _atom_site_symmetry_multiplicity
  _atom_site_fract_x
  _atom_site_fract_y
  _atom_site_fract_z
  _atom_site_occupancy
  C   C1        1.0  0.6961710799999999  0.637482895  0.5560937311861603  1.0000
  O   O1        1.0  0.59572552  0.7081454349999999  0.5648375651472645  1.0000
  Zn  Zn1       1.0  0.11672863  0.684018895  0.4740072264339375  1.0000
  Zn  Zn2       1.0  0.61672863  0.18401889500000002  0.4740072264339375  1.0000
  Zn  Zn3       1.0  0.53127669  0.06409102500000001  0.524188145297771  1.0000
  Zn  Zn4       1.0  0.24031620000000004  0.7724766050000001  0.5246411296064184  1.0000
  Ge  Ge1       1.0  0.11463434000000002  0.18665024500000002  0.5003843833043194  1.0000
  Ge  Ge2       1.0  0.61672863  0.684018895  0.44752546554458794  1.0000
  Se  Se1       1.0  0.36861871  0.9321288150000001  0.4881259598092461  1.0000
  Se  Se2       1.0  0.88536566  0.9233136750000002  0.5135141118495673  1.0000
  Se  Se3       1.0  0.86483855  0.43590897500000003  0.4881259598092461  1.0000
  Se  Se4       1.0  0.37649286  0.41832412500000005  0.5134796993295504  1.0000
  Se  Se5       1.0  0.86861871  0.432128815  0.43516243485273565  1.0000
  Se  Se6       1.0  0.36483855000000004  0.432128815  0.4598884962364403  1.0000
  Se  Se7       1.0  0.36483855000000004  0.9359089749999999  0.43516243485273565  1.0000
  Se  Se8       1.0  0.86861871  0.9359089749999999  0.4598884962364403  1.0000
