data_image0
_chemical_formula_structural       CONa6Al6Si6Na6Al6Si6
_chemical_formula_sum              "C1 O1 Na12 Al12 Si12"
_cell_length_a       11.151922563436244
_cell_length_b       8.30823262
_cell_length_c       104.08115724999999
_cell_angle_alpha    90.0
_cell_angle_beta     102.66045725178309
_cell_angle_gamma    90.0

_space_group_name_H-M_alt    "P 1"
_space_group_IT_number       1

loop_
  _space_group_symop_operation_xyz
  'x, y, z'

loop_
  _atom_site_type_symbol
  _atom_site_label
  _atom_site_symmetry_multiplicity
  _atom_site_fract_x
  _atom_site_fract_y
  _atom_site_fract_z
  _atom_site_occupancy
  C   C1        1.0  0.9780582550000001  0.12474293999999998  0.5385045062313397  1.0000
  O   O1        1.0  0.021941744999999985  0.12475153999999998  0.5500665969186231  1.0000
  Na  Na1       1.0  0.7516071350000002  0.12474104999999996  0.4720939609275356  1.0000
  Na  Na2       1.0  0.09032996499999998  0.12473788999999996  0.4990944902891432  1.0000
  Na  Na3       1.0  0.429303155  0.12473177999999999  0.5262807415554625  1.0000
  Na  Na4       1.0  0.822712405  0.38367953  0.5003491429696184  1.0000
  Na  Na5       1.0  0.12147123499999997  0.38307593999999995  0.5268350257280029  1.0000
  Na  Na6       1.0  0.495062935  0.37474104999999996  0.47316540322875694  1.0000
  Al  Al1       1.0  0.6879731349999999  0.12470011999999997  0.5213244114257479  1.0000
  Al  Al2       1.0  0.04000170499999998  0.12474104999999996  0.4658078517437113  1.0000
  Al  Al3       1.0  0.373335035  0.12474104999999996  0.4930951763559302  1.0000
  Al  Al4       1.0  0.5468541149999999  0.37420286999999997  0.5075870744592302  1.0000
  Al  Al5       1.0  0.8733350350000002  0.37474104999999996  0.45216418780036244  1.0000
  Al  Al6       1.0  0.206668375  0.37474104999999996  0.4794515124125812  1.0000
  Si  Si1       1.0  0.6097097549999999  0.12474104999999996  0.4953259610749158  1.0000
  Si  Si2       1.0  0.9183796050000002  0.12472943999999997  0.5211268686515415  1.0000
  Si  Si3       1.0  0.276376425  0.12474104999999996  0.468038636462697  1.0000
  Si  Si4       1.0  0.9702936550000001  0.37474104999999996  0.4772207276935956  1.0000
  Si  Si5       1.0  0.309196995  0.37570981999999997  0.5058385910390717  1.0000
  Si  Si6       1.0  0.6369603149999999  0.37474104999999996  0.4499334030813768  1.0000
  Na  Na7       1.0  0.7516071350000002  0.6247410499999999  0.4720939609275356  1.0000
  Na  Na8       1.0  0.08641993499999996  0.62475286  0.49901235980474723  1.0000
  Na  Na9       1.0  0.437839935  0.62476124  0.525909517136138  1.0000
  Na  Na10      1.0  0.822701135  0.8657816999999998  0.500347260144145  1.0000
  Na  Na11      1.0  0.12145858499999998  0.86641721  0.5268338436410535  1.0000
  Na  Na12      1.0  0.495062935  0.87474105  0.47316540322875694  1.0000
  Al  Al7       1.0  0.7067341749999999  0.6247406599999998  0.5199773562199888  1.0000
  Al  Al8       1.0  0.04000170499999998  0.6247410499999999  0.4658078517437113  1.0000
  Al  Al9       1.0  0.373335035  0.6247410499999999  0.4930951763559302  1.0000
  Al  Al10      1.0  0.5468366549999999  0.87529988  0.5075858432550945  1.0000
  Al  Al11      1.0  0.8733350350000002  0.87474105  0.45216418780036244  1.0000
  Al  Al12      1.0  0.206668375  0.87474105  0.4794515124125812  1.0000
  Si  Si7       1.0  0.6097097549999999  0.6247410499999999  0.4953259610749158  1.0000
  Si  Si8       1.0  0.926678015  0.6247329799999999  0.522820016649652  1.0000
  Si  Si9       1.0  0.276376425  0.6247410499999999  0.468038636462697  1.0000
  Si  Si10      1.0  0.9702936550000001  0.87474105  0.4772207276935956  1.0000
  Si  Si11      1.0  0.30918700499999996  0.87377125  0.5058399990650779  1.0000
  Si  Si12      1.0  0.6369603149999999  0.87474105  0.4499334030813768  1.0000
