data_image0
_chemical_formula_structural       COZn12Pd4Zn12Pd4
_chemical_formula_sum              "C1 O1 Zn24 Pd8"
_cell_length_a       9.149027621894056
_cell_length_b       5.37169644
_cell_length_c       102.23017865
_cell_angle_alpha    90.0
_cell_angle_beta     72.92840034195915
_cell_angle_gamma    72.92840034195915

_space_group_name_H-M_alt    "P 1"
_space_group_IT_number       1

loop_
  _space_group_symop_operation_xyz
  'x, y, z'

loop_
  _atom_site_type_symbol
  _atom_site_label
  _atom_site_symmetry_multiplicity
  _atom_site_fract_x
  _atom_site_fract_y
  _atom_site_fract_z
  _atom_site_occupancy
  C   C1        1.0  0.7238615949999998  0.6845318049999999  0.5505223451205009  1.0000
  O   O1        1.0  0.638342945  0.7539596350000002  0.5616671071554574  1.0000
  Zn  Zn1       1.0  0.622405325  0.9442204449999999  0.5237569483296146  1.0000
  Zn  Zn2       1.0  0.626285305  0.430779555  0.49744614664765513  1.0000
  Zn  Zn3       1.0  0.622663195  0.4457224849999999  0.5240074561120514  1.0000
  Zn  Zn4       1.0  0.626285305  0.9307795550000001  0.49744614664765513  1.0000
  Zn  Zn5       1.0  0.8732542249999998  0.08081751499999996  0.5308251594956886  1.0000
  Zn  Zn6       1.0  0.876285305  0.555779555  0.5040142849082098  1.0000
  Zn  Zn7       1.0  0.12944775499999994  0.184620495  0.5099737521224184  1.0000
  Zn  Zn8       1.0  0.12598983499999994  0.7021885649999998  0.5361479690846704  1.0000
  Zn  Zn9       1.0  0.12766590499999994  0.6838672449999998  0.5100681284025569  1.0000
  Zn  Zn10      1.0  0.12371469499999994  0.194503085  0.5361891402836793  1.0000
  Zn  Zn11      1.0  0.3777048449999999  0.31689677499999996  0.5190965066903802  1.0000
  Zn  Zn12      1.0  0.3762853049999999  0.805779555  0.4908780052343935  1.0000
  Pd  Pd1       1.0  0.3762853049999999  0.30577955499999987  0.4908780052343935  1.0000
  Pd  Pd2       1.0  0.37894107499999996  0.8156539949999999  0.5175319475320294  1.0000
  Pd  Pd3       1.0  0.876285305  0.05577955499999998  0.5040142849082098  1.0000
  Pd  Pd4       1.0  0.8587221949999998  0.587511225  0.5315628865977376  1.0000
  Zn  Zn13      1.0  0.626285305  0.9307795550000001  0.47117358730002273  1.0000
  Zn  Zn14      1.0  0.626285305  0.430779555  0.4449010311050971  1.0000
  Zn  Zn15      1.0  0.626285305  0.430779555  0.47117358730002273  1.0000
  Zn  Zn16      1.0  0.626285305  0.9307795550000001  0.4449010311050971  1.0000
  Zn  Zn17      1.0  0.876285305  0.05577955499999998  0.4777417287132842  1.0000
  Zn  Zn18      1.0  0.876285305  0.555779555  0.4514691693656518  1.0000
  Zn  Zn19      1.0  0.12628530499999993  0.18077955499999995  0.4580373107789133  1.0000
  Zn  Zn20      1.0  0.12628530499999993  0.680779555  0.4843098669738389  1.0000
  Zn  Zn21      1.0  0.12628530499999993  0.680779555  0.4580373107789133  1.0000
  Zn  Zn22      1.0  0.12628530499999993  0.18077955499999995  0.4843098669738389  1.0000
  Zn  Zn23      1.0  0.3762853049999999  0.30577955499999987  0.464605449039468  1.0000
  Zn  Zn24      1.0  0.3762853049999999  0.805779555  0.43833289284454247  1.0000
  Pd  Pd5       1.0  0.3762853049999999  0.30577955499999987  0.43833289284454247  1.0000
  Pd  Pd6       1.0  0.3762853049999999  0.805779555  0.464605449039468  1.0000
  Pd  Pd7       1.0  0.876285305  0.05577955499999998  0.4514691693656518  1.0000
  Pd  Pd8       1.0  0.876285305  0.555779555  0.4777417287132842  1.0000
