data_image0
_chemical_formula_structural       COCa8Cu8Ga4
_chemical_formula_sum              "C1 O1 Ca8 Cu8 Ga4"
_cell_length_a       5.783783728872849
_cell_length_b       5.78378373113914
_cell_length_c       104.15999503
_cell_angle_alpha    87.96768434616895
_cell_angle_beta     87.96768434537228
_cell_angle_gamma    104.82220515186637

_space_group_name_H-M_alt    "P 1"
_space_group_IT_number       1

loop_
  _space_group_symop_operation_xyz
  'x, y, z'

loop_
  _atom_site_type_symbol
  _atom_site_label
  _atom_site_symmetry_multiplicity
  _atom_site_fract_x
  _atom_site_fract_y
  _atom_site_fract_z
  _atom_site_occupancy
  C   C1        1.0  0.69000463  0.4584281850000001  0.559988502629142  1.0000
  O   O1        1.0  0.7316337099999999  0.49980481499999996  0.5711924174476378  1.0000
  Ca  Ca1       1.0  0.6261471399999999  0.9753814049999998  0.5500127570991616  1.0000
  Ca  Ca2       1.0  0.9960333999999998  0.37250405499999995  0.5186633548418241  1.0000
  Ca  Ca3       1.0  0.20682161  0.394618465  0.5500171779589444  1.0000
  Ca  Ca4       1.0  0.6039666  0.7645708550000001  0.5186633548418241  1.0000
  Ca  Ca5       1.0  0.3960334  0.772504055  0.4858676591237499  1.0000
  Ca  Ca6       1.0  0.7960333999999999  0.172504055  0.45307196340567574  1.0000
  Ca  Ca7       1.0  0.0039665999999999955  0.164570855  0.48586765912374996  1.0000
  Ca  Ca8       1.0  0.40396659999999995  0.5645708549999999  0.45307196340567574  1.0000
  Cu  Cu1       1.0  0.14391886  0.9124563150000001  0.5101320399770638  1.0000
  Cu  Cu2       1.0  0.72541901  0.49384802499999997  0.5420641692741983  1.0000
  Cu  Cu3       1.0  0.8560811399999999  0.6246185949999998  0.49439897398851024  1.0000
  Cu  Cu4       1.0  0.44427441  0.212878255  0.5266864085734849  1.0000
  Cu  Cu5       1.0  0.9439188599999999  0.7124563150000001  0.44454064854091535  1.0000
  Cu  Cu6       1.0  0.54391886  0.31245631500000004  0.47733634425898963  1.0000
  Cu  Cu7       1.0  0.65608114  0.424618595  0.4288075825523619  1.0000
  Cu  Cu8       1.0  0.25608114  0.024618595000000007  0.4616032782704361  1.0000
  Ga  Ga1       1.0  0.09531526999999998  0.8637328849999999  0.5358364371949538  1.0000
  Ga  Ga2       1.0  0.5  0.26853745500000004  0.502265506982787  1.0000
  Ga  Ga3       1.0  0.8999999999999999  0.668537455  0.4694698112647128  1.0000
  Ga  Ga4       1.0  0.3  0.06853745500000001  0.4366741155466386  1.0000
