data_image0
_chemical_formula_structural       COCa2Mn8Al16
_chemical_formula_sum              "C1 O1 Ca2 Mn8 Al16"
_cell_length_a       8.74501862
_cell_length_b       5.15216366
_cell_length_c       104.98007448999999
_cell_angle_alpha    90.0
_cell_angle_beta     90.0
_cell_angle_gamma    90.0

_space_group_name_H-M_alt    "P 1"
_space_group_IT_number       1

loop_
  _space_group_symop_operation_xyz
  'x, y, z'

loop_
  _atom_site_type_symbol
  _atom_site_label
  _atom_site_symmetry_multiplicity
  _atom_site_fract_x
  _atom_site_fract_y
  _atom_site_fract_z
  _atom_site_occupancy
  C   C1        1.0  0.93147729  0.12501363  0.5399352029513769  1.0000
  O   O1        1.0  0.8659557400000001  0.12500730999999998  0.5494641243461889  1.0000
  Ca  Ca1       1.0  0.06852271000000006  0.12501097  0.5175678102957061  1.0000
  Ca  Ca2       1.0  0.57093537  0.6250181300000001  0.473158181506268  1.0000
  Mn  Mn1       1.0  0.82093537  0.37501813  0.4523327566221081  1.0000
  Mn  Mn2       1.0  0.82093537  0.37501813  0.49398360639042777  1.0000
  Mn  Mn3       1.0  0.82093537  0.8750181300000001  0.49398360639042777  1.0000
  Mn  Mn4       1.0  0.82093537  0.8750181300000001  0.4523327566221081  1.0000
  Mn  Mn5       1.0  0.32093537000000005  0.8750181300000001  0.49398360639042777  1.0000
  Mn  Mn6       1.0  0.32093537000000005  0.8750181300000001  0.4523327566221081  1.0000
  Mn  Mn7       1.0  0.32093537000000005  0.37501813  0.4523327566221081  1.0000
  Mn  Mn8       1.0  0.32093537000000005  0.37501813  0.49398360639042777  1.0000
  Al  Al1       1.0  0.07093537000000005  0.12501812999999998  0.45935284407922733  1.0000
  Al  Al2       1.0  0.23666235000000005  0.6250181300000001  0.473158181506268  1.0000
  Al  Al3       1.0  0.9052083900000001  0.6250181300000001  0.473158181506268  1.0000
  Al  Al4       1.0  0.07093537000000005  0.12501812999999998  0.48696352226537665  1.0000
  Al  Al5       1.0  0.07093537000000005  0.6250181300000001  0.4957804906907928  1.0000
  Al  Al6       1.0  0.79936459  0.12501812999999998  0.473158181506268  1.0000
  Al  Al7       1.0  0.34250615000000006  0.12501812999999998  0.473158181506268  1.0000
  Al  Al8       1.0  0.07093537000000005  0.6250181300000001  0.4505358756538112  1.0000
  Al  Al9       1.0  0.57063156  0.62490586  0.5008570428715466  1.0000
  Al  Al10      1.0  0.7229635600000001  0.12498186999999998  0.5145162224686484  1.0000
  Al  Al11      1.0  0.4167576800000001  0.12504050999999997  0.514513949998285  1.0000
  Al  Al12      1.0  0.5684263500000001  0.62528599  0.5266528535864351  1.0000
  Al  Al13      1.0  0.57093537  0.12501812999999998  0.45412964092247304  1.0000
  Al  Al14      1.0  0.28841161000000004  0.62498003  0.5151388960085488  1.0000
  Al  Al15      1.0  0.85012553  0.62504529  0.5151017367864195  1.0000
  Al  Al16      1.0  0.57093537  0.12501812999999998  0.4921867254221309  1.0000
