data_image0
_chemical_formula_structural       COZn12Rh4Zn12Rh4
_chemical_formula_sum              "C1 O1 Zn24 Rh8"
_cell_length_a       9.044642235236084
_cell_length_b       5.30787061
_cell_length_c       101.84722364
_cell_angle_alpha    90.0
_cell_angle_beta     72.93680861641663
_cell_angle_gamma    72.93680861641663

_space_group_name_H-M_alt    "P 1"
_space_group_IT_number       1

loop_
  _space_group_symop_operation_xyz
  'x, y, z'

loop_
  _atom_site_type_symbol
  _atom_site_label
  _atom_site_symmetry_multiplicity
  _atom_site_fract_x
  _atom_site_fract_y
  _atom_site_fract_z
  _atom_site_occupancy
  C   C1        1.0  0.7257969999999999  0.6085343400000001  0.5494235683532285  1.0000
  O   O1        1.0  0.6413815  0.63664973  0.5608841127854413  1.0000
  Zn  Zn1       1.0  0.62197679  0.92574412  0.5240649200387937  1.0000
  Zn  Zn2       1.0  0.6249999999999999  0.4449074100000001  0.49774639494059114  1.0000
  Zn  Zn3       1.0  0.62425612  0.4435571  0.523864997824849  1.0000
  Zn  Zn4       1.0  0.6249999999999999  0.9449074099999999  0.49774639494059114  1.0000
  Zn  Zn5       1.0  0.8654724599999999  0.05509259000000007  0.5308460714040596  1.0000
  Zn  Zn6       1.0  0.8749999999999999  0.5699074100000001  0.5042608947567191  1.0000
  Zn  Zn7       1.0  0.1276015  0.18962707999999998  0.5099053866313218  1.0000
  Zn  Zn8       1.0  0.12783661999999998  0.67982694  0.5351717239474323  1.0000
  Zn  Zn9       1.0  0.12820288  0.6877653600000001  0.5098747611810461  1.0000
  Zn  Zn10      1.0  0.12806407  0.17494483  0.5351925901542619  1.0000
  Zn  Zn11      1.0  0.38531539  0.30502368  0.5178970500382629  1.0000
  Zn  Zn12      1.0  0.37500000000000006  0.81990741  0.49123189199750283  1.0000
  Rh  Rh1       1.0  0.37500000000000006  0.31990741  0.49123189199750283  1.0000
  Rh  Rh2       1.0  0.37657334  0.8089118399999999  0.517311795619701  1.0000
  Rh  Rh3       1.0  0.8749999999999999  0.06990741000000006  0.5042608947567191  1.0000
  Rh  Rh4       1.0  0.86601867  0.55531686  0.5313951093671292  1.0000
  Zn  Zn13      1.0  0.6249999999999999  0.9449074099999999  0.47168838942215857  1.0000
  Zn  Zn14      1.0  0.6249999999999999  0.4449074100000001  0.4456303870306864  1.0000
  Zn  Zn15      1.0  0.6249999999999999  0.4449074100000001  0.47168838942215857  1.0000
  Zn  Zn16      1.0  0.6249999999999999  0.9449074099999999  0.4456303870306864  1.0000
  Zn  Zn17      1.0  0.8749999999999999  0.06990741000000006  0.4782028923652469  1.0000
  Zn  Zn18      1.0  0.8749999999999999  0.5699074100000001  0.45214488684681436  1.0000
  Zn  Zn19      1.0  0.125  0.19490740999999995  0.45865938978990267  1.0000
  Zn  Zn20      1.0  0.125  0.6949074100000001  0.48471739218137483  1.0000
  Zn  Zn21      1.0  0.125  0.6949074100000001  0.45865938978990267  1.0000
  Zn  Zn22      1.0  0.125  0.19490740999999995  0.48471739218137483  1.0000
  Zn  Zn23      1.0  0.37500000000000006  0.31990741  0.4651738896060307  1.0000
  Zn  Zn24      1.0  0.37500000000000006  0.81990741  0.43911588721455846  1.0000
  Rh  Rh5       1.0  0.37500000000000006  0.31990741  0.43911588721455846  1.0000
  Rh  Rh6       1.0  0.37500000000000006  0.81990741  0.4651738896060307  1.0000
  Rh  Rh7       1.0  0.8749999999999999  0.06990741000000006  0.45214488684681436  1.0000
  Rh  Rh8       1.0  0.8749999999999999  0.5699074100000001  0.4782028923652469  1.0000
