data_image0
_chemical_formula_structural       COCa4Zn4Ca4Zn4Ca4Zn4Ca4Zn4
_chemical_formula_sum              "C1 O1 Ca16 Zn16"
_cell_length_a       12.411039190489992
_cell_length_b       8.76319336
_cell_length_c       100.82315894
_cell_angle_alpha    90.0
_cell_angle_beta     110.78055390606704
_cell_angle_gamma    90.0

_space_group_name_H-M_alt    "P 1"
_space_group_IT_number       1

loop_
  _space_group_symop_operation_xyz
  'x, y, z'

loop_
  _atom_site_type_symbol
  _atom_site_label
  _atom_site_symmetry_multiplicity
  _atom_site_fract_x
  _atom_site_fract_y
  _atom_site_fract_z
  _atom_site_occupancy
  C   C1        1.0  0.89722877  7.899999999869435e-07  0.5445720081387455  1.0000
  O   O1        1.0  0.91885224  1.1699999999869434e-06  0.5567498132622808  1.0000
  Ca  Ca1       1.0  0.85273708  8.399999999869436e-07  0.5173837276673324  1.0000
  Ca  Ca2       1.0  0.65931521  0.25000054  0.4869237670760841  1.0000
  Ca  Ca3       1.0  0.36770307  0.25000054  0.49602480989314757  1.0000
  Ca  Ca4       1.0  0.15216410000000002  0.9999997500000002  0.5086173266785317  1.0000
  Zn  Zn1       1.0  0.57659699  2.4999999998694356e-07  0.5051406156908679  1.0000
  Zn  Zn2       1.0  0.9421203100000001  0.25421672  0.4996477780267241  1.0000
  Zn  Zn3       1.0  0.05157458000000003  0.24401767999999996  0.5267233474666891  1.0000
  Zn  Zn4       1.0  0.44138937  0.9999868900000001  0.5203938593746282  1.0000
  Ca  Ca5       1.0  0.86770307  5.399999999869435e-07  0.474188019723965  1.0000
  Ca  Ca6       1.0  0.65931521  0.25000054  0.4432501867377191  1.0000
  Ca  Ca7       1.0  0.36770307  0.25000054  0.4523512295547826  1.0000
  Ca  Ca8       1.0  0.15931521000000004  5.399999999869435e-07  0.46508697690690165  1.0000
  Zn  Zn5       1.0  0.57859075  5.399999999869435e-07  0.4615614493371026  1.0000
  Zn  Zn6       1.0  0.94842753  0.25000054  0.45587675712458164  1.0000
  Zn  Zn7       1.0  0.07859075000000003  0.25000054  0.483398239506285  1.0000
  Zn  Zn8       1.0  0.44842753  5.399999999869435e-07  0.47771354729376414  1.0000
  Ca  Ca9       1.0  0.85454146  0.50000138  0.5176469361126934  1.0000
  Ca  Ca10      1.0  0.65931521  0.7500005399999999  0.4869237670760841  1.0000
  Ca  Ca11      1.0  0.36770307  0.7500005399999999  0.49602480989314757  1.0000
  Ca  Ca12      1.0  0.15375723  0.50000194  0.5087982213417037  1.0000
  Zn  Zn9       1.0  0.57638162  0.5000010800000001  0.5051763721252777  1.0000
  Zn  Zn10      1.0  0.9421219200000001  0.7457856100000001  0.49964798897012136  1.0000
  Zn  Zn11      1.0  0.05157247000000002  0.75598529  0.5267240108683877  1.0000
  Zn  Zn12      1.0  0.44169911  0.50000048  0.5204559898479961  1.0000
  Ca  Ca13      1.0  0.86770307  0.50000054  0.474188019723965  1.0000
  Ca  Ca14      1.0  0.65931521  0.7500005399999999  0.4432501867377191  1.0000
  Ca  Ca15      1.0  0.36770307  0.7500005399999999  0.4523512295547826  1.0000
  Ca  Ca16      1.0  0.15931521000000004  0.50000054  0.46508697690690165  1.0000
  Zn  Zn13      1.0  0.57859075  0.50000054  0.4615614493371026  1.0000
  Zn  Zn14      1.0  0.94842753  0.7500005399999999  0.45587675712458164  1.0000
  Zn  Zn15      1.0  0.07859075000000003  0.7500005399999999  0.483398239506285  1.0000
  Zn  Zn16      1.0  0.44842753  0.50000054  0.47771354729376414  1.0000
