data_image0
_chemical_formula_structural       COCa3Si6Ca3Si6
_chemical_formula_sum              "C1 O1 Ca6 Si12"
_cell_length_a       5.964332449138981
_cell_length_b       7.16542482
_cell_length_c       105.78599471
_cell_angle_alpha    90.0
_cell_angle_beta     106.1613963785385
_cell_angle_gamma    53.08069816945881

_space_group_name_H-M_alt    "P 1"
_space_group_IT_number       1

loop_
  _space_group_symop_operation_xyz
  'x, y, z'

loop_
  _atom_site_type_symbol
  _atom_site_label
  _atom_site_symmetry_multiplicity
  _atom_site_fract_x
  _atom_site_fract_y
  _atom_site_fract_z
  _atom_site_occupancy
  C   C1        1.0  0.50417878  0.05504386999999995  0.5523250783601781  1.0000
  O   O1        1.0  0.50093866  0.07896009999999992  0.5633182661261077  1.0000
  Ca  Ca1       1.0  0.98649722  0.1325232799999999  0.5307005985536061  1.0000
  Ca  Ca2       1.0  0.3468361100000001  0.4299726699999999  0.49306285112201054  1.0000
  Ca  Ca3       1.0  0.6571022200000001  0.7694113099999998  0.5110315714659733  1.0000
  Si  Si1       1.0  0.01350278000000004  0.9299726700000001  0.5024597011776412  1.0000
  Si  Si2       1.0  0.33571871000000003  0.29022461  0.520343772041483  1.0000
  Si  Si3       1.0  0.6752328700000001  0.6041179600000001  0.5400844617829494  1.0000
  Si  Si4       1.0  0.01350278000000004  0.26330601  0.5024597011776412  1.0000
  Si  Si5       1.0  0.28719490000000003  0.6435745300000001  0.5230758735073598  1.0000
  Si  Si6       1.0  0.65933865  0.9449561300000002  0.5385043313882903  1.0000
  Ca  Ca4       1.0  0.01350278000000004  0.09663933999999996  0.4742691442450156  1.0000
  Ca  Ca5       1.0  0.3468361100000001  0.4299726699999999  0.4366817338738925  1.0000
  Ca  Ca6       1.0  0.6801694500000001  0.76330601  0.4554754407508874  1.0000
  Si  Si7       1.0  0.01350278000000004  0.9299726700000001  0.44607858731239  1.0000
  Si  Si8       1.0  0.3468361100000001  0.26330600999999987  0.46487229080651804  1.0000
  Si  Si9       1.0  0.6801694500000001  0.5966393400000001  0.48366599768351304  1.0000
  Si  Si10      1.0  0.01350278000000004  0.26330601  0.44607858731239  1.0000
  Si  Si11      1.0  0.3468361100000001  0.5966393399999999  0.46487229080651804  1.0000
  Si  Si12      1.0  0.6801694500000001  0.9299726700000001  0.48366599768351304  1.0000
