data_image0
_chemical_formula_structural       CONb6Sb12
_chemical_formula_sum              "C1 O1 Nb6 Sb12"
_cell_length_a       7.63069177593792
_cell_length_b       5.525524508318305
_cell_length_c       100.85703398
_cell_angle_alpha    92.70469672751672
_cell_angle_beta     93.3319465699137
_cell_angle_gamma    78.40461754183356

_space_group_name_H-M_alt    "P 1"
_space_group_IT_number       1

loop_
  _space_group_symop_operation_xyz
  'x, y, z'

loop_
  _atom_site_type_symbol
  _atom_site_label
  _atom_site_symmetry_multiplicity
  _atom_site_fract_x
  _atom_site_fract_y
  _atom_site_fract_z
  _atom_site_occupancy
  C   C1        1.0  0.33810358500000004  0.39647374999999996  0.5440862875038005  1.0000
  O   O1        1.0  0.306604095  0.4055584400000001  0.5553573295903487  1.0000
  Nb  Nb1       1.0  0.38803661500000003  0.36594432000000005  0.5234020833134896  1.0000
  Nb  Nb2       1.0  0.725567855  0.5286339299999999  0.5119359624978739  1.0000
  Nb  Nb3       1.0  0.27002769500000007  0.14076967  0.4889516392944693  1.0000
  Nb  Nb4       1.0  0.617037085  0.29946918000000006  0.47863692415774134  1.0000
  Nb  Nb5       1.0  0.158916585  0.9185474499999999  0.45495738860586193  1.0000
  Nb  Nb6       1.0  0.505925975  0.07724696000000003  0.4446426704096513  1.0000
  Sb  Sb1       1.0  0.492530615  0.8329294  0.5315281486259016  1.0000
  Sb  Sb2       1.0  0.734607795  0.40693031999999996  0.5395076677816121  1.0000
  Sb  Sb3       1.0  0.080054055  0.15774901000000002  0.5136043564857714  1.0000
  Sb  Sb4       1.0  0.037142314999999995  0.6826561800000001  0.523691057563323  1.0000
  Sb  Sb5       1.0  0.376996325  0.61164579  0.49756215225903655  1.0000
  Sb  Sb6       1.0  0.6211795649999999  0.05081529000000004  0.5040206618817815  1.0000
  Sb  Sb7       1.0  0.962857685  0.9491847099999999  0.4787279713002135  1.0000
  Sb  Sb8       1.0  0.924207105  0.4910541399999999  0.48886059215199706  1.0000
  Sb  Sb9       1.0  0.265885215  0.38942357000000005  0.4635678985109465  1.0000
  Sb  Sb10      1.0  0.5100684550000001  0.82859306  0.47002641119317407  1.0000
  Sb  Sb11      1.0  0.8517465650000001  0.7269624899999999  0.44473372061160615  1.0000
  Sb  Sb12      1.0  0.813095995  0.26883192000000006  0.4548663414633896  1.0000
