data_image0
_chemical_formula_structural       COCa4Ge4Ca4Ge4
_chemical_formula_sum              "C1 O1 Ca8 Ge8"
_cell_length_a       4.64631521
_cell_length_b       11.751580153311233
_cell_length_c       102.56619376
_cell_angle_alpha    69.73258000825324
_cell_angle_beta     90.0
_cell_angle_gamma    90.0

_space_group_name_H-M_alt    "P 1"
_space_group_IT_number       1

loop_
  _space_group_symop_operation_xyz
  'x, y, z'

loop_
  _atom_site_type_symbol
  _atom_site_label
  _atom_site_symmetry_multiplicity
  _atom_site_fract_x
  _atom_site_fract_y
  _atom_site_fract_z
  _atom_site_occupancy
  C   C1        1.0  0.7500000050000001  0.713843945  0.5410964912512585  1.0000
  O   O1        1.0  0.7500000050000001  0.7483437249999999  0.5503668847091536  1.0000
  Ca  Ca1       1.0  0.749999995  0.3586306250000001  0.47185573959129834  1.0000
  Ca  Ca2       1.0  0.24999999499999997  0.13211356500000002  0.4610014120911436  1.0000
  Ca  Ca3       1.0  0.24999999499999997  0.8586306249999999  0.4520111198839247  1.0000
  Ca  Ca4       1.0  0.749999995  0.632113565  0.4808460317985173  1.0000
  Ge  Ge1       1.0  0.749999995  0.07219795500000002  0.4832240363915955  1.0000
  Ge  Ge2       1.0  0.24999999499999997  0.418546235  0.4496331152908464  1.0000
  Ge  Ge3       1.0  0.24999999499999997  0.572197955  0.46337941668422183  1.0000
  Ge  Ge4       1.0  0.749999995  0.918546235  0.46947773499821993  1.0000
  Ca  Ca5       1.0  0.749999995  0.35878613500000006  0.5114989839402725  1.0000
  Ca  Ca6       1.0  0.24999999499999997  0.13511266500000002  0.4998603589676128  1.0000
  Ca  Ca7       1.0  0.24999999499999997  0.8565327449999999  0.49143782291779126  1.0000
  Ca  Ca8       1.0  0.749999995  0.6490839350000001  0.5187742850615454  1.0000
  Ge  Ge5       1.0  0.749999995  0.08633260500000003  0.5199871818677818  1.0000
  Ge  Ge6       1.0  0.24999999499999997  0.418546235  0.4893223547055936  1.0000
  Ge  Ge7       1.0  0.24999999499999997  0.558761735  0.5057482417590947  1.0000
  Ge  Ge8       1.0  0.749999995  0.9278020449999999  0.50965368514348  1.0000
