data_image0
_chemical_formula_structural       COCa2Cu2Sb2Ca2Cu2Sb2
_chemical_formula_sum              "C1 O1 Ca4 Cu4 Sb4"
_cell_length_a       9.46338111067723
_cell_length_b       4.530703609661287
_cell_length_c       106.24562889
_cell_angle_alpha    59.99999992451462
_cell_angle_beta     61.3954477620066
_cell_angle_gamma    76.15000199848241

_space_group_name_H-M_alt    "P 1"
_space_group_IT_number       1

loop_
  _space_group_symop_operation_xyz
  'x, y, z'

loop_
  _atom_site_type_symbol
  _atom_site_label
  _atom_site_symmetry_multiplicity
  _atom_site_fract_x
  _atom_site_fract_y
  _atom_site_fract_z
  _atom_site_occupancy
  C   C1        1.0  0.84699172  0.312418045  0.5381872126529225  1.0000
  O   O1        1.0  0.8063029700000001  0.210010455  0.5519361529770836  1.0000
  Ca  Ca1       1.0  0.07621618  0.202872405  0.4903590370532528  1.0000
  Ca  Ca2       1.0  0.55397878  0.20368690500000003  0.5122281271559102  1.0000
  Cu  Cu1       1.0  0.3179936  0.8417768349999999  0.510586741567387  1.0000
  Cu  Cu2       1.0  0.93002763  0.480259915  0.51616520234715  1.0000
  Sb  Sb1       1.0  0.8028936500000001  0.785119135  0.49477687016492966  1.0000
  Sb  Sb2       1.0  0.25778587  0.466432995  0.5025701442673149  1.0000
  Ca  Ca3       1.0  0.06997237  0.158223165  0.45161748738472834  1.0000
  Ca  Ca4       1.0  0.56997237  0.158223165  0.4729393227326127  1.0000
  Cu  Cu3       1.0  0.31997237  0.8248898350000001  0.46938568237080075  1.0000
  Cu  Cu4       1.0  0.8199723700000001  0.491556495  0.4764929596829309  1.0000
  Sb  Sb3       1.0  0.8199723700000001  0.8248898350000001  0.44806384702291635  1.0000
  Sb  Sb4       1.0  0.31997237  0.491556495  0.45517112433504664  1.0000
