data_image0
_chemical_formula_structural       CONa24Fe8Se24
_chemical_formula_sum              "C1 O1 Na24 Fe8 Se24"
_cell_length_a       19.410654879755896
_cell_length_b       7.1619358
_cell_length_c       121.59961555000001
_cell_angle_alpha    90.0
_cell_angle_beta     130.25810660639814
_cell_angle_gamma    90.0

_space_group_name_H-M_alt    "P 1"
_space_group_IT_number       1

loop_
  _space_group_symop_operation_xyz
  'x, y, z'

loop_
  _atom_site_type_symbol
  _atom_site_label
  _atom_site_symmetry_multiplicity
  _atom_site_fract_x
  _atom_site_fract_y
  _atom_site_fract_z
  _atom_site_occupancy
  C   C1        1.0  0.654595125  0.536418765  0.5547713913345191  1.0000
  O   O1        1.0  0.649629255  0.581291285  0.5633162213303267  1.0000
  Na  Na1       1.0  0.611140445  0.521513625  0.495352680360069  1.0000
  Na  Na2       1.0  0.11114044500000003  0.521513625  0.44231014470256214  1.0000
  Na  Na3       1.0  0.15228838500000003  0.04126371499999999  0.5181959914965394  1.0000
  Na  Na4       1.0  0.643593465  0.021513624999999988  0.4654835840941592  1.0000
  Na  Na5       1.0  0.8611404450000001  0.987184145  0.4688314125313156  1.0000
  Na  Na6       1.0  0.35744008500000013  0.975577135  0.5207103562058052  1.0000
  Na  Na7       1.0  0.3935934650000001  0.48718414499999996  0.4920048519229127  1.0000
  Na  Na8       1.0  0.893593465  0.48718414499999996  0.4389623162654058  1.0000
  Na  Na9       1.0  0.13855567500000004  0.504461375  0.4788020343724026  1.0000
  Na  Na10      1.0  0.6261819949999999  0.5202721149999999  0.5298215659105578  1.0000
  Na  Na11      1.0  0.11617823500000002  0.004461374999999988  0.48203423432522846  1.0000
  Na  Na12      1.0  0.6076179250000001  0.9957636049999999  0.5314793870238176  1.0000
  Na  Na13      1.0  0.866178235  0.504236395  0.5085555021539819  1.0000
  Na  Na14      1.0  0.36617823500000013  0.504236395  0.45551296649647505  1.0000
  Na  Na15      1.0  0.583598975  0.02104871499999999  0.49022645876099913  1.0000
  Na  Na16      1.0  0.08359897500000002  0.02104871499999999  0.4371839231034924  1.0000
  Na  Na17      1.0  0.833598975  0.48764905499999994  0.46370519093224577  1.0000
  Na  Na18      1.0  0.35089245500000005  0.48288028499999996  0.5197240917845952  1.0000
  Na  Na19      1.0  0.42113493500000004  0.987649055  0.4971310735219825  1.0000
  Na  Na20      1.0  0.921134935  0.987649055  0.44408853786447566  1.0000
  Na  Na21      1.0  0.189513705  0.49126631499999995  0.5254994691520559  1.0000
  Na  Na22      1.0  0.6711349350000001  0.5210487149999999  0.4706098056932291  1.0000
  Na  Na23      1.0  0.8885556750000001  0.004236394999999948  0.5053233022011561  1.0000
  Na  Na24      1.0  0.38855567500000004  0.004236394999999948  0.4522807665436492  1.0000
  Fe  Fe1       1.0  0.21550935500000004  0.12449423499999998  0.47110995437045083  1.0000
  Fe  Fe2       1.0  0.704352835  0.10118881499999999  0.5200918929702473  1.0000
  Fe  Fe3       1.0  0.7943116750000001  0.889007035  0.5165952017176187  1.0000
  Fe  Fe4       1.0  0.28922455500000005  0.8842035349999999  0.46320504649842686  1.0000
  Fe  Fe5       1.0  0.03922455500000001  0.624494235  0.4897263143271803  1.0000
  Fe  Fe6       1.0  0.5392245550000001  0.624494235  0.43668377866967345  1.0000
  Fe  Fe7       1.0  0.965509355  0.38420353500000004  0.4976312221992043  1.0000
  Fe  Fe8       1.0  0.4655093550000001  0.38420353500000004  0.4445886865416974  1.0000
  Se  Se1       1.0  0.9654822850000001  0.720816405  0.4658470103314702  1.0000
  Se  Se2       1.0  0.47511727500000006  0.727188105  0.520744014877232  1.0000
  Se  Se3       1.0  0.20803646500000003  0.793004745  0.47055895699684636  1.0000
  Se  Se4       1.0  0.713441535  0.793384815  0.5234770888129235  1.0000
  Se  Se5       1.0  0.9580364650000001  0.7156930250000001  0.4970802248255998  1.0000
  Se  Se6       1.0  0.45803646500000006  0.7156930250000001  0.4440376891680929  1.0000
  Se  Se7       1.0  0.792563835  0.20672276499999998  0.5160322209743585  1.0000
  Se  Se8       1.0  0.2966974450000001  0.21569302499999998  0.4637560396286285  1.0000
  Se  Se9       1.0  0.04669744500000002  0.293004745  0.4902773074573819  1.0000
  Se  Se10      1.0  0.5466974450000001  0.293004745  0.437234771799875  1.0000
  Se  Se11      1.0  0.28925162500000007  0.22081640499999997  0.494989254122758  1.0000
  Se  Se12      1.0  0.789251625  0.22081640499999997  0.4419467184652512  1.0000
  Se  Se13      1.0  0.03449064500000002  0.28437974499999996  0.5202290694542632  1.0000
  Se  Se14      1.0  0.539251625  0.28788136499999994  0.4684679862940046  1.0000
  Se  Se15      1.0  0.7154822850000001  0.787881365  0.49236827816022366  1.0000
  Se  Se16      1.0  0.21548228500000002  0.787881365  0.4393257425027168  1.0000
  Se  Se17      1.0  0.06799140500000003  0.246670535  0.45534485560566357  1.0000
  Se  Se18      1.0  0.567991405  0.246670535  0.5083873912631705  1.0000
  Se  Se19      1.0  0.18674250500000003  0.746670535  0.5054914130919675  1.0000
  Se  Se20      1.0  0.6867425050000001  0.746670535  0.4524488774344607  1.0000
  Se  Se21      1.0  0.9348135449999999  0.785562335  0.5302072784996507  1.0000
  Se  Se22      1.0  0.43674250500000006  0.7620272349999999  0.47897014526321413  1.0000
  Se  Se23      1.0  0.8179914049999999  0.26202723499999997  0.48186612343441704  1.0000
  Se  Se24      1.0  0.32269240500000007  0.227142805  0.5342255009364751  1.0000
