data_image0
_chemical_formula_structural       COCa12Ga4As12Ca12Ga4As12
_chemical_formula_sum              "C1 O1 Ca24 Ga8 As24"
_cell_length_a       14.330416386095592
_cell_length_b       13.137062015459328
_cell_length_c       104.15461192000001
_cell_angle_alpha    71.03543343374196
_cell_angle_beta     72.66724672256905
_cell_angle_gamma    84.44396256191875

_space_group_name_H-M_alt    "P 1"
_space_group_IT_number       1

loop_
  _space_group_symop_operation_xyz
  'x, y, z'

loop_
  _atom_site_type_symbol
  _atom_site_label
  _atom_site_symmetry_multiplicity
  _atom_site_fract_x
  _atom_site_fract_y
  _atom_site_fract_z
  _atom_site_occupancy
  C   C1        1.0  0.17927104999999996  0.5067932949999999  0.5435697879190985  1.0000
  O   O1        1.0  0.19268229999999997  0.5276355249999999  0.5528408115780044  1.0000
  Ca  Ca1       1.0  0.28399889  0.733178555  0.4881494663491914  1.0000
  Ca  Ca2       1.0  0.71634252  0.269220965  0.5095368226567082  1.0000
  Ca  Ca3       1.0  0.20325141  0.23334395499999996  0.5120982559360451  1.0000
  Ca  Ca4       1.0  0.74339207  0.809336355  0.5273384412693765  1.0000
  Ca  Ca5       1.0  0.3912778499999999  0.4430490349999999  0.4956445616227347  1.0000
  Ca  Ca6       1.0  0.59969649  0.5803662449999999  0.5013784456603025  1.0000
  Ca  Ca7       1.0  0.1584628  0.924283755  0.5250288817706243  1.0000
  Ca  Ca8       1.0  0.89028939  0.07389388499999998  0.5091894579246642  1.0000
  Ca  Ca9       1.0  0.0018750800000000118  0.653400995  0.5027177882350736  1.0000
  Ca  Ca10      1.0  0.0007934400000000117  0.35716581499999994  0.4946758629786481  1.0000
  Ca  Ca11      1.0  0.50205124  0.130162455  0.505474404101011  1.0000
  Ca  Ca12      1.0  0.49920656  0.857165815  0.49474090963088513  1.0000
  Ga  Ga1       1.0  0.8465305399999999  0.43793427499999993  0.5185704568596375  1.0000
  Ga  Ga2       1.0  0.21127128999999997  0.591895245  0.5177042994948136  1.0000
  Ga  Ga3       1.0  0.69926751  0.947929515  0.5024679541307184  1.0000
  Ga  Ga4       1.0  0.29792278999999994  0.06886617499999997  0.49431393194143985  1.0000
  As  As1       1.0  0.61265484  0.39793430499999993  0.4884195201378424  1.0000
  As  As2       1.0  0.38798338  0.610727325  0.5092606957484793  1.0000
  As  As3       1.0  0.88734516  0.897934305  0.49765502654073  1.0000
  As  As4       1.0  0.10836915000000001  0.10655701499999999  0.5016597176682167  1.0000
  As  As5       1.0  0.86852272  0.24988576499999998  0.5251406966903652  1.0000
  As  As6       1.0  0.10151198  0.749295505  0.5165635925276555  1.0000
  As  As7       1.0  0.6258209599999999  0.754892145  0.5134301579555668  1.0000
  As  As8       1.0  0.30897039  0.07597245499999998  0.5293722968795681  1.0000
  As  As9       1.0  0.3606751999999999  0.955172865  0.5147595710454128  1.0000
  As  As10      1.0  0.66855162  0.03636850499999998  0.5212857348500909  1.0000
  As  As11      1.0  0.15936767  0.4696788049999999  0.5045173171828555  1.0000
  As  As12      1.0  0.8514745699999999  0.5477624149999999  0.49298387612403594  1.0000
  Ca  Ca13      1.0  0.28399889  0.733178555  0.4471591884219958  1.0000
  Ca  Ca14      1.0  0.71600111  0.278215355  0.46859550351746876  1.0000
  Ca  Ca15      1.0  0.21600110999999997  0.23317855499999998  0.4704415744664203  1.0000
  Ca  Ca16      1.0  0.7839988899999999  0.7782153550000002  0.48630339540023987  1.0000
  Ca  Ca17      1.0  0.3912778499999999  0.4430490349999999  0.4546542836955391  1.0000
  Ca  Ca18      1.0  0.60872215  0.568344875  0.4611004082439254  1.0000
  Ca  Ca19      1.0  0.10872215  0.943049035  0.48673145851224464  1.0000
  Ca  Ca20      1.0  0.89127785  0.06834487499999997  0.4700135113544155  1.0000
  Ca  Ca21      1.0  0.99920656  0.6542280950000001  0.46206910360878983  1.0000
  Ca  Ca22      1.0  0.0007934400000000117  0.35716581499999994  0.45368558505145246  1.0000
  Ca  Ca23      1.0  0.50079344  0.154228095  0.4620040569565527  1.0000
  Ca  Ca24      1.0  0.49920656  0.857165815  0.45375063170368957  1.0000
  Ga  Ga5       1.0  0.7979227899999999  0.44252773499999987  0.4789974391067193  1.0000
  Ga  Ga6       1.0  0.20207721  0.568866175  0.47774752748071864  1.0000
  Ga  Ga7       1.0  0.7020772099999999  0.942527735  0.4624310379252202  1.0000
  Ga  Ga8       1.0  0.29792278999999994  0.06886617499999997  0.45332365401424424  1.0000
  As  As13      1.0  0.61265484  0.39793430499999993  0.4474292422106468  1.0000
  As  As14      1.0  0.38734516  0.613459605  0.46832544644959545  1.0000
  As  As15      1.0  0.88734516  0.897934305  0.4566647486135343  1.0000
  As  As16      1.0  0.11265484000000002  0.11345960499999999  0.459089940046708  1.0000
  As  As17      1.0  0.87843801  0.255137615  0.4833782701413549  1.0000
  As  As18      1.0  0.12156199  0.7562562949999999  0.473366696446083  1.0000
  As  As19      1.0  0.62156199  0.755137615  0.4734125530898057  1.0000
  As  As20      1.0  0.37843801  0.256256295  0.4833324167768544  1.0000
  As  As21      1.0  0.35147456999999993  0.963631495  0.47593728859311996  1.0000
  As  As22      1.0  0.6485254299999998  0.047762414999999975  0.4808076812735402  1.0000
  As  As23      1.0  0.14852542999999999  0.46363149499999995  0.4637610904634019  1.0000
  As  As24      1.0  0.8514745699999999  0.5477624149999999  0.4519935981968404  1.0000
