data_image0
_chemical_formula_structural       COCa12Al12Si12Ca12Al12Si12
_chemical_formula_sum              "C1 O1 Ca24 Al24 Si24"
_cell_length_a       26.45974913
_cell_length_b       7.34450238
_cell_length_c       99.682453
_cell_angle_alpha    90.0
_cell_angle_beta     90.0
_cell_angle_gamma    90.0

_space_group_name_H-M_alt    "P 1"
_space_group_IT_number       1

loop_
  _space_group_symop_operation_xyz
  'x, y, z'

loop_
  _atom_site_type_symbol
  _atom_site_label
  _atom_site_symmetry_multiplicity
  _atom_site_fract_x
  _atom_site_fract_y
  _atom_site_fract_z
  _atom_site_occupancy
  C   C1        1.0  0.03934092499999998  0.010797369999999983  0.5396641313343046  1.0000
  O   O1        1.0  0.039338054999999976  0.010791409999999984  0.551221996979251  1.0000
  Ca  Ca1       1.0  0.706421825  0.51079493  0.44877800302074905  1.0000
  Ca  Ca2       1.0  0.706421825  0.010794929999999984  0.4700472947373384  1.0000
  Ca  Ca3       1.0  0.206421825  0.51079493  0.44877800302074905  1.0000
  Ca  Ca4       1.0  0.206421825  0.010794929999999984  0.4700472947373384  1.0000
  Ca  Ca5       1.0  0.8722918850000001  0.51079493  0.44877800302074905  1.0000
  Ca  Ca6       1.0  0.8722918850000001  0.010794929999999984  0.4700472947373384  1.0000
  Ca  Ca7       1.0  0.039356854999999975  0.51079493  0.44877800302074905  1.0000
  Ca  Ca8       1.0  0.039356854999999975  0.010794929999999984  0.4700472947373384  1.0000
  Ca  Ca9       1.0  0.37229188500000004  0.51079493  0.44877800302074905  1.0000
  Ca  Ca10      1.0  0.37229188500000004  0.010794929999999984  0.4700472947373384  1.0000
  Ca  Ca11      1.0  0.5393568550000001  0.51079493  0.44877800302074905  1.0000
  Ca  Ca12      1.0  0.5393568550000001  0.010794929999999984  0.4700472947373384  1.0000
  Al  Al1       1.0  0.6294143750000001  0.3441282599999999  0.4700472947373384  1.0000
  Al  Al2       1.0  0.6294143750000001  0.84412826  0.44877800302074905  1.0000
  Al  Al3       1.0  0.789356855  0.3441282599999999  0.4700472947373384  1.0000
  Al  Al4       1.0  0.789356855  0.84412826  0.44877800302074905  1.0000
  Al  Al5       1.0  0.9492993350000001  0.3441282599999999  0.4700472947373384  1.0000
  Al  Al6       1.0  0.9492993350000001  0.84412826  0.44877800302074905  1.0000
  Al  Al7       1.0  0.12941437499999997  0.6774616  0.4700472947373384  1.0000
  Al  Al8       1.0  0.12941437499999997  0.17746159999999997  0.44877800302074905  1.0000
  Al  Al9       1.0  0.28935685499999997  0.6774616  0.4700472947373384  1.0000
  Al  Al10      1.0  0.28935685499999997  0.17746159999999997  0.44877800302074905  1.0000
  Al  Al11      1.0  0.449299335  0.6774616  0.4700472947373384  1.0000
  Al  Al12      1.0  0.449299335  0.17746159999999997  0.44877800302074905  1.0000
  Si  Si1       1.0  0.460661945  0.3441282599999999  0.4700472947373384  1.0000
  Si  Si2       1.0  0.460661945  0.84412826  0.44877800302074905  1.0000
  Si  Si3       1.0  0.11805176499999998  0.3441282599999999  0.4700472947373384  1.0000
  Si  Si4       1.0  0.11805176499999998  0.84412826  0.44877800302074905  1.0000
  Si  Si5       1.0  0.28935685499999997  0.3441282599999999  0.4700472947373384  1.0000
  Si  Si6       1.0  0.28935685499999997  0.84412826  0.44877800302074905  1.0000
  Si  Si7       1.0  0.789356855  0.6774616  0.4700472947373384  1.0000
  Si  Si8       1.0  0.789356855  0.17746159999999997  0.44877800302074905  1.0000
  Si  Si9       1.0  0.9606619450000001  0.6774616  0.4700472947373384  1.0000
  Si  Si10      1.0  0.9606619450000001  0.17746159999999997  0.44877800302074905  1.0000
  Si  Si11      1.0  0.618051765  0.6774616  0.4700472947373384  1.0000
  Si  Si12      1.0  0.618051765  0.17746159999999997  0.44877800302074905  1.0000
  Ca  Ca13      1.0  0.706775565  0.51114122  0.49273642868551143  1.0000
  Ca  Ca14      1.0  0.705582185  0.9892149800000001  0.5139729180489877  1.0000
  Ca  Ca15      1.0  0.207139935  0.5090344299999999  0.4924618370193284  1.0000
  Ca  Ca16      1.0  0.20606504499999997  0.03419577999999998  0.5140439570593561  1.0000
  Ca  Ca17      1.0  0.8715644250000001  0.51256018  0.4924598776921363  1.0000
  Ca  Ca18      1.0  0.872639295  0.98740201  0.5140431411693096  1.0000
  Ca  Ca19      1.0  0.039351264999999976  0.51078945  0.4925193006912942  1.0000
  Ca  Ca20      1.0  0.03935431499999998  0.010803069999999982  0.5132988320746755  1.0000
  Ca  Ca21      1.0  0.371947055  0.5104351199999999  0.49273756616725517  1.0000
  Ca  Ca22      1.0  0.373143775  0.03237446999999999  0.5139732575068904  1.0000
  Ca  Ca23      1.0  0.539364365  0.51079462  0.49228253475964234  1.0000
  Ca  Ca24      1.0  0.539367265  0.010785019999999982  0.5136483724725084  1.0000
  Al  Al13      1.0  0.6248482449999999  0.3495573799999999  0.515291056906336  1.0000
  Al  Al14      1.0  0.623505835  0.84579176  0.49174106367260695  1.0000
  Al  Al15      1.0  0.7906492250000001  0.34493103999999997  0.5150793781047657  1.0000
  Al  Al16      1.0  0.789285265  0.8451992600000001  0.49174864489909803  1.0000
  Al  Al17      1.0  0.9506756150000001  0.34982457  0.5151566970863318  1.0000
  Al  Al18      1.0  0.9545308350000001  0.84536964  0.49171426436450805  1.0000
  Al  Al19      1.0  0.12801286499999998  0.6717739500000001  0.5151575874189009  1.0000
  Al  Al20      1.0  0.12417220499999997  0.17622517  0.49171534526993477  1.0000
  Al  Al21      1.0  0.288073245  0.6766509500000001  0.5150798307153024  1.0000
  Al  Al22      1.0  0.289424765  0.17638726000000002  0.4917491034650367  1.0000
  Al  Al23      1.0  0.4538813450000001  0.67203484  0.5152904792323615  1.0000
  Al  Al24      1.0  0.455231565  0.17579970999999997  0.49174099220778533  1.0000
  Si  Si13      1.0  0.459925055  0.33418549  0.5130558725251518  1.0000
  Si  Si14      1.0  0.456787525  0.8356191  0.49224592392707833  1.0000
  Si  Si15      1.0  0.12002815499999998  0.3352846599999999  0.5129804354505544  1.0000
  Si  Si16      1.0  0.12189484499999999  0.83592136  0.49220903021292883  1.0000
  Si  Si17      1.0  0.28974155500000004  0.33937887999999994  0.5129552649448477  1.0000
  Si  Si18      1.0  0.289674675  0.83711406  0.4923064069877566  1.0000
  Si  Si19      1.0  0.7889714950000001  0.68220207  0.5129550713942892  1.0000
  Si  Si20      1.0  0.789038445  0.18447206  0.4923055821646074  1.0000
  Si  Si21      1.0  0.958686695  0.6863203  0.5129799024420932  1.0000
  Si  Si22      1.0  0.956817745  0.18567377999999998  0.4922090778561433  1.0000
  Si  Si23      1.0  0.618804925  0.68741209  0.5130563489572959  1.0000
  Si  Si24      1.0  0.6219299050000001  0.18597781  0.4922462425410746  1.0000
