data_image0
_chemical_formula_structural       COCa8Ga8Ge8Ca8Ga8Ge8
_chemical_formula_sum              "C1 O1 Ca16 Ga16 Ge16"
_cell_length_a       7.43652471
_cell_length_b       18.356273753984723
_cell_length_c       100.05435678
_cell_angle_alpha    103.5266206167937
_cell_angle_beta     90.0
_cell_angle_gamma    90.0

_space_group_name_H-M_alt    "P 1"
_space_group_IT_number       1

loop_
  _space_group_symop_operation_xyz
  'x, y, z'

loop_
  _atom_site_type_symbol
  _atom_site_label
  _atom_site_symmetry_multiplicity
  _atom_site_fract_x
  _atom_site_fract_y
  _atom_site_fract_z
  _atom_site_occupancy
  C   C1        1.0  0.7458975799999998  0.12996014500000003  0.5433432854410365  1.0000
  O   O1        1.0  0.7660966499999999  0.12811816500000003  0.5548410709934537  1.0000
  Ca  Ca1       1.0  0.02297757999999998  0.008165255000000031  0.47734253244472524  1.0000
  Ca  Ca2       1.0  0.5229775799999999  0.008165255000000031  0.45588679481673733  1.0000
  Ca  Ca3       1.0  0.02297757999999998  0.5081652550000001  0.4558867948167374  1.0000
  Ca  Ca4       1.0  0.5229775799999999  0.5081652550000001  0.4773425324447253  1.0000
  Ca  Ca5       1.0  0.02297757999999998  0.7581652550000001  0.4666146636307313  1.0000
  Ca  Ca6       1.0  0.5229775799999999  0.7581652550000001  0.4451589290065463  1.0000
  Ca  Ca7       1.0  0.02297757999999998  0.25816525500000004  0.4451589290065463  1.0000
  Ca  Ca8       1.0  0.5229775799999999  0.25816525500000004  0.4666146636307313  1.0000
  Ga  Ga1       1.0  0.3563109099999999  0.8560885650000001  0.4708166955331915  1.0000
  Ga  Ga2       1.0  0.8563109099999998  0.8560885650000001  0.4493609609090065  1.0000
  Ga  Ga3       1.0  0.18964425  0.356088565  0.4708166955331915  1.0000
  Ga  Ga4       1.0  0.6896442499999998  0.356088565  0.4493609609090065  1.0000
  Ga  Ga5       1.0  0.18964425  0.16024194500000002  0.46241263172827113  1.0000
  Ga  Ga6       1.0  0.6896442499999998  0.16024194500000002  0.4838683663524561  1.0000
  Ga  Ga7       1.0  0.3563109099999999  0.6602419450000001  0.46241263172827113  1.0000
  Ga  Ga8       1.0  0.8563109099999998  0.6602419450000001  0.48386836635245617  1.0000
  Ge  Ge1       1.0  0.3563109099999999  0.39826934500000005  0.45117100147639366  1.0000
  Ge  Ge2       1.0  0.8563109099999998  0.39826934500000005  0.47262673610057865  1.0000
  Ge  Ge3       1.0  0.18964425  0.898269345  0.4511710014763936  1.0000
  Ge  Ge4       1.0  0.6896442499999998  0.898269345  0.4726267361005786  1.0000
  Ge  Ge5       1.0  0.18964425  0.618061165  0.482058325785069  1.0000
  Ge  Ge6       1.0  0.6896442499999998  0.618061165  0.460602591160884  1.0000
  Ge  Ge7       1.0  0.3563109099999999  0.11806116500000002  0.48205832578506896  1.0000
  Ge  Ge8       1.0  0.8563109099999998  0.11806116500000002  0.460602591160884  1.0000
  Ca  Ca9       1.0  0.010795509999999982  6.413500000003042e-05  0.5184575413186528  1.0000
  Ca  Ca10      1.0  0.5250368599999999  0.999935865  0.49860136178072034  1.0000
  Ca  Ca11      1.0  0.02703583999999998  0.506182915  0.4953958234699932  1.0000
  Ca  Ca12      1.0  0.5184925599999999  0.5071799750000001  0.5182226799769242  1.0000
  Ca  Ca13      1.0  0.9892044899999999  0.755806635  0.5127153485248291  1.0000
  Ca  Ca14      1.0  0.5229775799999999  0.7581652550000001  0.4880703982549163  1.0000
  Ca  Ca15      1.0  0.02297757999999998  0.25816525500000004  0.48807039825491627  1.0000
  Ca  Ca16      1.0  0.5208406999999999  0.27304262500000004  0.5119555065413577  1.0000
  Ga  Ga9       1.0  0.35186466999999993  0.8604248250000001  0.516099784325316  1.0000
  Ga  Ga10      1.0  0.8563109099999998  0.8560885650000001  0.49227243316117936  1.0000
  Ga  Ga11      1.0  0.16917651999999997  0.424990305  0.5191066661307581  1.0000
  Ga  Ga12      1.0  0.6896442499999998  0.356088565  0.49227243316117947  1.0000
  Ga  Ga13      1.0  0.20263705999999998  0.14008841500000005  0.5059690324798878  1.0000
  Ga  Ga14      1.0  0.6471307099999998  0.12652854500000002  0.5236516031617254  1.0000
  Ga  Ga15      1.0  0.34717525999999993  0.6544756950000001  0.5074165921352198  1.0000
  Ga  Ga16      1.0  0.8724958299999999  0.5728766450000001  0.5237904599587287  1.0000
  Ge  Ge9       1.0  0.3563109099999999  0.39826934500000005  0.49408247072476363  1.0000
  Ge  Ge10      1.0  0.8341821999999999  0.41125818500000005  0.5171348707768042  1.0000
  Ge  Ge11      1.0  0.18964425  0.898269345  0.49408247072476363  1.0000
  Ge  Ge12      1.0  0.6943733  0.887661585  0.5156968722261266  1.0000
  Ge  Ge13      1.0  0.19533887999999996  0.5960748250000001  0.5268729655061691  1.0000
  Ge  Ge14      1.0  0.6878576399999998  0.6236955850000001  0.5041982185746692  1.0000
  Ge  Ge15      1.0  0.31992009999999993  0.14474968500000004  0.5293392048415088  1.0000
  Ge  Ge16      1.0  0.8603862099999999  0.12785601500000002  0.5039354879495651  1.0000
