data_image0
_chemical_formula_structural       CORu8Zn24
_chemical_formula_sum              "C1 O1 Ru8 Zn24"
_cell_length_a       5.41017031
_cell_length_b       8.313924113086276
_cell_length_c       102.46102186
_cell_angle_alpha    90.0
_cell_angle_beta     90.0
_cell_angle_gamma    108.98787382237543

_space_group_name_H-M_alt    "P 1"
_space_group_IT_number       1

loop_
  _space_group_symop_operation_xyz
  'x, y, z'

loop_
  _atom_site_type_symbol
  _atom_site_label
  _atom_site_symmetry_multiplicity
  _atom_site_fract_x
  _atom_site_fract_y
  _atom_site_fract_z
  _atom_site_occupancy
  C   C1        1.0  0.44196709999999984  0.870006575  0.5463662563994336  1.0000
  O   O1        1.0  0.43690808999999986  0.8596730949999999  0.5579179499324107  1.0000
  Ru  Ru1       1.0  0.9508268199999999  0.8874262549999998  0.4948842766644067  1.0000
  Ru  Ru2       1.0  0.44827747999999984  0.883015035  0.5283679968458378  1.0000
  Ru  Ru3       1.0  0.68912775  0.36457914500000005  0.520639062170215  1.0000
  Ru  Ru4       1.0  0.18494543999999988  0.355663495  0.4948842766644067  1.0000
  Ru  Ru5       1.0  0.9508268199999999  0.8874262549999998  0.44208205006758927  1.0000
  Ru  Ru6       1.0  0.45082681999999985  0.8874262549999998  0.468483163365998  1.0000
  Ru  Ru7       1.0  0.6849454399999999  0.355663495  0.468483163365998  1.0000
  Ru  Ru8       1.0  0.18494543999999988  0.355663495  0.44208205006758927  1.0000
  Zn  Zn1       1.0  0.6968597999999999  0.3794922150000001  0.4948842766644067  1.0000
  Zn  Zn2       1.0  0.19485949999999994  0.37654835500000006  0.5205978795999557  1.0000
  Zn  Zn3       1.0  0.9473671399999999  0.8813699249999999  0.52334052979542  1.0000
  Zn  Zn4       1.0  0.43891245999999995  0.863597535  0.4948842766644067  1.0000
  Zn  Zn5       1.0  0.3262415999999999  0.15581829500000005  0.5351900500752513  1.0000
  Zn  Zn6       1.0  0.8086993299999997  0.11257374500000006  0.5084757509177015  1.0000
  Zn  Zn7       1.0  0.84276753  0.15586615500000006  0.5351932118727064  1.0000
  Zn  Zn8       1.0  0.31784429999999997  0.11262206500000006  0.5084789602371624  1.0000
  Zn  Zn9       1.0  0.5724711399999999  0.6079606949999999  0.5328647476394577  1.0000
  Zn  Zn10      1.0  0.06676812999999991  0.627185555  0.5072852803175871  1.0000
  Zn  Zn11      1.0  0.049173179999999976  0.6081529450000001  0.5328795016382035  1.0000
  Zn  Zn12      1.0  0.5737793199999999  0.627100005  0.5072857460332443  1.0000
  Zn  Zn13      1.0  0.6968597999999999  0.3794922150000001  0.44208205006758927  1.0000
  Zn  Zn14      1.0  0.19685979999999995  0.3794922150000001  0.468483163365998  1.0000
  Zn  Zn15      1.0  0.9389124599999998  0.863597535  0.468483163365998  1.0000
  Zn  Zn16      1.0  0.43891245999999995  0.863597535  0.44208205006758927  1.0000
  Zn  Zn17      1.0  0.31788612999999993  0.12154487500000005  0.48168372159926925  1.0000
  Zn  Zn18      1.0  0.8178861300000001  0.12154487500000005  0.4552826051327268  1.0000
  Zn  Zn19      1.0  0.8178861300000001  0.12154487500000005  0.48168372159926925  1.0000
  Zn  Zn20      1.0  0.31788612999999993  0.12154487500000005  0.4552826051327268  1.0000
  Zn  Zn21      1.0  0.5678861299999999  0.621544875  0.48168372159926925  1.0000
  Zn  Zn22      1.0  0.06788612999999988  0.621544875  0.4552826051327268  1.0000
  Zn  Zn23      1.0  0.06788612999999988  0.621544875  0.48168372159926925  1.0000
  Zn  Zn24      1.0  0.5678861299999999  0.621544875  0.4552826051327268  1.0000
