data_image0
_chemical_formula_structural       CONa24Cu12As12
_chemical_formula_sum              "C1 O1 Na24 Cu12 As12"
_cell_length_a       17.127978490091206
_cell_length_b       5.39925657
_cell_length_c       104.75528195
_cell_angle_alpha    90.0
_cell_angle_beta     82.77989919889698
_cell_angle_gamma    90.0

_space_group_name_H-M_alt    "P 1"
_space_group_IT_number       1

loop_
  _space_group_symop_operation_xyz
  'x, y, z'

loop_
  _atom_site_type_symbol
  _atom_site_label
  _atom_site_symmetry_multiplicity
  _atom_site_fract_x
  _atom_site_fract_y
  _atom_site_fract_z
  _atom_site_occupancy
  C   C1        1.0  0.741533095  0.176127725  0.5510145550332857  1.0000
  O   O1        1.0  0.733838255  0.08467990500000001  0.5612033144690751  1.0000
  Na  Na1       1.0  0.265253135  0.9048372050000001  0.5399852744356693  1.0000
  Na  Na2       1.0  0.892021505  0.9039465750000002  0.5017339672213151  1.0000
  Na  Na3       1.0  0.5586881750000001  0.9039465750000002  0.4648699744570107  1.0000
  Na  Na4       1.0  0.42517152499999994  0.4037254150000001  0.5301825528927686  1.0000
  Na  Na5       1.0  0.10644572499999999  0.40394657500000003  0.48667888421202876  1.0000
  Na  Na6       1.0  0.773112385  0.40394657500000003  0.4498148914477243  1.0000
  Na  Na7       1.0  0.32292705499999996  0.40394657500000003  0.438796685530925  1.0000
  Na  Na8       1.0  0.9911264950000002  0.408138675  0.5117093051493408  1.0000
  Na  Na9       1.0  0.656260385  0.40394657500000003  0.47566067829522934  1.0000
  Na  Na10      1.0  0.354292805  0.9033977350000001  0.5131670722198667  1.0000
  Na  Na11      1.0  0.00887350499999998  0.9039465750000002  0.4758881803738101  1.0000
  Na  Na12      1.0  0.675540175  0.9039465750000002  0.43902418760950573  1.0000
  Na  Na13      1.0  0.563673145  0.9123132850000002  0.51942400477848  1.0000
  Na  Na14      1.0  0.22535484499999997  0.9039465750000002  0.48330197249804263  1.0000
  Na  Na15      1.0  0.892021505  0.9039465750000002  0.4464379797337383  1.0000
  Na  Na16      1.0  0.09296314499999998  0.40939876500000005  0.5391307523292506  1.0000
  Na  Na17      1.0  0.773112385  0.40394657500000003  0.5051108822530604  1.0000
  Na  Na18      1.0  0.439779055  0.40394657500000003  0.46824688948875615  1.0000
  Na  Na19      1.0  0.32292705499999996  0.40394657500000003  0.49409267633626125  1.0000
  Na  Na20      1.0  0.9895937250000001  0.40394657500000003  0.45722868357195684  1.0000
  Na  Na21      1.0  0.654628785  0.43358747500000006  0.5334114593607252  1.0000
  Na  Na22      1.0  0.34220684500000004  0.9039465750000002  0.4574561823327782  1.0000
  Na  Na23      1.0  0.9814527850000001  0.9153200950000001  0.5309970097368909  1.0000
  Na  Na24      1.0  0.675540175  0.9039465750000002  0.494320178414842  1.0000
  Cu  Cu1       1.0  0.49923361499999996  0.6539465750000001  0.4942064257166719  1.0000
  Cu  Cu2       1.0  0.16590028499999995  0.6539465750000001  0.4573424329523676  1.0000
  Cu  Cu3       1.0  0.834447045  0.655960515  0.5294420953539016  1.0000
  Cu  Cu4       1.0  0.49923361499999996  0.15394657500000003  0.4942064257166719  1.0000
  Cu  Cu5       1.0  0.16590028499999995  0.15394657500000003  0.4573424329523676  1.0000
  Cu  Cu6       1.0  0.812314725  0.16134237500000004  0.5344906335904158  1.0000
  Cu  Cu7       1.0  0.16390281499999995  0.6572543150000001  0.5132665751414912  1.0000
  Cu  Cu8       1.0  0.832566945  0.6539465750000001  0.47577443099339944  1.0000
  Cu  Cu9       1.0  0.49923361499999996  0.6539465750000001  0.43891043822909503  1.0000
  Cu  Cu10      1.0  0.16335550499999996  0.15361879500000003  0.5132424185354311  1.0000
  Cu  Cu11      1.0  0.832566945  0.15394657500000003  0.47577443099339944  1.0000
  Cu  Cu12      1.0  0.49923361499999996  0.15394657500000003  0.43891043822909503  1.0000
  As  As1       1.0  0.40921194499999997  0.9039465750000002  0.48425075214850316  1.0000
  As  As2       1.0  0.07587861499999998  0.9039465750000002  0.4473867593841988  1.0000
  As  As3       1.0  0.7436148050000001  0.8995517550000001  0.5203339135600215  1.0000
  As  As4       1.0  0.589255285  0.40394657500000003  0.5041620992848406  1.0000
  As  As5       1.0  0.255921945  0.40394657500000003  0.46729810652053627  1.0000
  As  As6       1.0  0.922817625  0.410809185  0.5392457525049482  1.0000
  As  As7       1.0  0.434015355  0.9029071250000001  0.5389095108626236  1.0000
  As  As8       1.0  0.07587861499999998  0.9039465750000002  0.502682750189535  1.0000
  As  As9       1.0  0.7425452849999999  0.9039465750000002  0.4658187541074713  1.0000
  As  As10      1.0  0.24822491499999996  0.40450577500000007  0.5240684565110677  1.0000
  As  As11      1.0  0.922588615  0.40394657500000003  0.4857301045615682  1.0000
  As  As12      1.0  0.589255285  0.40394657500000003  0.44886611179726377  1.0000
