data_image0
_chemical_formula_structural       COCa10Zn6
_chemical_formula_sum              "C1 O1 Ca10 Zn6"
_cell_length_a       9.614170913948444
_cell_length_b       8.01733263
_cell_length_c       98.62992292999999
_cell_angle_alpha    90.0
_cell_angle_beta     84.96225562438592
_cell_angle_gamma    114.64242492902754

_space_group_name_H-M_alt    "P 1"
_space_group_IT_number       1

loop_
  _space_group_symop_operation_xyz
  'x, y, z'

loop_
  _atom_site_type_symbol
  _atom_site_label
  _atom_site_symmetry_multiplicity
  _atom_site_fract_x
  _atom_site_fract_y
  _atom_site_fract_z
  _atom_site_occupancy
  C   C1        1.0  0.307111235  0.25814380499999995  0.5242213110842535  1.0000
  O   O1        1.0  0.323128985  0.17429659499999997  0.5353097733699442  1.0000
  Ca  Ca1       1.0  0.12808377499999998  0.09035889499999998  0.47320299238886027  1.0000
  Ca  Ca2       1.0  0.8911315449999998  0.4704869749999999  0.5103720953647652  1.0000
  Ca  Ca3       1.0  0.4990997749999999  0.10248584499999995  0.5223951890798594  1.0000
  Ca  Ca4       1.0  0.5473507249999999  0.608641825  0.5127937306813769  1.0000
  Ca  Ca5       1.0  0.7426654349999999  0.0680935749999999  0.4864441345433357  1.0000
  Ca  Ca6       1.0  0.18840059499999995  0.291331305  0.5051577791309967  1.0000
  Ca  Ca7       1.0  0.08275156499999999  0.958007065  0.5308579924926707  1.0000
  Ca  Ca8       1.0  0.433945965  0.5728461449999999  0.4715084787277723  1.0000
  Ca  Ca9       1.0  0.263502115  0.8285119149999999  0.49624637991803794  1.0000
  Ca  Ca10      1.0  0.822221585  0.6078716550000001  0.4748975031471859  1.0000
  Zn  Zn1       1.0  0.22687373499999997  0.6424877049999999  0.5236285728128661  1.0000
  Zn  Zn2       1.0  0.5030837749999999  0.27785889499999994  0.49134525723068684  1.0000
  Zn  Zn3       1.0  0.814396735  0.04199293499999998  0.5167048459415026  1.0000
  Zn  Zn4       1.0  0.18673663499999996  0.7369910450000001  0.46469022663005566  1.0000
  Zn  Zn5       1.0  0.069430915  0.443726745  0.4817157581476648  1.0000
  Zn  Zn6       1.0  0.930569085  0.8664636549999999  0.5006908661534638  1.0000
