data_image0
_chemical_formula_structural       COCa4Mn4Sb8Ca4Mn4Sb8Ca4Mn4Sb8Ca4Mn4Sb8
_chemical_formula_sum              "C1 O1 Ca16 Mn16 Sb32"
_cell_length_a       21.12262487078378
_cell_length_b       8.5894288
_cell_length_c       100.10643461000001
_cell_angle_alpha    90.0
_cell_angle_beta     78.25146587897697
_cell_angle_gamma    90.0

_space_group_name_H-M_alt    "P 1"
_space_group_IT_number       1

loop_
  _space_group_symop_operation_xyz
  'x, y, z'

loop_
  _atom_site_type_symbol
  _atom_site_label
  _atom_site_symmetry_multiplicity
  _atom_site_fract_x
  _atom_site_fract_y
  _atom_site_fract_z
  _atom_site_occupancy
  C   C1        1.0  0.8448007600000002  0.11903553999999995  0.5459112638503941  1.0000
  O   O1        1.0  0.84939109  0.11949895999999996  0.5573768195977057  1.0000
  Ca  Ca1       1.0  0.8677593700000001  0.35788213999999996  0.5249202474984762  1.0000
  Ca  Ca2       1.0  0.12008057000000007  0.11935299999999999  0.49436150995992373  1.0000
  Ca  Ca3       1.0  0.6306194500000001  0.11934690999999996  0.5138819170031296  1.0000
  Ca  Ca4       1.0  0.3678585800000001  0.36951155999999996  0.506273000259001  1.0000
  Mn  Mn1       1.0  0.7673359200000001  0.37235687  0.500640102558256  1.0000
  Mn  Mn2       1.0  0.23120526000000008  0.1194527  0.5032657081298234  1.0000
  Mn  Mn3       1.0  0.7501137800000001  0.11935299999999999  0.4875232864460641  1.0000
  Mn  Mn4       1.0  0.2498862200000001  0.369353  0.4888256894956783  1.0000
  Sb  Sb1       1.0  0.9961417800000001  0.3700691  0.5032088614516638  1.0000
  Sb  Sb2       1.0  0.99684041  0.11935274999999998  0.5233016178847351  1.0000
  Sb  Sb3       1.0  0.4926302300000001  0.11935083  0.5038257871542836  1.0000
  Sb  Sb4       1.0  0.4977487900000001  0.36908324  0.5237443284581393  1.0000
  Sb  Sb5       1.0  0.6749286900000001  0.369353  0.4907623320943922  1.0000
  Sb  Sb6       1.0  0.3250713100000001  0.11935299999999999  0.4855866438473502  1.0000
  Sb  Sb7       1.0  0.80230175  0.11939389999999997  0.5091458717381406  1.0000
  Sb  Sb8       1.0  0.19484456000000008  0.36937833  0.5153271074078206  1.0000
  Ca  Ca5       1.0  0.8799194300000001  0.369353  0.4819874659818185  1.0000
  Ca  Ca6       1.0  0.12008057000000007  0.11935299999999999  0.4513980465148678  1.0000
  Ca  Ca7       1.0  0.6200805700000002  0.11935299999999999  0.47166930969760396  1.0000
  Ca  Ca8       1.0  0.3799194300000001  0.369353  0.4617162027990825  1.0000
  Mn  Mn5       1.0  0.7498862200000002  0.369353  0.4660513319191079  1.0000
  Mn  Mn6       1.0  0.2501137800000001  0.11935299999999999  0.4673341805775786  1.0000
  Mn  Mn7       1.0  0.7501137800000001  0.11935299999999999  0.44455982300100816  1.0000
  Mn  Mn8       1.0  0.2498862200000001  0.369353  0.44586222605062237  1.0000
  Sb  Sb9       1.0  0.99925901  0.369353  0.4552759330993227  1.0000
  Sb  Sb10      1.0  0.0007409900000000684  0.11935299999999999  0.47810957939736376  1.0000
  Sb  Sb11      1.0  0.5007409900000002  0.11935299999999999  0.4552122625341276  1.0000
  Sb  Sb12      1.0  0.49925901000000017  0.369353  0.47817324996255883  1.0000
  Sb  Sb13      1.0  0.6749286900000001  0.369353  0.44779886864933627  1.0000
  Sb  Sb14      1.0  0.3250713100000001  0.11935299999999999  0.44262318040229426  1.0000
  Sb  Sb15      1.0  0.8250713100000001  0.11935299999999999  0.46282995198803234  1.0000
  Sb  Sb16      1.0  0.17492869000000005  0.369353  0.470555560508654  1.0000
  Ca  Ca9       1.0  0.86774088  0.8809644600000001  0.5249247586622282  1.0000
  Ca  Ca10      1.0  0.12008057000000007  0.619353  0.49436150995992373  1.0000
  Ca  Ca11      1.0  0.6308212700000001  0.61935207  0.5139223280080196  1.0000
  Ca  Ca12      1.0  0.3678662800000001  0.86918748  0.5062725371128559  1.0000
  Mn  Mn9       1.0  0.7673439900000001  0.86642216  0.500643479916185  1.0000
  Mn  Mn10      1.0  0.23116740000000008  0.61936066  0.5032802430994322  1.0000
  Mn  Mn11      1.0  0.7501137800000001  0.619353  0.4875232864460641  1.0000
  Mn  Mn12      1.0  0.2498862200000001  0.869353  0.4888256894956783  1.0000
  Sb  Sb17      1.0  0.9961356600000001  0.8686419000000001  0.5032105335896945  1.0000
  Sb  Sb18      1.0  0.9880861000000001  0.6193544299999999  0.5238246782994467  1.0000
  Sb  Sb19      1.0  0.4927930500000001  0.61935083  0.5038431431049585  1.0000
  Sb  Sb20      1.0  0.4977478000000001  0.86961842  0.5237444096590869  1.0000
  Sb  Sb21      1.0  0.6749286900000001  0.869353  0.4907623320943922  1.0000
  Sb  Sb22      1.0  0.3250713100000001  0.619353  0.4855866438473502  1.0000
  Sb  Sb23      1.0  0.80060563  0.6193883899999999  0.5103847335425872  1.0000
  Sb  Sb24      1.0  0.1948556500000001  0.86943767  0.5153183858245668  1.0000
  Ca  Ca13      1.0  0.8799194300000001  0.869353  0.4819874659818185  1.0000
  Ca  Ca14      1.0  0.12008057000000007  0.619353  0.4513980465148678  1.0000
  Ca  Ca15      1.0  0.6200805700000002  0.619353  0.47166930969760396  1.0000
  Ca  Ca16      1.0  0.3799194300000001  0.869353  0.4617162027990825  1.0000
  Mn  Mn13      1.0  0.7498862200000002  0.869353  0.4660513319191079  1.0000
  Mn  Mn14      1.0  0.2501137800000001  0.619353  0.4673341805775786  1.0000
  Mn  Mn15      1.0  0.7501137800000001  0.619353  0.44455982300100816  1.0000
  Mn  Mn16      1.0  0.2498862200000001  0.869353  0.44586222605062237  1.0000
  Sb  Sb25      1.0  0.99925901  0.869353  0.4552759330993227  1.0000
  Sb  Sb26      1.0  0.0007409900000000684  0.619353  0.47810957939736376  1.0000
  Sb  Sb27      1.0  0.5007409900000002  0.619353  0.4552122625341276  1.0000
  Sb  Sb28      1.0  0.49925901000000017  0.869353  0.47817324996255883  1.0000
  Sb  Sb29      1.0  0.6749286900000001  0.869353  0.44779886864933627  1.0000
  Sb  Sb30      1.0  0.3250713100000001  0.619353  0.44262318040229426  1.0000
  Sb  Sb31      1.0  0.8250713100000001  0.619353  0.46282995198803234  1.0000
  Sb  Sb32      1.0  0.17492869000000005  0.869353  0.470555560508654  1.0000
