data_image0
_chemical_formula_structural       COAu8Pd8Zn16Au8Pd8Zn16
_chemical_formula_sum              "C1 O1 Au16 Pd16 Zn32"
_cell_length_a       8.93603188
_cell_length_b       10.94435922
_cell_length_c       100.95532247
_cell_angle_alpha    90.0
_cell_angle_beta     90.0
_cell_angle_gamma    90.0

_space_group_name_H-M_alt    "P 1"
_space_group_IT_number       1

loop_
  _space_group_symop_operation_xyz
  'x, y, z'

loop_
  _atom_site_type_symbol
  _atom_site_label
  _atom_site_symmetry_multiplicity
  _atom_site_fract_x
  _atom_site_fract_y
  _atom_site_fract_z
  _atom_site_occupancy
  C   C1        1.0  0.17675961999999998  0.34137014999999993  0.5481242023755821  1.0000
  O   O1        1.0  0.21883626999999997  0.32711653999999996  0.5589479214435178  1.0000
  Au  Au1       1.0  0.37290088  0.54311276  0.4410520785564822  1.0000
  Au  Au2       1.0  0.37290088  0.20977942999999993  0.4666040756135515  1.0000
  Au  Au3       1.0  0.37290088  0.8764461000000001  0.49215607267062084  1.0000
  Au  Au4       1.0  0.37696961  0.53366827  0.5185704496628615  1.0000
  Au  Au5       1.0  0.12290087999999998  0.8764461000000001  0.45382807555189697  1.0000
  Au  Au6       1.0  0.12290087999999998  0.54311276  0.4793800756752061  1.0000
  Au  Au7       1.0  0.12245531  0.21990623999999995  0.5045335014233576  1.0000
  Au  Au8       1.0  0.12335569999999998  0.8768109000000001  0.528565575691646  1.0000
  Pd  Pd1       1.0  0.13277622  0.37117951999999993  0.5297405771687562  1.0000
  Pd  Pd2       1.0  0.12290087999999998  0.37644609999999995  0.45382807555189697  1.0000
  Pd  Pd3       1.0  0.12290087999999998  0.043112759999999944  0.4793800756752061  1.0000
  Pd  Pd4       1.0  0.12265511999999998  0.71493903  0.5039016659239753  1.0000
  Pd  Pd5       1.0  0.37290088  0.70977943  0.4666040756135515  1.0000
  Pd  Pd6       1.0  0.37290088  0.37644609999999995  0.49215607267062084  1.0000
  Pd  Pd7       1.0  0.37375432  0.034480189999999945  0.5175641986914655  1.0000
  Pd  Pd8       1.0  0.37290088  0.043112759999999944  0.4410520785564822  1.0000
  Zn  Zn1       1.0  0.12422427999999998  0.46594525  0.5047730422066303  1.0000
  Zn  Zn2       1.0  0.12223404999999997  0.11974335999999994  0.5288221310393997  1.0000
  Zn  Zn3       1.0  0.12290087999999998  0.12644609999999995  0.45382807555189697  1.0000
  Zn  Zn4       1.0  0.12290087999999998  0.7931127600000001  0.4793800756752061  1.0000
  Zn  Zn5       1.0  0.12290087999999998  0.2931127599999999  0.4793800756752061  1.0000
  Zn  Zn6       1.0  0.12283285999999997  0.9665712600000002  0.5040617144412238  1.0000
  Zn  Zn7       1.0  0.12698733999999998  0.62750145  0.5288773938787653  1.0000
  Zn  Zn8       1.0  0.12290087999999998  0.6264461  0.45382807555189697  1.0000
  Zn  Zn9       1.0  0.37290088  0.45977943  0.4666040756135515  1.0000
  Zn  Zn10      1.0  0.37290088  0.12644609999999995  0.49215607267062084  1.0000
  Zn  Zn11      1.0  0.37516542999999997  0.7828196500000001  0.5191181352780097  1.0000
  Zn  Zn12      1.0  0.37290088  0.7931127600000001  0.4410520785564822  1.0000
  Zn  Zn13      1.0  0.37290088  0.6264461  0.49215607267062084  1.0000
  Zn  Zn14      1.0  0.37731233999999997  0.28074093  0.5187613844133081  1.0000
  Zn  Zn15      1.0  0.37290088  0.2931127599999999  0.4410520785564822  1.0000
  Zn  Zn16      1.0  0.37290088  0.9597794300000001  0.4666040756135515  1.0000
  Au  Au9       1.0  0.8729008799999999  0.54311276  0.4410520785564822  1.0000
  Au  Au10      1.0  0.8729008799999999  0.20977942999999993  0.4666040756135515  1.0000
  Au  Au11      1.0  0.8729008799999999  0.8764461000000001  0.49215607267062084  1.0000
  Au  Au12      1.0  0.87776595  0.52777977  0.5193326279486054  1.0000
  Au  Au13      1.0  0.6229008800000001  0.8764461000000001  0.45382807555189697  1.0000
  Au  Au14      1.0  0.6229008800000001  0.54311276  0.4793800756752061  1.0000
  Au  Au15      1.0  0.6264425900000001  0.21516728999999993  0.5041757049708947  1.0000
  Au  Au16      1.0  0.62487879  0.8797415500000001  0.5286674576404671  1.0000
  Pd  Pd9       1.0  0.62480112  0.37590911  0.5277372340841558  1.0000
  Pd  Pd10      1.0  0.6229008800000001  0.37644609999999995  0.45382807555189697  1.0000
  Pd  Pd11      1.0  0.6229008800000001  0.043112759999999944  0.4793800756752061  1.0000
  Pd  Pd12      1.0  0.62286861  0.71404455  0.5039575910711313  1.0000
  Pd  Pd13      1.0  0.8729008799999999  0.70977943  0.4666040756135515  1.0000
  Pd  Pd14      1.0  0.8729008799999999  0.37644609999999995  0.49215607267062084  1.0000
  Pd  Pd15      1.0  0.8720261200000001  0.03342873999999994  0.5176411306472822  1.0000
  Pd  Pd16      1.0  0.8729008799999999  0.043112759999999944  0.4410520785564822  1.0000
  Zn  Zn17      1.0  0.6272324899999999  0.46663597  0.5042085566637851  1.0000
  Zn  Zn18      1.0  0.62326523  0.12567601999999994  0.5290252050330937  1.0000
  Zn  Zn19      1.0  0.6229008800000001  0.12644609999999995  0.45382807555189697  1.0000
  Zn  Zn20      1.0  0.6229008800000001  0.7931127600000001  0.4793800756752061  1.0000
  Zn  Zn21      1.0  0.6229008800000001  0.2931127599999999  0.4793800756752061  1.0000
  Zn  Zn22      1.0  0.62267346  0.9644240500000001  0.5040165763255771  1.0000
  Zn  Zn23      1.0  0.6276318399999999  0.6270979599999998  0.5290884492945793  1.0000
  Zn  Zn24      1.0  0.6229008800000001  0.6264461  0.45382807555189697  1.0000
  Zn  Zn25      1.0  0.8729008799999999  0.45977943  0.4666040756135515  1.0000
  Zn  Zn26      1.0  0.8729008799999999  0.12644609999999995  0.49215607267062084  1.0000
  Zn  Zn27      1.0  0.87289574  0.77900888  0.5191304063695672  1.0000
  Zn  Zn28      1.0  0.8729008799999999  0.7931127600000001  0.4410520785564822  1.0000
  Zn  Zn29      1.0  0.8729008799999999  0.6264461  0.49215607267062084  1.0000
  Zn  Zn30      1.0  0.8754047300000001  0.27821466999999994  0.5201306015174183  1.0000
  Zn  Zn31      1.0  0.8729008799999999  0.2931127599999999  0.4410520785564822  1.0000
  Zn  Zn32      1.0  0.8729008799999999  0.9597794300000001  0.4666040756135515  1.0000
