data_image0
_chemical_formula_structural       COCa6Ga12
_chemical_formula_sum              "C1 O1 Ca6 Ga12"
_cell_length_a       11.816882480969115
_cell_length_b       4.5691722410937325
_cell_length_c       105.10138615
_cell_angle_alpha    74.90967862501186
_cell_angle_beta     97.96810590375047
_cell_angle_gamma    67.25286936942531

_space_group_name_H-M_alt    "P 1"
_space_group_IT_number       1

loop_
  _space_group_symop_operation_xyz
  'x, y, z'

loop_
  _atom_site_type_symbol
  _atom_site_label
  _atom_site_symmetry_multiplicity
  _atom_site_fract_x
  _atom_site_fract_y
  _atom_site_fract_z
  _atom_site_occupancy
  C   C1        1.0  0.525693165  0.4460613349999998  0.5436832642513952  1.0000
  O   O1        1.0  0.505354985  0.5733407449999998  0.5519201016636526  1.0000
  Ca  Ca1       1.0  0.744563215  0.1761856149999998  0.4967456351045041  1.0000
  Ca  Ca2       1.0  0.089003015  0.1571477249999999  0.5260700518149366  1.0000
  Ca  Ca3       1.0  0.4112298850000001  0.17618561499999988  0.46891426672159164  1.0000
  Ca  Ca4       1.0  0.9112298849999999  0.176185615  0.46891426672159164  1.0000
  Ca  Ca5       1.0  0.244563215  0.17618561499999993  0.4967456351045041  1.0000
  Ca  Ca6       1.0  0.581053235  0.16088151499999997  0.5258351094129429  1.0000
  Ga  Ga1       1.0  0.558070595  0.8388055849999997  0.5006714278927034  1.0000
  Ga  Ga2       1.0  0.9004939749999998  0.8330253049999998  0.52788524713112  1.0000
  Ga  Ga3       1.0  0.230908825  0.8428522749999999  0.47119439063148244  1.0000
  Ga  Ga4       1.0  0.619797715  0.5095189449999998  0.4619172667239236  1.0000
  Ga  Ga5       1.0  0.9531310449999999  0.5095189449999998  0.489748635106836  1.0000
  Ga  Ga6       1.0  0.289736485  0.5023403949999998  0.5186103875837833  1.0000
  Ga  Ga7       1.0  0.7749269949999998  0.4944338049999999  0.5213431564341406  1.0000
  Ga  Ga8       1.0  0.091550935  0.5095189450000001  0.4666341428117009  1.0000
  Ga  Ga9       1.0  0.42488427500000003  0.5095189449999997  0.4944655145343776  1.0000
  Ga  Ga10      1.0  0.702662055  0.8428522749999999  0.4759112667192598  1.0000
  Ga  Ga11      1.0  0.046868955  0.8354229449999999  0.5032924549077882  1.0000
  Ga  Ga12      1.0  0.369328715  0.842852275  0.4480798983363474  1.0000
