data_image0
_chemical_formula_structural       COAl12Ca6Ge12
_chemical_formula_sum              "C1 O1 Al12 Ca6 Ge12"
_cell_length_a       10.326855334150087
_cell_length_b       8.400702679563581
_cell_length_c       98.77649482
_cell_angle_alpha    91.76496319367399
_cell_angle_beta     94.91900874799387
_cell_angle_gamma    72.91879252153562

_space_group_name_H-M_alt    "P 1"
_space_group_IT_number       1

loop_
  _space_group_symop_operation_xyz
  'x, y, z'

loop_
  _atom_site_type_symbol
  _atom_site_label
  _atom_site_symmetry_multiplicity
  _atom_site_fract_x
  _atom_site_fract_y
  _atom_site_fract_z
  _atom_site_occupancy
  C   C1        1.0  0.22439091500000002  0.0037264949999999855  0.5448386094825017  1.0000
  O   O1        1.0  0.28038346500000005  0.01550135499999996  0.5554139329181366  1.0000
  Al  Al1       1.0  0.064258345  0.42472587500000003  0.4672110969768477  1.0000
  Al  Al2       1.0  0.730925015  0.8056782550000001  0.4810839252054199  1.0000
  Al  Al3       1.0  0.397591675  0.043773494999999954  0.45333826874827543  1.0000
  Al  Al4       1.0  0.7563788850000001  0.471997345  0.4661517476119521  1.0000
  Al  Al5       1.0  0.42304554499999997  0.852949725  0.4800245729272307  1.0000
  Al  Al6       1.0  0.089712215  0.091044965  0.4522789193833799  1.0000
  Al  Al7       1.0  0.048954534999999993  0.560775945  0.5073825078547656  1.0000
  Al  Al8       1.0  0.643832195  0.9158264050000001  0.5144198137026746  1.0000
  Al  Al9       1.0  0.399346475  0.18518213499999997  0.49577839841930577  1.0000
  Al  Al10      1.0  0.763043205  0.6048749649999999  0.5072857049289662  1.0000
  Al  Al11      1.0  0.384001695  0.05135534499999999  0.5222294453854561  1.0000
  Al  Al12      1.0  0.081664185  0.240766765  0.49455528698431755  1.0000
  Ca  Ca1       1.0  0.076985285  0.8293139949999999  0.4805542505229723  1.0000
  Ca  Ca2       1.0  0.7436519450000001  0.06740923499999998  0.45280859406582763  1.0000
  Ca  Ca3       1.0  0.410318615  0.44836161500000005  0.4666814222943999  1.0000
  Ca  Ca4       1.0  0.083586285  0.996273505  0.5220634954317329  1.0000
  Ca  Ca5       1.0  0.744665155  0.213148055  0.495630510887033  1.0000
  Ca  Ca6       1.0  0.422594245  0.5951850249999999  0.5078527105579407  1.0000
  Ge  Ge1       1.0  0.8794161349999998  0.7004951049999999  0.46103112104979177  1.0000
  Ge  Ge2       1.0  0.5460828050000001  0.08144748500000001  0.47490394927836416  1.0000
  Ge  Ge3       1.0  0.21274946499999997  0.31954272499999997  0.4471582957345134  1.0000
  Ge  Ge4       1.0  0.941221095  0.19622811499999995  0.47233172062571427  1.0000
  Ge  Ge5       1.0  0.607887755  0.434323355  0.44458606708186343  1.0000
  Ge  Ge6       1.0  0.274554425  0.8152757350000001  0.45845889531043577  1.0000
  Ge  Ge7       1.0  0.8795328549999999  0.8514931749999999  0.5041310942827585  1.0000
  Ge  Ge8       1.0  0.540599165  0.228251305  0.5184492631653674  1.0000
  Ge  Ge9       1.0  0.21274946499999997  0.4623998650000001  0.48877677750693643  1.0000
  Ge  Ge10      1.0  0.951045465  0.35329851500000004  0.5169737381304903  1.0000
  Ge  Ge11      1.0  0.607887755  0.577180495  0.48620454885428654  1.0000
  Ge  Ge12      1.0  0.27073383500000003  0.957781245  0.49997001346709835  1.0000
