data_image0
_chemical_formula_structural       COCa8Zn8
_chemical_formula_sum              "C1 O1 Ca8 Zn8"
_cell_length_a       6.201676353563686
_cell_length_b       6.2118849401095435
_cell_length_c       106.20103474999999
_cell_angle_alpha    94.65364081668497
_cell_angle_beta     92.48323074001341
_cell_angle_gamma    104.42862482124806

_space_group_name_H-M_alt    "P 1"
_space_group_IT_number       1

loop_
  _space_group_symop_operation_xyz
  'x, y, z'

loop_
  _atom_site_type_symbol
  _atom_site_label
  _atom_site_symmetry_multiplicity
  _atom_site_fract_x
  _atom_site_fract_y
  _atom_site_fract_z
  _atom_site_occupancy
  C   C1        1.0  0.22779963  0.5953107299999999  0.5565219621604194  1.0000
  O   O1        1.0  0.15874210000000002  0.44727754999999997  0.5632213040089613  1.0000
  Ca  Ca1       1.0  0.87805106  0.6223958900000001  0.5175635551212253  1.0000
  Ca  Ca2       1.0  0.07433621999999998  0.19240651999999994  0.5440906445419169  1.0000
  Ca  Ca3       1.0  0.48040409999999995  0.029357619999999952  0.5205060672257231  1.0000
  Ca  Ca4       1.0  0.30897779  0.43802079  0.49359081582150754  1.0000
  Ca  Ca5       1.0  0.52435554  0.44151573  0.4592652779878952  1.0000
  Ca  Ca6       1.0  0.69102221  0.024849069999999952  0.4876713361987661  1.0000
  Ca  Ca7       1.0  0.14231113  0.8546874600000001  0.4651847542019096  1.0000
  Ca  Ca8       1.0  0.97564446  0.27135412999999997  0.4367786959910388  1.0000
  Zn  Zn1       1.0  0.33915707000000006  0.4914593  0.523766494265222  1.0000
  Zn  Zn2       1.0  0.16098295  0.9043856  0.4958838801911524  1.0000
  Zn  Zn3       1.0  0.005683719999999992  0.14181758999999997  0.5137843334487192  1.0000
  Zn  Zn4       1.0  0.26635037  0.7661203999999999  0.5415439197435142  1.0000
  Zn  Zn5       1.0  0.9943162799999998  0.32105227  0.46747781857155446  1.0000
  Zn  Zn6       1.0  0.82764962  0.7377189299999999  0.43907176036068357  1.0000
  Zn  Zn7       1.0  0.67235038  0.9751509300000001  0.4569722136182503  1.0000
  Zn  Zn8       1.0  0.83901705  0.5584842600000001  0.4853782718291212  1.0000
