data_image0
_chemical_formula_structural       COCa2Cu2Sb2
_chemical_formula_sum              "C1 O1 Ca2 Cu2 Sb2"
_cell_length_a       4.530703609661287
_cell_length_b       4.53070361
_cell_length_c       103.23331024000001
_cell_angle_alpha    90.0
_cell_angle_beta     90.0
_cell_angle_gamma    120.00000007548539

_space_group_name_H-M_alt    "P 1"
_space_group_IT_number       1

loop_
  _space_group_symop_operation_xyz
  'x, y, z'

loop_
  _atom_site_type_symbol
  _atom_site_label
  _atom_site_symmetry_multiplicity
  _atom_site_fract_x
  _atom_site_fract_y
  _atom_site_fract_z
  _atom_site_occupancy
  C   C1        1.0  0.830077395  0.8329219849999999  0.5351361016329786  1.0000
  O   O1        1.0  0.8307835849999999  0.8311084249999999  0.5463708312408644  1.0000
  Ca  Ca1       1.0  0.16666666499999996  0.497067715  0.4536291687591356  1.0000
  Ca  Ca2       1.0  0.16730556499999996  0.496781765  0.4944656739573826  1.0000
  Cu  Cu1       1.0  0.827916205  0.8362656149999999  0.5169279124112997  1.0000
  Cu  Cu2       1.0  0.5000000049999999  0.16373438499999993  0.4737494369668598  1.0000
  Sb  Sb1       1.0  0.8333333350000001  0.8304010549999999  0.4737494369668598  1.0000
  Sb  Sb2       1.0  0.49972823499999985  0.165193085  0.5109611744413335  1.0000
