data_image0
_chemical_formula_structural       COAl6As12Na18
_chemical_formula_sum              "C1 O1 Al6 As12 Na18"
_cell_length_a       8.366308303499649
_cell_length_b       12.20903218390621
_cell_length_c       106.12410245000001
_cell_angle_alpha    91.51238230037347
_cell_angle_beta     92.88133859128426
_cell_angle_gamma    93.09696297688967

_space_group_name_H-M_alt    "P 1"
_space_group_IT_number       1

loop_
  _space_group_symop_operation_xyz
  'x, y, z'

loop_
  _atom_site_type_symbol
  _atom_site_label
  _atom_site_symmetry_multiplicity
  _atom_site_fract_x
  _atom_site_fract_y
  _atom_site_fract_z
  _atom_site_occupancy
  C   C1        1.0  0.9986018950000001  0.5466186749999999  0.5410317381714155  1.0000
  O   O1        1.0  0.039211915000000076  0.567672105  0.5515602134689415  1.0000
  Al  Al1       1.0  0.6036240850000001  0.101965365  0.4963697735697209  1.0000
  Al  Al2       1.0  0.2702907550000001  0.685298695  0.4680035336588771  1.0000
  Al  Al3       1.0  0.9037928850000001  0.5265896350000001  0.5227475252328302  1.0000
  Al  Al4       1.0  0.43695742500000007  0.8936320249999998  0.4821866553162735  1.0000
  Al  Al5       1.0  0.10362408500000007  0.476965365  0.45382041200148077  1.0000
  Al  Al6       1.0  0.7661365850000001  0.30627547499999996  0.5119128374978678  1.0000
  As  As1       1.0  0.9700114550000001  0.720726075  0.5186076425496867  1.0000
  As  As2       1.0  0.6162390750000002  0.300041265  0.48909603169255766  1.0000
  As  As3       1.0  0.2829057450000001  0.883374605  0.4607297917817139  1.0000
  As  As4       1.0  0.42434243500000013  0.695556125  0.48946039719343665  1.0000
  As  As5       1.0  0.09100909500000008  0.278889455  0.46109415728259295  1.0000
  As  As6       1.0  0.7589470750000001  0.105001715  0.5172652748672383  1.0000
  As  As7       1.0  0.39201169500000005  0.554390755  0.45241364500931175  1.0000
  As  As8       1.0  0.05167626500000008  0.390967675  0.5104883665673373  1.0000
  As  As9       1.0  0.725345025  0.9710574149999999  0.48077988492015544  1.0000
  As  As10      1.0  0.638463745  0.4397279150000001  0.5260861081270738  1.0000
  As  As11      1.0  0.3152364850000001  0.024539975000000012  0.4977765439658389  1.0000
  As  As12      1.0  0.9819031550000001  0.6078733049999999  0.4694103006510463  1.0000
  Na  Na1       1.0  0.6627968750000001  0.5558960850000001  0.5017503990401432  1.0000
  Na  Na2       1.0  0.3294635350000001  0.13922941500000002  0.47338415912929943  1.0000
  Na  Na3       1.0  0.9160560150000001  0.9304572249999998  0.530039730128965  1.0000
  Na  Na4       1.0  0.720575235  0.8414512149999999  0.5037601381410193  1.0000
  Na  Na5       1.0  0.3777846350000001  0.439701305  0.4768060298458512  1.0000
  Na  Na6       1.0  0.04445130500000007  0.023034635000000005  0.4484397865310585  1.0000
  Na  Na7       1.0  0.31324157500000005  0.531051685  0.5252385622880725  1.0000
  Na  Na8       1.0  0.0013981050000000383  0.126508045  0.4983166927931776  1.0000
  Na  Na9       1.0  0.6680647749999999  0.709841375  0.46995045288233384  1.0000
  Na  Na10      1.0  0.705850065  0.452422685  0.451873496181973  1.0000
  Na  Na11      1.0  0.3690870950000001  0.30760776500000003  0.5068632052130592  1.0000
  Na  Na12      1.0  0.03918340500000006  0.869089345  0.4802397360928168  1.0000
  Na  Na13      1.0  0.2658867750000001  0.817301835  0.5097961565336004  1.0000
  Na  Na14      1.0  0.9369574250000001  0.393632025  0.4821866553162734  1.0000
  Na  Na15      1.0  0.6036240850000001  0.9769653649999999  0.45382041200148077  1.0000
  Na  Na16      1.0  0.4422661750000001  0.080576145  0.5239324602774761  1.0000
  Na  Na17      1.0  0.10362408500000009  0.601965365  0.49636977356972084  1.0000
  Na  Na18      1.0  0.770290755  0.18529869499999999  0.4680035336588771  1.0000
