data_image0
_chemical_formula_structural       COCa4Ge8Ca4Ge8Ca4Ge8Ca4Ge8Ca4Ge8Ca4Ge8
_chemical_formula_sum              "C1 O1 Ca24 Ge48"
_cell_length_a       21.02741745204087
_cell_length_b       8.197632642483333
_cell_length_c       106.88934685000001
_cell_angle_alpha    60.00000001002094
_cell_angle_beta     78.75952716808432
_cell_angle_gamma    84.40686713716383

_space_group_name_H-M_alt    "P 1"
_space_group_IT_number       1

loop_
  _space_group_symop_operation_xyz
  'x, y, z'

loop_
  _atom_site_type_symbol
  _atom_site_label
  _atom_site_symmetry_multiplicity
  _atom_site_fract_x
  _atom_site_fract_y
  _atom_site_fract_z
  _atom_site_occupancy
  C   C1        1.0  0.8102153200000001  0.28441013000000004  0.5624499510267154  1.0000
  O   O1        1.0  0.8112265500000001  0.37119787000000004  0.5686348921213945  1.0000
  Ca  Ca1       1.0  0.10440483999999996  0.34223591000000003  0.5080578107702639  1.0000
  Ca  Ca2       1.0  0.6158215999999999  0.32208558  0.5288177980530763  1.0000
  Ca  Ca3       1.0  0.36662295999999994  0.17919936000000006  0.523424417655778  1.0000
  Ca  Ca4       1.0  0.8386716099999999  0.15995632000000004  0.5445619561993686  1.0000
  Ge  Ge1       1.0  0.24197014999999994  0.24341661000000006  0.5415033796074222  1.0000
  Ge  Ge2       1.0  0.7638579  0.34665511000000004  0.5202068697505973  1.0000
  Ge  Ge3       1.0  0.9880261899999999  0.15799886000000002  0.541333167828582  1.0000
  Ge  Ge4       1.0  0.5113846499999999  0.17788618000000003  0.5187489913699095  1.0000
  Ge  Ge5       1.0  0.4832354999999999  0.09916174000000003  0.5459314190171588  1.0000
  Ge  Ge6       1.0  0.97430581  0.008394380000000019  0.5264169146668352  1.0000
  Ge  Ge7       1.0  0.20788024  0.00890258000000002  0.5168720234281573  1.0000
  Ge  Ge8       1.0  0.7275954099999999  0.99160562  0.5376401934386184  1.0000
  Ca  Ca5       1.0  0.10440483999999996  0.34223591000000003  0.46971146105002043  1.0000
  Ca  Ca6       1.0  0.6044048399999999  0.34223591000000003  0.4888846341845564  1.0000
  Ca  Ca7       1.0  0.35440483999999994  0.17556925000000004  0.48568910475360516  1.0000
  Ca  Ca8       1.0  0.85440484  0.17556925000000004  0.5048622813393127  1.0000
  Ge  Ge9       1.0  0.26124207999999993  0.34223591000000003  0.5020436750559247  1.0000
  Ge  Ge10      1.0  0.7612420799999999  0.34223591000000003  0.4828704984702173  1.0000
  Ge  Ge11      1.0  0.011242079999999967  0.17556925000000004  0.49884814562497354  1.0000
  Ge  Ge12      1.0  0.5112420799999999  0.17556925000000004  0.47967496903926604  1.0000
  Ge  Ge13      1.0  0.45788023999999994  0.00890258000000002  0.5072854351353036  1.0000
  Ge  Ge14      1.0  0.9578802399999999  0.00890258000000002  0.48811225854959595  1.0000
  Ge  Ge15      1.0  0.20788024  0.00890258000000002  0.4785256737079139  1.0000
  Ge  Ge16      1.0  0.7078802399999999  0.00890258000000002  0.49769884684244986  1.0000
  Ca  Ca9       1.0  0.10440483999999996  0.34223591000000003  0.43136510787860544  1.0000
  Ca  Ca10      1.0  0.6044048399999999  0.34223591000000003  0.45053828446431293  1.0000
  Ca  Ca11      1.0  0.35440483999999994  0.17556925000000004  0.44734275503336174  1.0000
  Ca  Ca12      1.0  0.85440484  0.17556925000000004  0.4665159316190692  1.0000
  Ge  Ge17      1.0  0.26124207999999993  0.34223591000000003  0.4636973253356813  1.0000
  Ge  Ge18      1.0  0.7612420799999999  0.34223591000000003  0.4445241487499738  1.0000
  Ge  Ge19      1.0  0.011242079999999967  0.17556925000000004  0.46050179590473  1.0000
  Ge  Ge20      1.0  0.5112420799999999  0.17556925000000004  0.44132861931902256  1.0000
  Ge  Ge21      1.0  0.45788023999999994  0.00890258000000002  0.4689390854150601  1.0000
  Ge  Ge22      1.0  0.9578802399999999  0.00890258000000002  0.4497659088293525  1.0000
  Ge  Ge23      1.0  0.20788024  0.00890258000000002  0.44017932398767035  1.0000
  Ge  Ge24      1.0  0.7078802399999999  0.00890258000000002  0.4593524971222063  1.0000
  Ca  Ca13      1.0  0.10440483999999996  0.84223591  0.5080578107702639  1.0000
  Ca  Ca14      1.0  0.60513018  0.8256736700000001  0.530337383380351  1.0000
  Ca  Ca15      1.0  0.32674393999999995  0.6417443600000002  0.5290887357235882  1.0000
  Ca  Ca16      1.0  0.83917868  0.67231224  0.5439744736268493  1.0000
  Ge  Ge25      1.0  0.24381577999999993  0.9349997200000001  0.5412235275609019  1.0000
  Ge  Ge26      1.0  0.76087138  0.8455679000000001  0.5206184530136289  1.0000
  Ge  Ge27      1.0  0.9887579200000001  0.6590722700000001  0.5411425527237783  1.0000
  Ge  Ge28      1.0  0.4963302799999999  0.65997486  0.5202552965892162  1.0000
  Ge  Ge29      1.0  0.4878848699999999  0.40114024000000004  0.5470486495140179  1.0000
  Ge  Ge30      1.0  0.97213356  0.50789229  0.5264134013742386  1.0000
  Ge  Ge31      1.0  0.20788024  0.50890258  0.5168720234281572  1.0000
  Ge  Ge32      1.0  0.72708679  0.49514695999999997  0.5371648566842948  1.0000
  Ca  Ca17      1.0  0.10440483999999996  0.84223591  0.46971146105002043  1.0000
  Ca  Ca18      1.0  0.6044048399999999  0.84223591  0.4888846341845564  1.0000
  Ca  Ca19      1.0  0.35440483999999994  0.6755692500000002  0.4856891047536052  1.0000
  Ca  Ca20      1.0  0.85440484  0.6755692500000002  0.5048622813393125  1.0000
  Ge  Ge33      1.0  0.26124207999999993  0.84223591  0.5020436750559247  1.0000
  Ge  Ge34      1.0  0.7612420799999999  0.84223591  0.4828704984702173  1.0000
  Ge  Ge35      1.0  0.011242079999999967  0.6755692500000002  0.4988481456249735  1.0000
  Ge  Ge36      1.0  0.5112420799999999  0.6755692500000002  0.479674969039266  1.0000
  Ge  Ge37      1.0  0.45788023999999994  0.50890258  0.5072854351353036  1.0000
  Ge  Ge38      1.0  0.9578802399999999  0.50890258  0.4881122585495959  1.0000
  Ge  Ge39      1.0  0.20788024  0.50890258  0.47852567370791377  1.0000
  Ge  Ge40      1.0  0.7078802399999999  0.50890258  0.49769884684244975  1.0000
  Ca  Ca21      1.0  0.10440483999999996  0.84223591  0.43136510787860544  1.0000
  Ca  Ca22      1.0  0.6044048399999999  0.84223591  0.450538284464313  1.0000
  Ca  Ca23      1.0  0.35440483999999994  0.6755692500000002  0.4473427550333616  1.0000
  Ca  Ca24      1.0  0.85440484  0.6755692500000002  0.4665159316190691  1.0000
  Ge  Ge41      1.0  0.26124207999999993  0.84223591  0.4636973253356813  1.0000
  Ge  Ge42      1.0  0.7612420799999999  0.84223591  0.4445241487499738  1.0000
  Ge  Ge43      1.0  0.011242079999999967  0.6755692500000002  0.46050179590473  1.0000
  Ge  Ge44      1.0  0.5112420799999999  0.6755692500000002  0.44132861931902256  1.0000
  Ge  Ge45      1.0  0.45788023999999994  0.50890258  0.46893908541506  1.0000
  Ge  Ge46      1.0  0.9578802399999999  0.50890258  0.44976590882935247  1.0000
  Ge  Ge47      1.0  0.20788024  0.50890258  0.4401793239876703  1.0000
  Ge  Ge48      1.0  0.7078802399999999  0.50890258  0.45935249712220627  1.0000
