data_image0
_chemical_formula_structural       COSi8Pb16Se32
_chemical_formula_sum              "C1 O1 Si8 Pb16 Se32"
_cell_length_a       11.596700624239618
_cell_length_b       14.161431621491419
_cell_length_c       104.79010189
_cell_angle_alpha    75.88400967827464
_cell_angle_beta     80.00292008390034
_cell_angle_gamma    75.88400967126377

_space_group_name_H-M_alt    "P 1"
_space_group_IT_number       1

loop_
  _space_group_symop_operation_xyz
  'x, y, z'

loop_
  _atom_site_type_symbol
  _atom_site_label
  _atom_site_symmetry_multiplicity
  _atom_site_fract_x
  _atom_site_fract_y
  _atom_site_fract_z
  _atom_site_occupancy
  C   C1        1.0  0.7681259099999997  0.13774172500000004  0.5577138411736178  1.0000
  O   O1        1.0  0.7594576999999998  0.15900094500000003  0.5677825861959288  1.0000
  Si  Si1       1.0  0.0948314899999999  0.356776195  0.453659051663968  1.0000
  Si  Si2       1.0  0.5919466599999998  0.358050855  0.5089593073808834  1.0000
  Si  Si3       1.0  0.6531245499999999  0.14741513500000003  0.46011011100482296  1.0000
  Si  Si4       1.0  0.1590781499999999  0.14220942500000003  0.5159932987305806  1.0000
  Si  Si5       1.0  0.40516850999999987  0.6474151349999999  0.4322174138040711  1.0000
  Si  Si6       1.0  0.9051685099999998  0.6474151349999999  0.48755041116152803  1.0000
  Si  Si7       1.0  0.8810045299999998  0.891898485  0.5316383349027383  1.0000
  Si  Si8       1.0  0.34687544999999975  0.856776195  0.48109935182067304  1.0000
  Pb  Pb1       1.0  0.9717058799999998  0.13981193500000003  0.452294855374502  1.0000
  Pb  Pb2       1.0  0.4717058799999998  0.13981193500000003  0.5076278527319589  1.0000
  Pb  Pb3       1.0  0.6654516899999998  0.36437939500000005  0.4737359288378371  1.0000
  Pb  Pb4       1.0  0.21239144999999993  0.37021680500000004  0.5205317675227271  1.0000
  Pb  Pb5       1.0  0.5282941199999999  0.864379395  0.43358161009353713  1.0000
  Pb  Pb6       1.0  0.02829411999999989  0.864379395  0.488914607450994  1.0000
  Pb  Pb7       1.0  0.8167906099999999  0.634430815  0.5225821803918371  1.0000
  Pb  Pb8       1.0  0.33454830999999985  0.639811935  0.46747353398765884  1.0000
  Pb  Pb9       1.0  0.23190503999999987  0.12771957500000003  0.48034897995185605  1.0000
  Pb  Pb10      1.0  0.8422673199999999  0.10174647500000003  0.5249798797453159  1.0000
  Pb  Pb11      1.0  0.41194901999999983  0.3764717550000001  0.4449407283350363  1.0000
  Pb  Pb12      1.0  0.9119490199999999  0.3764717550000001  0.5002737256924932  1.0000
  Pb  Pb13      1.0  0.29587555999999987  0.8461462750000001  0.5183958087347534  1.0000
  Pb  Pb14      1.0  0.7680949599999998  0.8764717550000001  0.46086048287363995  1.0000
  Pb  Pb15      1.0  0.08805097999999995  0.6277195749999999  0.4409357371330029  1.0000
  Pb  Pb16      1.0  0.5880509799999999  0.6277195749999999  0.49626873117048  1.0000
  Se  Se1       1.0  0.6924899899999999  0.442712945  0.5179646595612669  1.0000
  Se  Se2       1.0  0.1926664999999999  0.44596486500000004  0.46252711272071395  1.0000
  Se  Se3       1.0  0.0729909799999999  0.058226465000000026  0.5046160965592468  1.0000
  Se  Se4       1.0  0.5729909799999999  0.058226465000000026  0.4492830992017899  1.0000
  Se  Se5       1.0  0.8073334999999999  0.5582264650000001  0.478682350104782  1.0000
  Se  Se6       1.0  0.3757316799999998  0.657227525  0.5392742319456921  1.0000
  Se  Se7       1.0  0.4270090199999999  0.945964865  0.49192636030372633  1.0000
  Se  Se8       1.0  0.9270090199999999  0.945964865  0.4365933662662493  1.0000
  Se  Se9       1.0  0.75757654  0.739870135  0.4412520548460301  1.0000
  Se  Se10      1.0  0.2575765399999999  0.739870135  0.496585052203487  1.0000
  Se  Se11      1.0  0.26523662999999986  0.7643211950000001  0.44209976520187166  1.0000
  Se  Se12      1.0  0.7652366299999998  0.7643211950000001  0.4974327625593285  1.0000
  Se  Se13      1.0  0.7424234599999999  0.264321195  0.444624410622009  1.0000
  Se  Se14      1.0  0.24242345999999992  0.264321195  0.4999574046594861  1.0000
  Se  Se15      1.0  0.23476336999999986  0.23987013500000004  0.4437767002661674  1.0000
  Se  Se16      1.0  0.7347633699999998  0.23987013500000004  0.49910969430364455  1.0000
  Se  Se17      1.0  0.52504645  0.7224221550000001  0.523961153911282  1.0000
  Se  Se18      1.0  0.018269229999999918  0.736913525  0.47067591343911486  1.0000
  Se  Se19      1.0  0.49935678999999983  0.767277805  0.46858294838922815  1.0000
  Se  Se20      1.0  0.97189561  0.7347536049999999  0.5311077988147059  1.0000
  Se  Se21      1.0  0.9817307699999999  0.26727780500000003  0.470533549386381  1.0000
  Se  Se22      1.0  0.47302237999999985  0.271212595  0.5255602819295695  1.0000
  Se  Se23      1.0  0.028527509999999895  0.24357110500000007  0.5287600087171853  1.0000
  Se  Se24      1.0  0.5006432099999999  0.236913525  0.47262651443626785  1.0000
  Se  Se25      1.0  0.7000501099999998  0.956626135  0.5244330624764667  1.0000
  Se  Se26      1.0  0.20145150999999986  0.959518955  0.4681337518056844  1.0000
  Se  Se27      1.0  0.5223282599999999  0.544672375  0.44831089956432324  1.0000
  Se  Se28      1.0  0.022328259999999912  0.544672375  0.5036438969217801  1.0000
  Se  Se29      1.0  0.7985484899999998  0.04467237500000001  0.47307571101981155  1.0000
  Se  Se30      1.0  0.30636018999999987  0.04048104500000001  0.527926358475691  1.0000
  Se  Se31      1.0  0.9776717399999998  0.459518955  0.4375655659037158  1.0000
  Se  Se32      1.0  0.47767173999999984  0.459518955  0.49289856326117276  1.0000
