data_image0
_chemical_formula_structural       COAl6Ca6Si6
_chemical_formula_sum              "C1 O1 Al6 Ca6 Si6"
_cell_length_a       8.572122174113725
_cell_length_b       6.1243304077020175
_cell_length_c       101.83397912
_cell_angle_alpha    90.90141302280459
_cell_angle_beta     93.13417152616988
_cell_angle_gamma    81.83077354529377

_space_group_name_H-M_alt    "P 1"
_space_group_IT_number       1

loop_
  _space_group_symop_operation_xyz
  'x, y, z'

loop_
  _atom_site_type_symbol
  _atom_site_label
  _atom_site_symmetry_multiplicity
  _atom_site_fract_x
  _atom_site_fract_y
  _atom_site_fract_z
  _atom_site_occupancy
  C   C1        1.0  0.8586311900000001  0.04775332500000004  0.5409338995959453  1.0000
  O   O1        1.0  0.8719302499999999  0.05487264500000004  0.5522305817554708  1.0000
  Al  Al1       1.0  0.13062483000000003  0.6803121849999999  0.5016017589643744  1.0000
  Al  Al2       1.0  0.7777777800000001  0.304975665  0.4868452495572868  1.0000
  Al  Al3       1.0  0.41441026000000003  0.18233738500000002  0.5133535964070309  1.0000
  Al  Al4       1.0  0.11111111000000001  0.471642325  0.46079469639080406  1.0000
  Al  Al5       1.0  0.7777777800000001  0.05497566500000005  0.4477694182445292  1.0000
  Al  Al6       1.0  0.44444445  0.8883089949999999  0.47381997453707864  1.0000
  Ca  Ca1       1.0  0.16013547000000003  0.19565523500000007  0.48866778384251197  1.0000
  Ca  Ca2       1.0  0.8467178300000001  0.04101776500000006  0.5144580607117868  1.0000
  Ca  Ca3       1.0  0.5103595700000001  0.6411102949999999  0.5031541135737037  1.0000
  Ca  Ca4       1.0  0.16666667000000004  0.9577534449999998  0.4499402994986083  1.0000
  Ca  Ca5       1.0  0.83333333  0.791086775  0.4759908526650911  1.0000
  Ca  Ca6       1.0  0.5  0.37442010499999995  0.46296557451881654  1.0000
  Si  Si1       1.0  0.8799706  0.526402925  0.5045059779077333  1.0000
  Si  Si2       1.0  0.5546477900000001  0.10714309500000004  0.49213125920968553  1.0000
  Si  Si3       1.0  0.21093217000000003  0.9589822349999999  0.5169247335046374  1.0000
  Si  Si4       1.0  0.8888888899999999  0.2771978849999999  0.4651364557728956  1.0000
  Si  Si5       1.0  0.5555555600000001  0.8605312149999998  0.45211117762662084  1.0000
  Si  Si6       1.0  0.22222222000000003  0.693864555  0.47816173079310376  1.0000
