data_image0
_chemical_formula_structural       CONa4Fe4As4Na4Fe4As4
_chemical_formula_sum              "C1 O1 Na8 Fe8 As8"
_cell_length_a       5.5891605
_cell_length_b       6.9690031
_cell_length_c       103.53496299
_cell_angle_alpha    90.0
_cell_angle_beta     90.0
_cell_angle_gamma    90.0

_space_group_name_H-M_alt    "P 1"
_space_group_IT_number       1

loop_
  _space_group_symop_operation_xyz
  'x, y, z'

loop_
  _atom_site_type_symbol
  _atom_site_label
  _atom_site_symmetry_multiplicity
  _atom_site_fract_x
  _atom_site_fract_y
  _atom_site_fract_z
  _atom_site_occupancy
  C   C1        1.0  0.12692779499999998  0.5897950200000001  0.5539027214747696  1.0000
  O   O1        1.0  0.12310281499999998  0.5868415600000001  0.5650695685348917  1.0000
  Na  Na1       1.0  0.3679013649999999  0.77390583  0.5324405350680794  1.0000
  Na  Na2       1.0  0.8718850149999998  0.7353153099999999  0.5024755490349125  1.0000
  Na  Na3       1.0  0.8778736549999999  0.40134999  0.5324385042157772  1.0000
  Na  Na4       1.0  0.37196007499999995  0.44052035999999994  0.502471807991198  1.0000
  Fe  Fe1       1.0  0.6224805149999999  0.08787692  0.5157747424273701  1.0000
  Fe  Fe2       1.0  0.12212634499999998  0.08791184  0.48891374732968607  1.0000
  Fe  Fe3       1.0  0.6221263450000001  0.08791184  0.48891374732968607  1.0000
  Fe  Fe4       1.0  0.12279692499999997  0.08797243  0.5158503600953882  1.0000
  As  As1       1.0  0.8701488749999998  0.9121230799999999  0.52864252060206  1.0000
  As  As2       1.0  0.372169655  0.90054254  0.5021646278147437  1.0000
  As  As3       1.0  0.37545418499999994  0.264416  0.528594152631679  1.0000
  As  As4       1.0  0.8726661649999998  0.27534356  0.502192272670245  1.0000
  Na  Na5       1.0  0.372126345  0.73966469  0.47541791755379187  1.0000
  Na  Na6       1.0  0.872126345  0.73966469  0.44842626124100243  1.0000
  Na  Na7       1.0  0.872126345  0.43615898999999997  0.47541791755379187  1.0000
  Na  Na8       1.0  0.372126345  0.43615898999999997  0.44842626124100243  1.0000
  Fe  Fe5       1.0  0.6221263450000001  0.08791184  0.46192209101689663  1.0000
  Fe  Fe6       1.0  0.12212634499999998  0.08791184  0.43493043146510824  1.0000
  Fe  Fe7       1.0  0.6221263450000001  0.08791184  0.43493043146510824  1.0000
  Fe  Fe8       1.0  0.12212634499999998  0.08791184  0.46192209101689663  1.0000
  As  As5       1.0  0.872126345  0.9020640999999999  0.47541791755379187  1.0000
  As  As6       1.0  0.372126345  0.9020640999999999  0.44842626124100243  1.0000
  As  As7       1.0  0.372126345  0.27375958  0.47541791755379187  1.0000
  As  As8       1.0  0.872126345  0.27375958  0.44842626124100243  1.0000
