data_image0
_chemical_formula_structural       COCa16In12Au40
_chemical_formula_sum              "C1 O1 Ca16 In12 Au40"
_cell_length_a       10.43357493
_cell_length_b       14.14773169
_cell_length_c       101.00352995
_cell_angle_alpha    90.0
_cell_angle_beta     90.0
_cell_angle_gamma    90.0

_space_group_name_H-M_alt    "P 1"
_space_group_IT_number       1

loop_
  _space_group_symop_operation_xyz
  'x, y, z'

loop_
  _atom_site_type_symbol
  _atom_site_label
  _atom_site_symmetry_multiplicity
  _atom_site_fract_x
  _atom_site_fract_y
  _atom_site_fract_z
  _atom_site_occupancy
  C   C1        1.0  0.6914161449999999  0.6677138149999999  0.5512698660210947  1.0000
  O   O1        1.0  0.6577827049999999  0.7102895649999998  0.5604506388951148  1.0000
  Ca  Ca1       1.0  0.050745825000000015  0.3670541649999999  0.5008987486433596  1.0000
  Ca  Ca2       1.0  0.5497090550000001  0.8669700649999998  0.5008807518766936  1.0000
  Ca  Ca3       1.0  0.347898225  0.566027345  0.46976292110964907  1.0000
  Ca  Ca4       1.0  0.258940505  0.565930945  0.5207611197527766  1.0000
  Ca  Ca5       1.0  0.5496262450000001  0.26509458499999994  0.5008756410773587  1.0000
  Ca  Ca6       1.0  0.050781735000000015  0.764735085  0.5008493289020455  1.0000
  Ca  Ca7       1.0  0.8478982250000001  0.566027345  0.4805867806699495  1.0000
  Ca  Ca8       1.0  0.7529314750000001  0.5694309049999998  0.5302883035265653  1.0000
  Ca  Ca9       1.0  0.050016615000000014  0.8685508949999999  0.4495952741286221  1.0000
  Ca  Ca10      1.0  0.5500166150000001  0.3685508949999999  0.4495952741286221  1.0000
  Ca  Ca11      1.0  0.34117339500000005  0.06611948499999995  0.520787410441246  1.0000
  Ca  Ca12      1.0  0.252135005  0.06602734499999995  0.46976292110964907  1.0000
  Ca  Ca13      1.0  0.5500166150000001  0.763503795  0.4495952741286221  1.0000
  Ca  Ca14      1.0  0.050016615000000014  0.26350379499999993  0.4495952741286221  1.0000
  Ca  Ca15      1.0  0.8460649750000001  0.06565836499999994  0.5294076621536411  1.0000
  Ca  Ca16      1.0  0.7521350050000001  0.06602734499999995  0.4805867806699495  1.0000
  In  In1       1.0  0.299911975  0.31609538499999995  0.5249935062072025  1.0000
  In  In2       1.0  0.8000166150000001  0.3160273449999999  0.47715319833856085  1.0000
  In  In3       1.0  0.050016615000000014  0.566027345  0.4495952741286221  1.0000
  In  In4       1.0  0.300695315  0.817752265  0.525007966853248  1.0000
  In  In5       1.0  0.8000166150000001  0.816027345  0.47715319833856085  1.0000
  In  In6       1.0  0.548102725  0.565978375  0.500887968386745  1.0000
  In  In7       1.0  0.30001661500000004  0.816027345  0.47319650651058687  1.0000
  In  In8       1.0  0.8038576650000001  0.817426475  0.5278509709977354  1.0000
  In  In9       1.0  0.052474305000000006  0.06620832499999994  0.5008423610254751  1.0000
  In  In10      1.0  0.30001661500000004  0.3160273449999999  0.47319650651058687  1.0000
  In  In11      1.0  0.799732815  0.31593222499999996  0.5282769384723722  1.0000
  In  In12      1.0  0.5500166150000001  0.06602734499999995  0.4495952741286221  1.0000
  Au  Au1       1.0  0.5216815750000001  0.698121405  0.5225346315824383  1.0000
  Au  Au2       1.0  0.6458208150000001  0.566027345  0.45964119022190825  1.0000
  Au  Au3       1.0  0.5680987650000001  0.707148095  0.47956582713583196  1.0000
  Au  Au4       1.0  0.25749900500000006  0.2074014649999999  0.49796588037795836  1.0000
  Au  Au5       1.0  0.342534225  0.707401465  0.49796588037795836  1.0000
  Au  Au6       1.0  0.342534225  0.4246532249999999  0.49796588037795836  1.0000
  Au  Au7       1.0  0.968065535  0.5663257749999999  0.5115865627157851  1.0000
  Au  Au8       1.0  0.06809876500000002  0.4249065949999999  0.47078387464376653  1.0000
  Au  Au9       1.0  0.7584530549999999  0.7064444049999999  0.5036659686888839  1.0000
  Au  Au10      1.0  0.05242120500000001  0.4108139349999999  0.5299434089840768  1.0000
  Au  Au11      1.0  0.14582081500000002  0.566027345  0.4907085146272394  1.0000
  Au  Au12      1.0  0.06809876500000002  0.707148095  0.47078387464376653  1.0000
  Au  Au13      1.0  0.45421241500000004  0.566027345  0.4395493611048851  1.0000
  Au  Au14      1.0  0.7590432650000001  0.4250766149999999  0.503799684388954  1.0000
  Au  Au15      1.0  0.841716125  0.925338665  0.5034992891004925  1.0000
  Au  Au16      1.0  0.056323985000000014  0.7219881049999999  0.529823107213792  1.0000
  Au  Au17      1.0  0.5680987650000001  0.4249065949999999  0.47956582713583196  1.0000
  Au  Au18      1.0  0.25749900500000006  0.9246532249999999  0.49796588037795836  1.0000
  Au  Au19      1.0  0.5260701050000001  0.43290863499999993  0.5226863317709779  1.0000
  Au  Au20      1.0  0.841486055  0.20709163499999994  0.5037147346162292  1.0000
  Au  Au21      1.0  0.531934465  0.20714809499999992  0.47078387464376653  1.0000
  Au  Au22      1.0  0.632990935  0.06654377499999994  0.5114516498915465  1.0000
  Au  Au23      1.0  0.547455745  0.2207578049999999  0.5299417053842986  1.0000
  Au  Au24      1.0  0.25749900500000006  0.707401465  0.44680672685560396  1.0000
  Au  Au25      1.0  0.342534225  0.2074014649999999  0.44680672685560396  1.0000
  Au  Au26      1.0  0.342534225  0.9246532249999999  0.44680672685560396  1.0000
  Au  Au27      1.0  0.9542124150000001  0.06602734499999995  0.45964119022190825  1.0000
  Au  Au28      1.0  0.07384679500000002  0.934341635  0.522754254754568  1.0000
  Au  Au29      1.0  0.7574990050000001  0.2074014649999999  0.4523838214016402  1.0000
  Au  Au30      1.0  0.03193446500000001  0.9249065949999998  0.47956582713583196  1.0000
  Au  Au31      1.0  0.14582081500000002  0.06602734499999995  0.4395493611048851  1.0000
  Au  Au32      1.0  0.074396105  0.19740781499999993  0.5228665020278835  1.0000
  Au  Au33      1.0  0.45421241500000004  0.06602734499999995  0.4907085146272394  1.0000
  Au  Au34      1.0  0.7574990050000001  0.9246532249999999  0.4523838214016402  1.0000
  Au  Au35      1.0  0.8425342250000001  0.4246532249999999  0.4523838214016402  1.0000
  Au  Au36      1.0  0.03193446500000001  0.20714809499999992  0.47956582713583196  1.0000
  Au  Au37      1.0  0.5503928450000001  0.9119952349999998  0.5298295931711458  1.0000
  Au  Au38      1.0  0.25749900500000006  0.4246532249999999  0.44680672685560396  1.0000
  Au  Au39      1.0  0.531934465  0.9249065949999998  0.47078387464376653  1.0000
  Au  Au40      1.0  0.8425342250000001  0.707401465  0.4523838214016402  1.0000
