data_image0
_chemical_formula_structural       CONa6Pt2
_chemical_formula_sum              "C1 O1 Na6 Pt2"
_cell_length_a       4.88993502
_cell_length_b       4.88993502
_cell_length_c       101.3198048
_cell_angle_alpha    90.0
_cell_angle_beta     90.0
_cell_angle_gamma    90.0

_space_group_name_H-M_alt    "P 1"
_space_group_IT_number       1

loop_
  _space_group_symop_operation_xyz
  'x, y, z'

loop_
  _atom_site_type_symbol
  _atom_site_label
  _atom_site_symmetry_multiplicity
  _atom_site_fract_x
  _atom_site_fract_y
  _atom_site_fract_z
  _atom_site_occupancy
  C   C1        1.0  0.749999995  0.999999965  0.5318828097313056  1.0000
  O   O1        1.0  0.749999995  0.9999999749999999  0.5434837471298327  1.0000
  Na  Na1       1.0  0.750000005  0.49999998500000004  0.5146382286155663  1.0000
  Na  Na2       1.0  0.24999999499999997  0.9999999949999999  0.5146382286155663  1.0000
  Na  Na3       1.0  0.24999999499999997  0.500000005  0.4565162528701674  1.0000
  Na  Na4       1.0  0.24999999499999997  5.000000014998895e-09  0.4758361459933725  1.0000
  Na  Na5       1.0  0.749999995  0.500000005  0.4758361459933725  1.0000
  Na  Na6       1.0  0.749999985  0.9999999749999999  0.4934840708362322  1.0000
  Pt  Pt1       1.0  0.749999995  5.000000014998895e-09  0.4565162528701674  1.0000
  Pt  Pt2       1.0  0.25000002499999996  0.500000025  0.495942791532298  1.0000
