data_image0
_chemical_formula_structural       CONa6Pt2
_chemical_formula_sum              "C1 O1 Na6 Pt2"
_cell_length_a       4.88993502
_cell_length_b       4.88993502
_cell_length_c       101.3198048
_cell_angle_alpha    90.0
_cell_angle_beta     90.0
_cell_angle_gamma    90.0

_space_group_name_H-M_alt    "P 1"
_space_group_IT_number       1

loop_
  _space_group_symop_operation_xyz
  'x, y, z'

loop_
  _atom_site_type_symbol
  _atom_site_label
  _atom_site_symmetry_multiplicity
  _atom_site_fract_x
  _atom_site_fract_y
  _atom_site_fract_z
  _atom_site_occupancy
  C   C1        1.0  0.24999998500000004  0.49999998500000004  0.5324711638461566  1.0000
  O   O1        1.0  0.24999999500000003  0.49999998500000004  0.5440164043111966  1.0000
  Na  Na1       1.0  0.7500000149999999  0.5000000649999999  0.5141135466860834  1.0000
  Na  Na2       1.0  0.250000005  5.4999999984177474e-08  0.5141135466860834  1.0000
  Na  Na3       1.0  0.24999999500000003  0.500000025  0.4559835956888033  1.0000
  Na  Na4       1.0  0.24999999500000003  2.4999999984177476e-08  0.4753034888120084  1.0000
  Na  Na5       1.0  0.749999995  0.500000025  0.4753034888120084  1.0000
  Na  Na6       1.0  0.749999995  0.9999999749999999  0.49282312956453  1.0000
  Pt  Pt1       1.0  0.749999995  2.4999999984177476e-08  0.4559835956888033  1.0000
  Pt  Pt2       1.0  0.24999999500000003  0.500000095  0.49312238388986834  1.0000
