data_image0
_chemical_formula_structural       COCa8In8Au8
_chemical_formula_sum              "C1 O1 Ca8 In8 Au8"
_cell_length_a       8.903895489698636
_cell_length_b       8.59694271
_cell_length_c       105.61558197
_cell_angle_alpha    90.0
_cell_angle_beta     115.92823009212256
_cell_angle_gamma    90.0

_space_group_name_H-M_alt    "P 1"
_space_group_IT_number       1

loop_
  _space_group_symop_operation_xyz
  'x, y, z'

loop_
  _atom_site_type_symbol
  _atom_site_label
  _atom_site_symmetry_multiplicity
  _atom_site_fract_x
  _atom_site_fract_y
  _atom_site_fract_z
  _atom_site_occupancy
  C   C1        1.0  0.89910941  0.17910852500000002  0.5439204070612116  1.0000
  O   O1        1.0  0.91985383  0.11311427499999999  0.554158116539707  1.0000
  Ca  Ca1       1.0  0.36926736  0.319910115  0.4802947235036556  1.0000
  Ca  Ca2       1.0  0.8396083  0.320018175  0.520543026310168  1.0000
  Ca  Ca3       1.0  0.5746619100000001  0.688884395  0.5017483001535752  1.0000
  Ca  Ca4       1.0  0.09771238  0.6913327149999999  0.4610357243309584  1.0000
  Ca  Ca5       1.0  0.6192673599999999  0.191332715  0.4592185353919688  1.0000
  Ca  Ca6       1.0  0.10722204  0.188288305  0.5002290813038235  1.0000
  Ca  Ca7       1.0  0.28913379  0.812788645  0.5210537512448706  1.0000
  Ca  Ca8       1.0  0.84771238  0.819910115  0.4821119124426453  1.0000
  In  In1       1.0  0.68904216  0.5710709749999999  0.4533361881509474  1.0000
  In  In2       1.0  0.17798998000000002  0.5667163550000001  0.4959330965895926  1.0000
  In  In3       1.0  0.54234902  0.05172792500000001  0.5119147080446413  1.0000
  In  In4       1.0  0.02793758  0.071070975  0.4669180715719797  1.0000
  In  In5       1.0  0.27793757999999996  0.440171855  0.44584188346029285  1.0000
  In  In6       1.0  0.7779375800000001  0.440171855  0.4879942596836665  1.0000
  In  In7       1.0  0.43904216000000007  0.940171855  0.4744123762626343  1.0000
  In  In8       1.0  0.92168956  0.948272075  0.518511440269136  1.0000
  Au  Au1       1.0  0.22206242  0.122779525  0.45055242499201525  1.0000
  Au  Au2       1.0  0.72206242  0.122779525  0.49270480121538895  1.0000
  Au  Au3       1.0  0.46127692  0.377118695  0.5110702543169031  1.0000
  Au  Au4       1.0  0.97206242  0.38846330500000004  0.4716286131037021  1.0000
  Au  Au5       1.0  0.49491732999999993  0.622779525  0.46970183473091187  1.0000
  Au  Au6       1.0  0.9594822700000001  0.639830395  0.5107830583750278  1.0000
  Au  Au7       1.0  0.7449173299999999  0.888463305  0.4486256466192251  1.0000
  Au  Au8       1.0  0.24491733  0.888463305  0.49077802284259864  1.0000
