data_image0
_chemical_formula_structural       COCa48Zn16
_chemical_formula_sum              "C1 O1 Ca48 Zn16"
_cell_length_a       17.431480993982515
_cell_length_b       16.93002479
_cell_length_c       99.0569909
_cell_angle_alpha    90.0
_cell_angle_beta     76.22366649479632
_cell_angle_gamma    104.59118042289526

_space_group_name_H-M_alt    "P 1"
_space_group_IT_number       1

loop_
  _space_group_symop_operation_xyz
  'x, y, z'

loop_
  _atom_site_type_symbol
  _atom_site_label
  _atom_site_symmetry_multiplicity
  _atom_site_fract_x
  _atom_site_fract_y
  _atom_site_fract_z
  _atom_site_occupancy
  C   C1        1.0  0.04200159999999993  0.16135838499999997  0.5355956941973884  1.0000
  O   O1        1.0  0.013624359999999931  0.14644384499999996  0.5477856334980621  1.0000
  Ca  Ca1       1.0  0.4100350999999999  0.569241235  0.4770305532110927  1.0000
  Ca  Ca2       1.0  0.9100351  0.06924123499999994  0.45607797247749077  1.0000
  Ca  Ca3       1.0  0.8415839199999999  0.6376924150000001  0.4798990106173984  1.0000
  Ca  Ca4       1.0  0.34158392  0.13769241499999998  0.45894642988379647  1.0000
  Ca  Ca5       1.0  0.46001803999999996  0.32982767499999993  0.4749360102911323  1.0000
  Ca  Ca6       1.0  0.9600180399999998  0.8298276749999999  0.45398342955753035  1.0000
  Ca  Ca7       1.0  0.79160098  0.877105975  0.4819935535373589  1.0000
  Ca  Ca8       1.0  0.2916009799999999  0.37710597500000004  0.46104097280375694  1.0000
  Ca  Ca9       1.0  0.6021703599999998  0.6876753549999999  0.48993167120745923  1.0000
  Ca  Ca10      1.0  0.10217035999999995  0.187675355  0.4689790934072182  1.0000
  Ca  Ca11      1.0  0.64944866  0.5192582950000001  0.46699788968767103  1.0000
  Ca  Ca12      1.0  0.14944865999999996  0.019258294999999977  0.48795046748791193  1.0000
  Ca  Ca13      1.0  0.16003509999999996  0.8192412349999999  0.46655426284429174  1.0000
  Ca  Ca14      1.0  0.6600351  0.31924123499999996  0.4875068406445327  1.0000
  Ca  Ca15      1.0  0.5915839199999998  0.8876924150000001  0.46942272025059745  1.0000
  Ca  Ca16      1.0  0.09158391999999993  0.387692415  0.4903752980508384  1.0000
  Ca  Ca17      1.0  0.21001803999999996  0.5798276749999999  0.46445971992433127  1.0000
  Ca  Ca18      1.0  0.7100180399999999  0.07982767499999996  0.4854122977245723  1.0000
  Ca  Ca19      1.0  0.54160098  0.12710597499999998  0.4715172631705579  1.0000
  Ca  Ca20      1.0  0.04160097999999994  0.6271059750000001  0.4924698409707988  1.0000
  Ca  Ca21      1.0  0.35217035999999996  0.9376753549999999  0.4794553837740192  1.0000
  Ca  Ca22      1.0  0.8521703599999999  0.437675355  0.45850280597377824  1.0000
  Ca  Ca23      1.0  0.3994486599999999  0.7692582950000001  0.45652159932087005  1.0000
  Ca  Ca24      1.0  0.89944866  0.26925829500000004  0.47747417712111107  1.0000
  Ca  Ca25      1.0  0.40421375  0.567146205  0.5180827637144956  1.0000
  Ca  Ca26      1.0  0.9100351  0.06924123499999994  0.4979831310113337  1.0000
  Ca  Ca27      1.0  0.84194764  0.6340389849999999  0.5207765570763527  1.0000
  Ca  Ca28      1.0  0.34158392  0.13769241499999998  0.5008515884176394  1.0000
  Ca  Ca29      1.0  0.4537475499999999  0.331675175  0.5167402436081053  1.0000
  Ca  Ca30      1.0  0.9600180399999998  0.8298276749999999  0.49588858809137326  1.0000
  Ca  Ca31      1.0  0.7993948899999999  0.879892995  0.5226538992847185  1.0000
  Ca  Ca32      1.0  0.2958738499999999  0.38065579499999996  0.5004441533816699  1.0000
  Ca  Ca33      1.0  0.60724121  0.693596845  0.5295000850743642  1.0000
  Ca  Ca34      1.0  0.09900020999999995  0.19074599499999995  0.5097417987849526  1.0000
  Ca  Ca35      1.0  0.64975045  0.518703205  0.5075699559372193  1.0000
  Ca  Ca36      1.0  0.14760380999999995  0.039139904999999975  0.5286295544783857  1.0000
  Ca  Ca37      1.0  0.15513058999999996  0.8234018949999999  0.5081445837472959  1.0000
  Ca  Ca38      1.0  0.6683470199999999  0.31934719500000003  0.5273357457639428  1.0000
  Ca  Ca39      1.0  0.5927802099999999  0.8902936949999999  0.5104756582275161  1.0000
  Ca  Ca40      1.0  0.11504421999999993  0.385704835  0.5294758408461068  1.0000
  Ca  Ca41      1.0  0.21251684999999995  0.5783858049999999  0.5045158901167579  1.0000
  Ca  Ca42      1.0  0.7146910799999999  0.08259710499999996  0.5256207474840326  1.0000
  Ca  Ca43      1.0  0.5413992  0.12886705499999995  0.5119835377574191  1.0000
  Ca  Ca44      1.0  0.05340525999999993  0.6233654750000001  0.5325176070841017  1.0000
  Ca  Ca45      1.0  0.3470609699999999  0.9329062350000001  0.5204251375010978  1.0000
  Ca  Ca46      1.0  0.8521703599999999  0.437675355  0.5004079615742602  1.0000
  Ca  Ca47      1.0  0.3994486599999999  0.7692582950000001  0.498426757854713  1.0000
  Ca  Ca48      1.0  0.9047194799999999  0.276086625  0.5189653416238986  1.0000
  Zn  Zn1       1.0  0.49938504999999994  0.479891285  0.4523337513592704  1.0000
  Zn  Zn2       1.0  0.9993850500000002  0.9798912850000001  0.4732863291595113  1.0000
  Zn  Zn3       1.0  0.7522339699999998  0.7270423549999999  0.46269065393537784  1.0000
  Zn  Zn4       1.0  0.25223397  0.22704235499999995  0.48364323173561885  1.0000
  Zn  Zn5       1.0  0.24938504999999994  0.7298912849999999  0.48376261659295133  1.0000
  Zn  Zn6       1.0  0.74938505  0.22989128499999995  0.4628100387927103  1.0000
  Zn  Zn7       1.0  0.5022339699999999  0.9770423549999999  0.45221436650193775  1.0000
  Zn  Zn8       1.0  0.0022339699999999333  0.4770423549999999  0.4731669443021788  1.0000
  Zn  Zn9       1.0  0.49938504999999994  0.479891285  0.4942389069597523  1.0000
  Zn  Zn10      1.0  0.000614949999999933  0.980741705  0.5143001507681524  1.0000
  Zn  Zn11      1.0  0.7552129399999999  0.726049365  0.5046830066234803  1.0000
  Zn  Zn12      1.0  0.25155863999999994  0.23830327499999995  0.5229832013184051  1.0000
  Zn  Zn13      1.0  0.24601257999999993  0.7271983149999999  0.523361467013081  1.0000
  Zn  Zn14      1.0  0.7553573299999999  0.23006904499999997  0.5046663686001679  1.0000
  Zn  Zn15      1.0  0.5022339699999999  0.9770423549999999  0.49411952210241983  1.0000
  Zn  Zn16      1.0  0.006129849999999933  0.4733237950000001  0.5153502998552253  1.0000
