data_image0
_chemical_formula_structural       COCa4Ga4Ca4Ga4Ca4Ga4Ca4Ga4
_chemical_formula_sum              "C1 O1 Ca16 Ga16"
_cell_length_a       8.98478264
_cell_length_b       8.2956908
_cell_length_c       105.19007467
_cell_angle_alpha    90.0
_cell_angle_beta     90.0
_cell_angle_gamma    90.0

_space_group_name_H-M_alt    "P 1"
_space_group_IT_number       1

loop_
  _space_group_symop_operation_xyz
  'x, y, z'

loop_
  _atom_site_type_symbol
  _atom_site_label
  _atom_site_symmetry_multiplicity
  _atom_site_fract_x
  _atom_site_fract_y
  _atom_site_fract_z
  _atom_site_occupancy
  C   C1        1.0  0.12450450499999999  0.37561679  0.5421652300507962  1.0000
  O   O1        1.0  0.12427882499999997  0.37468022  0.5547732638345553  1.0000
  Ca  Ca1       1.0  0.12572117499999996  0.375  0.46915678957271933  1.0000
  Ca  Ca2       1.0  0.375721175  0.125  0.49224819976422723  1.0000
  Ca  Ca3       1.0  0.12561015499999997  0.14069266  0.5254099022161625  1.0000
  Ca  Ca4       1.0  0.38100117499999997  0.37501403  0.5487379010096411  1.0000
  Ga  Ga1       1.0  0.12572117499999996  0.375  0.5009830666053634  1.0000
  Ga  Ga2       1.0  0.375721175  0.125  0.4604219227315831  1.0000
  Ga  Ga3       1.0  0.12572117499999996  0.125  0.4452267361654447  1.0000
  Ga  Ga4       1.0  0.375721175  0.375  0.5161782531715019  1.0000
  Ca  Ca5       1.0  0.12572117499999996  0.8749999999999999  0.46915678957271933  1.0000
  Ca  Ca6       1.0  0.375721175  0.625  0.49224819976422723  1.0000
  Ca  Ca7       1.0  0.125609965  0.6092067899999999  0.5254164859235291  1.0000
  Ca  Ca8       1.0  0.39025984499999994  0.8749609400000001  0.5466687501746005  1.0000
  Ga  Ga5       1.0  0.12572117499999996  0.8749999999999999  0.5009830666053634  1.0000
  Ga  Ga6       1.0  0.375721175  0.625  0.4604219227315831  1.0000
  Ga  Ga7       1.0  0.12572117499999996  0.625  0.4452267361654447  1.0000
  Ga  Ga8       1.0  0.375721175  0.8749999999999999  0.5161782531715019  1.0000
  Ca  Ca9       1.0  0.6257211749999999  0.375  0.46915678957271933  1.0000
  Ca  Ca10      1.0  0.875721175  0.125  0.49224819976422723  1.0000
  Ca  Ca11      1.0  0.6254787049999999  0.12871911  0.5242536151922325  1.0000
  Ca  Ca12      1.0  0.8680150849999999  0.37501753  0.5487515100145027  1.0000
  Ga  Ga9       1.0  0.6257211749999999  0.375  0.5009830666053634  1.0000
  Ga  Ga10      1.0  0.875721175  0.125  0.4604219227315831  1.0000
  Ga  Ga11      1.0  0.6257211749999999  0.125  0.4452267361654447  1.0000
  Ga  Ga12      1.0  0.875721175  0.375  0.5161782531715019  1.0000
  Ca  Ca13      1.0  0.6257211749999999  0.8749999999999999  0.46915678957271933  1.0000
  Ca  Ca14      1.0  0.875721175  0.625  0.49224819976422723  1.0000
  Ca  Ca15      1.0  0.6254787350000001  0.6212809899999999  0.5242529427709007  1.0000
  Ca  Ca16      1.0  0.860761235  0.87496958  0.5466497584537059  1.0000
  Ga  Ga13      1.0  0.6257211749999999  0.8749999999999999  0.5009830666053634  1.0000
  Ga  Ga14      1.0  0.875721175  0.625  0.4604219227315831  1.0000
  Ga  Ga15      1.0  0.6257211749999999  0.625  0.4452267361654447  1.0000
  Ga  Ga16      1.0  0.875721175  0.8749999999999999  0.5161782531715019  1.0000
