data_image0
_chemical_formula_structural       COCa4Ge8Ir8
_chemical_formula_sum              "C1 O1 Ca4 Ge8 Ir8"
_cell_length_a       6.055159948994618
_cell_length_b       5.97218276
_cell_length_c       105.83309656
_cell_angle_alpha    90.0
_cell_angle_beta     90.0
_cell_angle_gamma    119.54771614670143

_space_group_name_H-M_alt    "P 1"
_space_group_IT_number       1

loop_
  _space_group_symop_operation_xyz
  'x, y, z'

loop_
  _atom_site_type_symbol
  _atom_site_label
  _atom_site_symmetry_multiplicity
  _atom_site_fract_x
  _atom_site_fract_y
  _atom_site_fract_z
  _atom_site_occupancy
  C   C1        1.0  0.7884912850000001  0.392424885  0.554120174613382  1.0000
  O   O1        1.0  0.7368511849999999  0.36673438499999994  0.564833462673613  1.0000
  Ca  Ca1       1.0  0.12841544499999996  0.06234056499999993  0.44927408834751015  1.0000
  Ca  Ca2       1.0  0.12841544499999996  0.562340565  0.4774891870039445  1.0000
  Ca  Ca3       1.0  0.12854316499999996  0.06240460499999993  0.5056116024433971  1.0000
  Ca  Ca4       1.0  0.12094681499999997  0.5585990149999999  0.5337847034881034  1.0000
  Ge  Ge1       1.0  0.879053185  0.43765943499999993  0.44927408834751015  1.0000
  Ge  Ge2       1.0  0.879053185  0.9376594349999999  0.4774891870039445  1.0000
  Ge  Ge3       1.0  0.37777770499999996  0.18702169499999988  0.4774891870039445  1.0000
  Ge  Ge4       1.0  0.37777770499999996  0.6870216949999999  0.44927408834751015  1.0000
  Ge  Ge5       1.0  0.8747330249999998  0.4354990549999998  0.5057907829988839  1.0000
  Ge  Ge6       1.0  0.8745475149999999  0.9354091149999999  0.533870987520454  1.0000
  Ge  Ge7       1.0  0.440344865  0.21830476499999987  0.5362513826289186  1.0000
  Ge  Ge8       1.0  0.381568545  0.6889108949999999  0.5057932918855568  1.0000
  Ir  Ir1       1.0  0.628415445  0.062340564999999924  0.435166537326387  1.0000
  Ir  Ir2       1.0  0.628415445  0.562340565  0.46338163598282134  1.0000
  Ir  Ir3       1.0  0.628415445  0.562340565  0.435166537326387  1.0000
  Ir  Ir4       1.0  0.628415445  0.062340564999999924  0.46338163598282134  1.0000
  Ir  Ir5       1.0  0.628415445  0.062340564999999924  0.4915967380250677  1.0000
  Ir  Ir6       1.0  0.6313207249999999  0.5643581449999999  0.5202259655015029  1.0000
  Ir  Ir7       1.0  0.628415445  0.562340565  0.4915967380250677  1.0000
  Ir  Ir8       1.0  0.6313162649999999  0.06322818499999985  0.520225819911588  1.0000
