data_image0
_chemical_formula_structural       COPt9Pb3
_chemical_formula_sum              "C1 O1 Pt9 Pb3"
_cell_length_a       5.87323622
_cell_length_b       5.873236220912021
_cell_length_c       98.77286376
_cell_angle_alpha    90.0
_cell_angle_beta     90.0
_cell_angle_gamma    60.000000005136755

_space_group_name_H-M_alt    "P 1"
_space_group_IT_number       1

loop_
  _space_group_symop_operation_xyz
  'x, y, z'

loop_
  _atom_site_type_symbol
  _atom_site_label
  _atom_site_symmetry_multiplicity
  _atom_site_fract_x
  _atom_site_fract_y
  _atom_site_fract_z
  _atom_site_occupancy
  C   C1        1.0  0.06766668999999997  0.55940231  0.5285542803007882  1.0000
  O   O1        1.0  0.10088017999999993  0.54264446  0.5402586382125314  1.0000
  Pt  Pt1       1.0  0.36478747000000006  0.91099185  0.48348611347602466  1.0000
  Pt  Pt2       1.0  0.7056395300000001  0.24050195999999993  0.4597413617874686  1.0000
  Pt  Pt3       1.0  0.9913336299999999  0.59765458  0.5101224148071188  1.0000
  Pt  Pt4       1.0  0.8858899099999998  0.89565638  0.48512876128081367  1.0000
  Pt  Pt5       1.0  0.2056395299999999  0.24050195999999993  0.4597413617874686  1.0000
  Pt  Pt6       1.0  0.5070354200000001  0.5897114099999999  0.5063951071823687  1.0000
  Pt  Pt7       1.0  0.88591417  0.40517131999999995  0.4851305353180707  1.0000
  Pt  Pt8       1.0  0.2056395299999999  0.74050196  0.4597413617874686  1.0000
  Pt  Pt9       1.0  0.5070810199999999  0.08994295999999995  0.5063954567463602  1.0000
  Pb  Pb1       1.0  0.70563953  0.74050196  0.4597413617874686  1.0000
  Pb  Pb2       1.0  0.008666370000000256  0.08900814999999994  0.5103515656557078  1.0000
  Pb  Pb3       1.0  0.38029164000000004  0.40321100999999987  0.4827497540148077  1.0000
