data_image0
_chemical_formula_structural       COAu12Ti6Zn6
_chemical_formula_sum              "C1 O1 Au12 Ti6 Zn6"
_cell_length_a       6.48342462
_cell_length_b       7.940541048355761
_cell_length_c       104.91431009
_cell_angle_alpha    94.34775312693672
_cell_angle_beta     90.0
_cell_angle_gamma    114.09484256515778

_space_group_name_H-M_alt    "P 1"
_space_group_IT_number       1

loop_
  _space_group_symop_operation_xyz
  'x, y, z'

loop_
  _atom_site_type_symbol
  _atom_site_label
  _atom_site_symmetry_multiplicity
  _atom_site_fract_x
  _atom_site_fract_y
  _atom_site_fract_z
  _atom_site_occupancy
  C   C1        1.0  0.2934533850000001  0.3417242100000001  0.5409841036962985  1.0000
  O   O1        1.0  0.35899172500000015  0.4093602700000001  0.5513717275219802  1.0000
  Au  Au1       1.0  0.5141706350000002  0.51411799  0.5187412772894133  1.0000
  Au  Au2       1.0  0.0883284250000001  0.6551280700000002  0.4902268757334397  1.0000
  Au  Au3       1.0  0.6716617550000001  0.8217947400000001  0.4624944713445677  1.0000
  Au  Au4       1.0  0.4633284250000001  0.40512807  0.44862827247801995  1.0000
  Au  Au5       1.0  0.285948385  0.05320526000000001  0.5036234862712226  1.0000
  Au  Au6       1.0  0.8799950950000001  0.2384614  0.47636067353900374  1.0000
  Au  Au7       1.0  0.963328425  0.40512807  0.44862827247801995  1.0000
  Au  Au8       1.0  0.7952611150000001  0.07285620000000004  0.5054823281774116  1.0000
  Au  Au9       1.0  0.37999509500000006  0.2384614  0.47636067353900374  1.0000
  Au  Au10      1.0  0.015838245000000025  0.48611942999999996  0.5173672854075515  1.0000
  Au  Au11      1.0  0.5883284250000002  0.6551280700000002  0.4902268757334397  1.0000
  Au  Au12      1.0  0.17166175500000014  0.8217947400000001  0.4624944713445677  1.0000
  Ti  Ti1       1.0  0.6937932650000002  0.37105021000000005  0.4976752287781883  1.0000
  Ti  Ti2       1.0  0.2758284250000001  0.5301280700000001  0.46942757410572983  1.0000
  Ti  Ti3       1.0  0.14803462500000003  0.21040656000000002  0.523258925537611  1.0000
  Ti  Ti4       1.0  0.9841617550000001  0.9467947400000002  0.4832937729722776  1.0000
  Ti  Ti5       1.0  0.5674950950000001  0.11346140000000003  0.4555613719112938  1.0000
  Ti  Ti6       1.0  0.40563545500000014  0.7831386500000002  0.5101159766267033  1.0000
  Zn  Zn1       1.0  0.19419906500000003  0.35595906  0.49682493336031797  1.0000
  Zn  Zn2       1.0  0.7758284250000002  0.5301280700000001  0.46942757410572983  1.0000
  Zn  Zn3       1.0  0.587334235  0.20640458000000003  0.5236568877273468  1.0000
  Zn  Zn4       1.0  0.48416175500000014  0.9467947400000002  0.4832937729722776  1.0000
  Zn  Zn5       1.0  0.06749509500000006  0.11346140000000003  0.4555613719112938  1.0000
  Zn  Zn6       1.0  0.9021209250000002  0.7812599600000001  0.5118569014681603  1.0000
