data_image0
_chemical_formula_structural       CONi8Sb8Zn8Ni8Sb8Zn8
_chemical_formula_sum              "C1 O1 Ni16 Sb16 Zn16"
_cell_length_a       10.421633576054072
_cell_length_b       8.50922818
_cell_length_c       109.45566794
_cell_angle_alpha    90.0
_cell_angle_beta     84.94884748712145
_cell_angle_gamma    90.0

_space_group_name_H-M_alt    "P 1"
_space_group_IT_number       1

loop_
  _space_group_symop_operation_xyz
  'x, y, z'

loop_
  _atom_site_type_symbol
  _atom_site_label
  _atom_site_symmetry_multiplicity
  _atom_site_fract_x
  _atom_site_fract_y
  _atom_site_fract_z
  _atom_site_occupancy
  C   C1        1.0  0.9415400749999999  0.37500101500000005  0.5419441884943532  1.0000
  O   O1        1.0  0.9244581450000001  0.37500227500000005  0.5526614295336574  1.0000
  Ni  Ni1       1.0  0.385334195  0.12498803500000003  0.44733857046634273  1.0000
  Ni  Ni2       1.0  0.32826565500000005  0.12514171500000001  0.514882833689848  1.0000
  Ni  Ni3       1.0  0.010334195000000006  0.12498803500000003  0.4923975298178451  1.0000
  Ni  Ni4       1.0  0.6978341950000001  0.12498803500000003  0.46986805014209393  1.0000
  Ni  Ni5       1.0  0.6660328350000001  0.3749916750000001  0.5036341456556518  1.0000
  Ni  Ni6       1.0  0.35408419500000005  0.37498803500000005  0.48113278997996944  1.0000
  Ni  Ni7       1.0  0.041584195  0.37498803500000005  0.4586033103042183  1.0000
  Ni  Ni8       1.0  0.9789520850000001  0.3749780650000001  0.5259244199327145  1.0000
  Sb  Sb1       1.0  0.576909145  0.12501444500000003  0.5155289791669486  1.0000
  Sb  Sb2       1.0  0.26033419500000005  0.12498803500000003  0.4923975298178451  1.0000
  Sb  Sb3       1.0  0.947834195  0.12498803500000003  0.46986805014209393  1.0000
  Sb  Sb4       1.0  0.635334195  0.12498803500000003  0.4473385704663428  1.0000
  Sb  Sb5       1.0  0.604084195  0.37498803500000005  0.4811327899799695  1.0000
  Sb  Sb6       1.0  0.291584195  0.37498803500000005  0.4586033103042183  1.0000
  Sb  Sb7       1.0  0.232018605  0.374940965  0.525853244800523  1.0000
  Sb  Sb8       1.0  0.921649025  0.37499089500000005  0.5033292551083791  1.0000
  Zn  Zn1       1.0  0.41689793500000005  0.37497741500000004  0.5039745859194945  1.0000
  Zn  Zn2       1.0  0.10408419500000003  0.37498803500000005  0.48113278997996956  1.0000
  Zn  Zn3       1.0  0.791584195  0.37498803500000005  0.4586033103042183  1.0000
  Zn  Zn4       1.0  0.745374515  0.37498686500000006  0.5245258979759464  1.0000
  Zn  Zn5       1.0  0.760334195  0.12498803500000003  0.49239752981784507  1.0000
  Zn  Zn6       1.0  0.44783419500000005  0.12498803500000003  0.46986805014209393  1.0000
  Zn  Zn7       1.0  0.135334195  0.12498803500000003  0.44733857046634273  1.0000
  Zn  Zn8       1.0  0.08232389500000001  0.12644879500000003  0.515120359290532  1.0000
  Ni  Ni9       1.0  0.385334195  0.624988035  0.44733857046634273  1.0000
  Ni  Ni10      1.0  0.32822781500000003  0.624774645  0.5148875738923718  1.0000
  Ni  Ni11      1.0  0.010334195000000006  0.624988035  0.4923975298178451  1.0000
  Ni  Ni12      1.0  0.6978341950000001  0.624988035  0.46986805014209393  1.0000
  Ni  Ni13      1.0  0.6657890249999999  0.874983295  0.5036550133609068  1.0000
  Ni  Ni14      1.0  0.35408419500000005  0.8749880350000001  0.48113278997996944  1.0000
  Ni  Ni15      1.0  0.041584195  0.8749880350000001  0.4586033103042183  1.0000
  Ni  Ni16      1.0  0.989665805  0.874983445  0.5240965329546443  1.0000
  Sb  Sb9       1.0  0.5768847349999999  0.6249657850000001  0.5155287232320594  1.0000
  Sb  Sb10      1.0  0.26033419500000005  0.624988035  0.4923975298178451  1.0000
  Sb  Sb11      1.0  0.947834195  0.624988035  0.46986805014209393  1.0000
  Sb  Sb12      1.0  0.635334195  0.624988035  0.4473385704663428  1.0000
  Sb  Sb13      1.0  0.604084195  0.8749880350000001  0.4811327899799695  1.0000
  Sb  Sb14      1.0  0.291584195  0.8749880350000001  0.4586033103042183  1.0000
  Sb  Sb15      1.0  0.232882495  0.874972245  0.5262815320115173  1.0000
  Sb  Sb16      1.0  0.9185580449999999  0.874981325  0.5029301084275765  1.0000
  Zn  Zn9       1.0  0.417044355  0.874955925  0.5042183368660025  1.0000
  Zn  Zn10      1.0  0.10408419500000003  0.8749880350000001  0.48113278997996956  1.0000
  Zn  Zn11      1.0  0.791584195  0.8749880350000001  0.4586033103042183  1.0000
  Zn  Zn12      1.0  0.7503208650000001  0.875011965  0.5251338226413667  1.0000
  Zn  Zn13      1.0  0.760334195  0.624988035  0.49239752981784507  1.0000
  Zn  Zn14      1.0  0.44783419500000005  0.624988035  0.46986805014209393  1.0000
  Zn  Zn15      1.0  0.135334195  0.624988035  0.44733857046634273  1.0000
  Zn  Zn16      1.0  0.08234725500000001  0.623502615  0.515121548847059  1.0000
