data_image0
_chemical_formula_structural       COVPd3VPd3VPd3VPd3VPd3VPd3VPd3VPd3
_chemical_formula_sum              "C1 O1 V8 Pd24"
_cell_length_a       7.82946544
_cell_length_b       7.82946544
_cell_length_c       101.31786176
_cell_angle_alpha    90.0
_cell_angle_beta     90.0
_cell_angle_gamma    90.0

_space_group_name_H-M_alt    "P 1"
_space_group_IT_number       1

loop_
  _space_group_symop_operation_xyz
  'x, y, z'

loop_
  _atom_site_type_symbol
  _atom_site_label
  _atom_site_symmetry_multiplicity
  _atom_site_fract_x
  _atom_site_fract_y
  _atom_site_fract_z
  _atom_site_occupancy
  C   C1        1.0  0.3803058349999999  0.12052354999999998  0.5333702352263573  1.0000
  O   O1        1.0  0.382000905  0.12052355999999999  0.5448641083291337  1.0000
  V   V1        1.0  0.12281369499999997  0.12052357999999999  0.49563484334683827  1.0000
  Pd  Pd1       1.0  0.3770811049999999  0.36157058999999997  0.4937061577184015  1.0000
  Pd  Pd2       1.0  0.376794595  0.12052354999999998  0.5144452296665689  1.0000
  Pd  Pd3       1.0  0.12592347499999998  0.37060925  0.5123807727401545  1.0000
  V   V2        1.0  0.12711628499999997  0.12052352  0.4551358916708663  1.0000
  Pd  Pd4       1.0  0.377116285  0.37052352  0.4551358916708663  1.0000
  Pd  Pd5       1.0  0.377116285  0.12052352  0.4744549567004519  1.0000
  Pd  Pd6       1.0  0.12711628499999997  0.37052352  0.4744549567004519  1.0000
  V   V3        1.0  0.127821585  0.6205234599999999  0.49578615026415  1.0000
  Pd  Pd7       1.0  0.3770812249999999  0.8794764899999999  0.4937061639005023  1.0000
  Pd  Pd8       1.0  0.376859525  0.62052351  0.5120999291735316  1.0000
  Pd  Pd9       1.0  0.12592348499999997  0.87043782  0.5123807603759529  1.0000
  V   V4        1.0  0.12711628499999997  0.62052352  0.4551358916708663  1.0000
  Pd  Pd10      1.0  0.377116285  0.87052352  0.4551358916708663  1.0000
  Pd  Pd11      1.0  0.377116285  0.62052352  0.4744549567004519  1.0000
  Pd  Pd12      1.0  0.12711628499999997  0.87052352  0.4744549567004519  1.0000
  V   V5        1.0  0.6315499849999999  0.12052352  0.49561510389895364  1.0000
  Pd  Pd13      1.0  0.877186305  0.37014912  0.49359078426204483  1.0000
  Pd  Pd14      1.0  0.8770988449999999  0.12052350999999999  0.51267843780308  1.0000
  Pd  Pd15      1.0  0.628004255  0.37056321999999997  0.5123720961616685  1.0000
  V   V6        1.0  0.627116285  0.12052352  0.4551358916708663  1.0000
  Pd  Pd16      1.0  0.877116285  0.37052352  0.4551358916708663  1.0000
  Pd  Pd17      1.0  0.877116285  0.12052352  0.4744549567004519  1.0000
  Pd  Pd18      1.0  0.627116285  0.37052352  0.4744549567004519  1.0000
  V   V7        1.0  0.6262935649999999  0.62052353  0.49577771169654516  1.0000
  Pd  Pd19      1.0  0.877186235  0.87089792  0.4935907811709944  1.0000
  Pd  Pd20      1.0  0.8769314650000001  0.62052355  0.512349930239216  1.0000
  Pd  Pd21      1.0  0.6280042749999999  0.8704838399999999  0.5123720992527188  1.0000
  V   V8        1.0  0.627116285  0.62052352  0.4551358916708663  1.0000
  Pd  Pd22      1.0  0.877116285  0.87052352  0.4551358916708663  1.0000
  Pd  Pd23      1.0  0.877116285  0.62052352  0.4744549567004519  1.0000
  Pd  Pd24      1.0  0.627116285  0.87052352  0.4744549567004519  1.0000
