data_image0
_chemical_formula_structural       CONa32Zn16Ge16
_chemical_formula_sum              "C1 O1 Na32 Zn16 Ge16"
_cell_length_a       17.76311285309497
_cell_length_b       9.398464752520004
_cell_length_c       109.83978539
_cell_angle_alpha    101.75166504198933
_cell_angle_beta     96.26102712205834
_cell_angle_gamma    47.04947942507656

_space_group_name_H-M_alt    "P 1"
_space_group_IT_number       1

loop_
  _space_group_symop_operation_xyz
  'x, y, z'

loop_
  _atom_site_type_symbol
  _atom_site_label
  _atom_site_symmetry_multiplicity
  _atom_site_fract_x
  _atom_site_fract_y
  _atom_site_fract_z
  _atom_site_occupancy
  C   C1        1.0  0.4907198299999999  0.43430382500000003  0.5568121364366588  1.0000
  O   O1        1.0  0.52621417  0.43468373500000007  0.566265533160381  1.0000
  Na  Na1       1.0  0.7937098199999999  0.9232784750000002  0.5359573825971233  1.0000
  Na  Na2       1.0  0.5653977200000001  0.637670745  0.4402522561321  1.0000
  Na  Na3       1.0  0.06539772  0.13767074499999998  0.5007036121001772  1.0000
  Na  Na4       1.0  0.31539772  0.387670745  0.4704779341161386  1.0000
  Na  Na5       1.0  0.69307564  0.6178115650000001  0.5031046421240738  1.0000
  Na  Na6       1.0  0.45669602000000004  0.348243625  0.5329718012369318  1.0000
  Na  Na7       1.0  0.9430756399999999  0.8678115650000001  0.47287896414003516  1.0000
  Na  Na8       1.0  0.19307564  0.117811565  0.442653282528915  1.0000
  Na  Na9       1.0  0.86502351  0.461818335  0.5256928507556033  1.0000
  Na  Na10      1.0  0.6193070900000001  0.191580115  0.43373446683961886  1.0000
  Na  Na11      1.0  0.11930709  0.6915801149999999  0.49418582280769613  1.0000
  Na  Na12      1.0  0.36930709000000006  0.9415801149999999  0.46396014482365744  1.0000
  Na  Na13      1.0  0.6391662700000001  0.063902195  0.5096224314165549  1.0000
  Na  Na14      1.0  0.4000886100000001  0.810355755  0.5386565297039283  1.0000
  Na  Na15      1.0  0.88916627  0.313902195  0.4793967534325163  1.0000
  Na  Na16      1.0  0.13916627  0.563902195  0.44917107182139615  1.0000
  Na  Na17      1.0  0.44039771999999994  0.012670744999999987  0.5158164529057373  1.0000
  Na  Na18      1.0  0.14861031  0.833840655  0.5492684380222512  1.0000
  Na  Na19      1.0  0.69039772  0.262670745  0.48559077492169866  1.0000
  Na  Na20      1.0  0.9403977199999998  0.5126707450000001  0.4553650933105786  1.0000
  Na  Na21      1.0  0.06807563999999999  0.49281156500000006  0.5182174829296339  1.0000
  Na  Na22      1.0  0.83101371  0.24279478499999999  0.5487613611468638  1.0000
  Na  Na23      1.0  0.31807564  0.742811565  0.4879918013185138  1.0000
  Na  Na24      1.0  0.5680756399999999  0.992811565  0.45776612333447514  1.0000
  Na  Na25      1.0  0.7443070899999998  0.816580115  0.4790729856292176  1.0000
  Na  Na26      1.0  0.49430709000000006  0.566580115  0.509298663613256  1.0000
  Na  Na27      1.0  0.9943070899999997  0.066580115  0.4488473040180974  1.0000
  Na  Na28      1.0  0.23451855999999993  0.338766595  0.5406933136949508  1.0000
  Na  Na29      1.0  0.76416627  0.688902195  0.43405823464291765  1.0000
  Na  Na30      1.0  0.5141662699999999  0.438902195  0.46428391262695634  1.0000
  Na  Na31      1.0  0.014163369999999988  0.9459723950000001  0.5244995808389576  1.0000
  Na  Na32      1.0  0.26416627000000004  0.188902195  0.49450959061099486  1.0000
  Zn  Zn1       1.0  0.62923668  0.6277411549999999  0.47167844731454617  1.0000
  Zn  Zn2       1.0  0.37923668000000005  0.377741155  0.5019041289256663  1.0000
  Zn  Zn3       1.0  0.8792366799999999  0.8777411549999999  0.44145276933050753  1.0000
  Zn  Zn4       1.0  0.13011776  0.122445165  0.5322512089546974  1.0000
  Zn  Zn5       1.0  0.5042366800000001  0.002741154999999987  0.48679128812010614  1.0000
  Zn  Zn6       1.0  0.25423668000000005  0.752741155  0.5170169661041448  1.0000
  Zn  Zn7       1.0  0.7542366800000001  0.252741155  0.4565656101360676  1.0000
  Zn  Zn8       1.0  0.005009079999999968  0.5081983550000001  0.546413232106691  1.0000
  Zn  Zn9       1.0  0.004236679999999973  0.502741155  0.48679128812010625  1.0000
  Zn  Zn10      1.0  0.7542366800000001  0.252741155  0.5170169661041449  1.0000
  Zn  Zn11      1.0  0.25423668000000005  0.752741155  0.45656561013606756  1.0000
  Zn  Zn12      1.0  0.48517450000000006  0.025924284999999988  0.5444638498986504  1.0000
  Zn  Zn13      1.0  0.8792366799999999  0.8777411549999999  0.5019041289256663  1.0000
  Zn  Zn14      1.0  0.63065554  0.6285451449999999  0.5320836776871476  1.0000
  Zn  Zn15      1.0  0.12923668  0.127741155  0.47167844731454617  1.0000
  Zn  Zn16      1.0  0.37923668000000005  0.377741155  0.44145276933050753  1.0000
  Ge  Ge1       1.0  0.50971899  0.258223465  0.48612846073789134  1.0000
  Ge  Ge2       1.0  0.25971899000000004  0.008223464999999987  0.5163541423490114  1.0000
  Ge  Ge3       1.0  0.7597189899999999  0.508223465  0.45590278275385265  1.0000
  Ge  Ge4       1.0  0.009321700000000013  0.7568521749999999  0.5450165119343696  1.0000
  Ge  Ge5       1.0  0.49875437000000006  0.747258845  0.48745411550232104  1.0000
  Ge  Ge6       1.0  0.24875436999999992  0.49725884500000006  0.5176797934863598  1.0000
  Ge  Ge7       1.0  0.7487543699999999  0.9972588450000001  0.45722843389120105  1.0000
  Ge  Ge8       1.0  0.9957633199999998  0.262834455  0.5475911159436003  1.0000
  Ge  Ge9       1.0  0.6348745  0.8808495350000001  0.5304736524787064  1.0000
  Ge  Ge10      1.0  0.38471899  0.633223465  0.44078994194829263  1.0000
  Ge  Ge11      1.0  0.88471899  0.13322346499999999  0.5012413015434514  1.0000
  Ge  Ge12      1.0  0.13471898999999996  0.38322346500000004  0.4710156235594127  1.0000
  Ge  Ge13      1.0  0.8737543699999999  0.6222588450000001  0.5025669526807997  1.0000
  Ge  Ge14      1.0  0.6262828699999999  0.375000675  0.5331102106670925  1.0000
  Ge  Ge15      1.0  0.12375436999999989  0.8722588450000002  0.47234127469676107  1.0000
  Ge  Ge16      1.0  0.37375437  0.12225884499999999  0.4421155967127225  1.0000
