data_image0
_chemical_formula_structural       COAl4Ir8Zn4Al4Ir8Zn4Al4Ir8Zn4Al4Ir8Zn4
_chemical_formula_sum              "C1 O1 Al16 Ir32 Zn16"
_cell_length_a       8.60273124
_cell_length_b       8.60273124
_cell_length_c       106.4982976
_cell_angle_alpha    90.0
_cell_angle_beta     90.0
_cell_angle_gamma    90.0

_space_group_name_H-M_alt    "P 1"
_space_group_IT_number       1

loop_
  _space_group_symop_operation_xyz
  'x, y, z'

loop_
  _atom_site_type_symbol
  _atom_site_label
  _atom_site_symmetry_multiplicity
  _atom_site_fract_x
  _atom_site_fract_y
  _atom_site_fract_z
  _atom_site_occupancy
  C   C1        1.0  0.3750205199999999  0.12348704999999997  0.554840680855275  1.0000
  O   O1        1.0  0.3750135599999999  0.12348699999999999  0.5657622187506937  1.0000
  Al  Al1       1.0  0.12501363999999998  0.37348699999999996  0.47707684349549945  1.0000
  Al  Al2       1.0  0.37501364  0.12348699999999999  0.448517466379954  1.0000
  Al  Al3       1.0  0.12539682  0.37310385999999995  0.5322776175130786  1.0000
  Al  Al4       1.0  0.37501364  0.12348699999999999  0.5056362171839198  1.0000
  Ir  Ir1       1.0  0.37501364  0.37348699999999996  0.46279715493772666  1.0000
  Ir  Ir2       1.0  0.12501363999999998  0.12348699999999999  0.46279715493772666  1.0000
  Ir  Ir3       1.0  0.12501363999999998  0.12348699999999999  0.4342377812493063  1.0000
  Ir  Ir4       1.0  0.37501364  0.37348699999999996  0.4342377812493063  1.0000
  Ir  Ir5       1.0  0.37501359  0.37046104  0.5205566136108964  1.0000
  Ir  Ir6       1.0  0.12803959999999998  0.12348701999999998  0.5205566410278964  1.0000
  Ir  Ir7       1.0  0.12501363999999998  0.12348699999999999  0.4913565286261471  1.0000
  Ir  Ir8       1.0  0.37501364  0.37348699999999996  0.4913565286261471  1.0000
  Zn  Zn1       1.0  0.37501364  0.12348699999999999  0.47707684349549945  1.0000
  Zn  Zn2       1.0  0.12501363999999998  0.37348699999999996  0.448517466379954  1.0000
  Zn  Zn3       1.0  0.37501381999999994  0.12348706999999998  0.5357052908327709  1.0000
  Zn  Zn4       1.0  0.12501363999999998  0.37348699999999996  0.5056362171839198  1.0000
  Al  Al5       1.0  0.12501363999999998  0.8734869999999999  0.47707684349549945  1.0000
  Al  Al6       1.0  0.37501364  0.6234869999999999  0.448517466379954  1.0000
  Al  Al7       1.0  0.12539681  0.8738701799999999  0.5322776209402036  1.0000
  Al  Al8       1.0  0.37501364  0.6234869999999999  0.5056362171839198  1.0000
  Ir  Ir9       1.0  0.37501364  0.8734869999999999  0.46279715493772666  1.0000
  Ir  Ir10      1.0  0.12501363999999998  0.6234869999999999  0.46279715493772666  1.0000
  Ir  Ir11      1.0  0.12501363999999998  0.6234869999999999  0.4342377812493063  1.0000
  Ir  Ir12      1.0  0.37501364  0.8734869999999999  0.4342377812493063  1.0000
  Ir  Ir13      1.0  0.37501359  0.876513  0.5205566204651465  1.0000
  Ir  Ir14      1.0  0.12498636  0.62348702  0.520530546898301  1.0000
  Ir  Ir15      1.0  0.12501363999999998  0.6234869999999999  0.4913565286261471  1.0000
  Ir  Ir16      1.0  0.37501364  0.8734869999999999  0.4913565286261471  1.0000
  Zn  Zn5       1.0  0.37501364  0.6234869999999999  0.47707684349549945  1.0000
  Zn  Zn6       1.0  0.12501363999999998  0.8734869999999999  0.448517466379954  1.0000
  Zn  Zn7       1.0  0.37501359  0.62348699  0.5342159000149699  1.0000
  Zn  Zn8       1.0  0.12501363999999998  0.8734869999999999  0.5056362171839198  1.0000
  Al  Al9       1.0  0.62501364  0.37348699999999996  0.47707684349549945  1.0000
  Al  Al10      1.0  0.8750136399999999  0.12348699999999999  0.448517466379954  1.0000
  Al  Al11      1.0  0.6246303599999999  0.37310373999999996  0.5322776175130786  1.0000
  Al  Al12      1.0  0.8750136399999999  0.12348699999999999  0.5056362171839198  1.0000
  Ir  Ir17      1.0  0.8750136399999999  0.37348699999999996  0.46279715493772666  1.0000
  Ir  Ir18      1.0  0.62501364  0.12348699999999999  0.46279715493772666  1.0000
  Ir  Ir19      1.0  0.62501364  0.12348699999999999  0.4342377812493063  1.0000
  Ir  Ir20      1.0  0.8750136399999999  0.37348699999999996  0.4342377812493063  1.0000
  Ir  Ir21      1.0  0.8750136  0.37351424999999994  0.520530543471176  1.0000
  Ir  Ir22      1.0  0.62198765  0.12348701999999998  0.5205565999023967  1.0000
  Ir  Ir23      1.0  0.62501364  0.12348699999999999  0.4913565286261471  1.0000
  Ir  Ir24      1.0  0.8750136399999999  0.37348699999999996  0.4913565286261471  1.0000
  Zn  Zn9       1.0  0.8750136399999999  0.12348699999999999  0.47707684349549945  1.0000
  Zn  Zn10      1.0  0.62501364  0.37348699999999996  0.448517466379954  1.0000
  Zn  Zn11      1.0  0.87501342  0.12348701999999998  0.5342159000149699  1.0000
  Zn  Zn12      1.0  0.62501364  0.37348699999999996  0.5056362171839198  1.0000
  Al  Al13      1.0  0.62501364  0.8734869999999999  0.47707684349549945  1.0000
  Al  Al14      1.0  0.8750136399999999  0.6234869999999999  0.448517466379954  1.0000
  Al  Al15      1.0  0.6246303799999999  0.8738702999999999  0.5322776175130786  1.0000
  Al  Al16      1.0  0.8750136399999999  0.6234869999999999  0.5056362171839198  1.0000
  Ir  Ir25      1.0  0.8750136399999999  0.8734869999999999  0.46279715493772666  1.0000
  Ir  Ir26      1.0  0.62501364  0.6234869999999999  0.46279715493772666  1.0000
  Ir  Ir27      1.0  0.62501364  0.6234869999999999  0.4342377812493063  1.0000
  Ir  Ir28      1.0  0.8750136399999999  0.8734869999999999  0.4342377812493063  1.0000
  Ir  Ir29      1.0  0.87501361  0.8734597899999998  0.520530543471176  1.0000
  Ir  Ir30      1.0  0.6250408099999999  0.62348702  0.520530550325426  1.0000
  Ir  Ir31      1.0  0.62501364  0.6234869999999999  0.4913565286261471  1.0000
  Ir  Ir32      1.0  0.8750136399999999  0.8734869999999999  0.4913565286261471  1.0000
  Zn  Zn13      1.0  0.8750136399999999  0.6234869999999999  0.47707684349549945  1.0000
  Zn  Zn14      1.0  0.62501364  0.8734869999999999  0.448517466379954  1.0000
  Zn  Zn15      1.0  0.87501359  0.62348702  0.534441552205008  1.0000
  Zn  Zn16      1.0  0.62501364  0.8734869999999999  0.5056362171839198  1.0000
