data_image0
_chemical_formula_structural       COCa4Zn4Si4Ca4Zn4Si4
_chemical_formula_sum              "C1 O1 Ca8 Zn8 Si8"
_cell_length_a       7.41888324
_cell_length_b       9.355287708613274
_cell_length_c       104.26635387
_cell_angle_alpha    117.24829168088505
_cell_angle_beta     90.0
_cell_angle_gamma    90.0

_space_group_name_H-M_alt    "P 1"
_space_group_IT_number       1

loop_
  _space_group_symop_operation_xyz
  'x, y, z'

loop_
  _atom_site_type_symbol
  _atom_site_label
  _atom_site_symmetry_multiplicity
  _atom_site_fract_x
  _atom_site_fract_y
  _atom_site_fract_z
  _atom_site_occupancy
  C   C1        1.0  0.60454805  0.5489762850000001  0.5412852342831606  1.0000
  O   O1        1.0  0.63768208  0.506090515  0.5498832776267576  1.0000
  Ca  Ca1       1.0  0.004181270000000023  0.6192632650000001  0.46038680009910776  1.0000
  Ca  Ca2       1.0  0.50418127  0.6192632650000001  0.48092695555083886  1.0000
  Ca  Ca3       1.0  0.004181270000000023  0.11926326500000002  0.48092695555083886  1.0000
  Ca  Ca4       1.0  0.50418127  0.11926326500000002  0.4603868000991078  1.0000
  Zn  Zn1       1.0  0.3375146  0.8692632650000001  0.4706568778249734  1.0000
  Zn  Zn2       1.0  0.8375146  0.8692632650000001  0.45011672237324224  1.0000
  Zn  Zn3       1.0  0.17084794000000003  0.369263265  0.4706568778249733  1.0000
  Zn  Zn4       1.0  0.67084794  0.369263265  0.45011672237324224  1.0000
  Si  Si1       1.0  0.17084794000000003  0.8692632650000001  0.45011672237324224  1.0000
  Si  Si2       1.0  0.67084794  0.8692632650000001  0.4706568778249734  1.0000
  Si  Si3       1.0  0.3375146  0.369263265  0.45011672237324224  1.0000
  Si  Si4       1.0  0.8375146  0.369263265  0.4706568778249733  1.0000
  Ca  Ca5       1.0  0.99581873  0.6230731350000001  0.5011759041810623  1.0000
  Ca  Ca6       1.0  0.5410517500000002  0.622299255  0.5206113377712521  1.0000
  Ca  Ca7       1.0  0.97052955  0.12169313500000001  0.5201822095571297  1.0000
  Ca  Ca8       1.0  0.51218783  0.12396107500000002  0.5011927241035586  1.0000
  Zn  Zn5       1.0  0.35146693  0.878988155  0.5115125550155656  1.0000
  Zn  Zn6       1.0  0.83103536  0.866112235  0.49088189142285205  1.0000
  Zn  Zn7       1.0  0.16114732  0.37678632500000003  0.5117663951862753  1.0000
  Zn  Zn8       1.0  0.67479006  0.366755765  0.49082881566116476  1.0000
  Si  Si5       1.0  0.16568027000000002  0.880736735  0.49248776678601663  1.0000
  Si  Si6       1.0  0.67688146  0.878723455  0.5127441394500265  1.0000
  Si  Si7       1.0  0.34073307  0.382017425  0.4925176338152558  1.0000
  Si  Si8       1.0  0.83438805  0.375352385  0.5122917236292591  1.0000
