data_image0
_chemical_formula_structural       COGe6Mn12V6
_chemical_formula_sum              "C1 O1 Ge6 Mn12 V6"
_cell_length_a       7.081990146852468
_cell_length_b       5.78242074
_cell_length_c       101.13928867
_cell_angle_alpha    90.0
_cell_angle_beta     85.6522468283592
_cell_angle_gamma    114.09484254737418

_space_group_name_H-M_alt    "P 1"
_space_group_IT_number       1

loop_
  _space_group_symop_operation_xyz
  'x, y, z'

loop_
  _atom_site_type_symbol
  _atom_site_label
  _atom_site_symmetry_multiplicity
  _atom_site_fract_x
  _atom_site_fract_y
  _atom_site_fract_z
  _atom_site_occupancy
  C   C1        1.0  0.5576241199999998  0.21273389499999995  0.5368792926584902  1.0000
  O   O1        1.0  0.6114408499999999  0.3376979349999999  0.5464082129218382  1.0000
  Ge  Ge1       1.0  0.3541666699999999  0.19791666499999994  0.4792488879359906  1.0000
  Ge  Ge2       1.0  0.52365511  0.7822978150000002  0.5044202167844357  1.0000
  Ge  Ge3       1.0  0.18749999999999994  0.614583335  0.4535917870781617  1.0000
  Ge  Ge4       1.0  0.9375  0.4895833349999999  0.49207743528605313  1.0000
  Ge  Ge5       1.0  0.10758006999999996  0.07139562499999998  0.5191849124399482  1.0000
  Ge  Ge6       1.0  0.7708333399999999  0.9062499949999999  0.4664203375070761  1.0000
  Mn  Mn1       1.0  0.50839972  0.49077758499999996  0.5228133331952846  1.0000
  Mn  Mn2       1.0  0.06249999999999997  0.30208333499999995  0.4728346111821074  1.0000
  Mn  Mn3       1.0  0.22490690999999993  0.8766733549999999  0.4989757321826135  1.0000
  Mn  Mn4       1.0  0.80739667  0.670294225  0.5119701495976002  1.0000
  Mn  Mn5       1.0  0.47916667  0.510416665  0.46000606383204484  1.0000
  Mn  Mn6       1.0  0.6458333399999999  0.09374999499999992  0.48566316161102185  1.0000
  Mn  Mn7       1.0  0.47916667  0.010416665000000004  0.46000606383204484  1.0000
  Mn  Mn8       1.0  0.6458333399999999  0.5937499949999999  0.48566316161102185  1.0000
  Mn  Mn9       1.0  0.7988203199999999  0.17613804499999994  0.5128866529817266  1.0000
  Mn  Mn10      1.0  0.22571287999999998  0.3844443149999999  0.499004778071029  1.0000
  Mn  Mn11      1.0  0.45660119  0.029166785  0.522469914980344  1.0000
  Mn  Mn12      1.0  0.06249999999999997  0.802083335  0.4728346111821074  1.0000
  V   V1        1.0  0.3541666699999999  0.697916665  0.4792488879359906  1.0000
  V   V2        1.0  0.5144883899999999  0.28304753499999996  0.5036556516605822  1.0000
  V   V3        1.0  0.18749999999999994  0.114583335  0.4535917870781617  1.0000
  V   V4        1.0  0.9375  0.9895833350000001  0.49207743528605313  1.0000
  V   V5        1.0  0.11882237999999995  0.585928005  0.5164767882142257  1.0000
  V   V6        1.0  0.7708333399999999  0.4062499949999999  0.4664203375070761  1.0000
