data_image0
_chemical_formula_structural       Pd3Au9CO
_chemical_formula_sum              "Pd3 Au9 C1 O1"
_cell_length_a       5.85458373
_cell_length_b       5.854583733571226
_cell_length_c       98.68148561
_cell_angle_alpha    90.0
_cell_angle_beta     90.0
_cell_angle_gamma    59.99999996367596

_space_group_name_H-M_alt    "P 1"
_space_group_IT_number       1

loop_
  _space_group_symop_operation_xyz
  'x, y, z'

loop_
  _atom_site_type_symbol
  _atom_site_label
  _atom_site_symmetry_multiplicity
  _atom_site_fract_x
  _atom_site_fract_y
  _atom_site_fract_z
  _atom_site_occupancy
  Pd  Pd1       1.0  0.6923279499999999  0.7483028850000001  0.45962000884795073  1.0000
  Pd  Pd2       1.0  0.005015459999999891  0.08555039500000002  0.5093966811216035  1.0000
  Pd  Pd3       1.0  0.34895869999999996  0.417330415  0.48380684209975755  1.0000
  Au  Au1       1.0  0.8504095899999999  0.918681375  0.4839718802310063  1.0000
  Au  Au2       1.0  0.19232794999999983  0.248302885  0.45962000884795073  1.0000
  Au  Au3       1.0  0.5067014599999998  0.5849348849999999  0.5080873073082798  1.0000
  Au  Au4       1.0  0.3459300399999997  0.9186562050000002  0.4840716303087489  1.0000
  Au  Au5       1.0  0.6923279499999999  0.248302885  0.45962000884795073  1.0000
  Au  Au6       1.0  0.012211209999999882  0.5822350550000001  0.5079900771407179  1.0000
  Au  Au7       1.0  0.8498820099999999  0.4141885150000001  0.4839892463940165  1.0000
  Au  Au8       1.0  0.19232794999999991  0.7483028850000001  0.45962000884795073  1.0000
  Au  Au9       1.0  0.5061750999999999  0.088270255  0.5080524587234274  1.0000
  C   C1        1.0  0.9949845399999999  0.083191785  0.5286120890827279  1.0000
  O   O1        1.0  0.9870645899999998  0.081318625  0.5403799911520493  1.0000
