data_image0
_chemical_formula_structural       COAu6Rh6Zn12
_chemical_formula_sum              "C1 O1 Au6 Rh6 Zn12"
_cell_length_a       6.24488271
_cell_length_b       7.648388073067771
_cell_length_c       103.62972261
_cell_angle_alpha    94.34775312524712
_cell_angle_beta     90.0
_cell_angle_gamma    114.09484258793812

_space_group_name_H-M_alt    "P 1"
_space_group_IT_number       1

loop_
  _space_group_symop_operation_xyz
  'x, y, z'

loop_
  _atom_site_type_symbol
  _atom_site_label
  _atom_site_symmetry_multiplicity
  _atom_site_fract_x
  _atom_site_fract_y
  _atom_site_fract_z
  _atom_site_occupancy
  C   C1        1.0  0.6134022199999999  0.187895355  0.5397630963556065  1.0000
  O   O1        1.0  0.6066063699999998  0.17353899499999997  0.550922281428009  1.0000
  Au  Au1       1.0  0.6966090099999999  0.35356565500000003  0.4964886571663315  1.0000
  Au  Au2       1.0  0.28454792999999995  0.529133965  0.46936010098302094  1.0000
  Au  Au3       1.0  0.12363085999999997  0.20697705500000002  0.5220045887081813  1.0000
  Au  Au4       1.0  0.9928812599999999  0.9458006349999999  0.4828816870935869  1.0000
  Au  Au5       1.0  0.5762145999999999  0.11246729500000001  0.4558385116272738  1.0000
  Au  Au6       1.0  0.4045752299999999  0.770767965  0.5113403132376951  1.0000
  Rh  Rh1       1.0  0.20078738999999995  0.362231655  0.4964621699974934  1.0000
  Rh  Rh2       1.0  0.7845479299999999  0.529133965  0.46936010098302094  1.0000
  Rh  Rh3       1.0  0.6256531  0.21299960499999998  0.5219880058323221  1.0000
  Rh  Rh4       1.0  0.4928812599999999  0.9458006349999999  0.4828816870935869  1.0000
  Rh  Rh5       1.0  0.07621459999999997  0.11246729500000001  0.4558385116272738  1.0000
  Rh  Rh6       1.0  0.9033306499999999  0.7666615249999998  0.508549450927575  1.0000
  Zn  Zn1       1.0  0.6803812600000001  0.820800635  0.4625993046825567  1.0000
  Zn  Zn2       1.0  0.53938201  0.507193625  0.5187669687945793  1.0000
  Zn  Zn3       1.0  0.09704792999999991  0.654133965  0.4896424833940511  1.0000
  Zn  Zn4       1.0  0.47204792999999995  0.404133965  0.44907771857199075  1.0000
  Zn  Zn5       1.0  0.29768426  0.05448863500000001  0.5033896095970277  1.0000
  Zn  Zn6       1.0  0.8887146  0.23746729499999997  0.47612089403830393  1.0000
  Zn  Zn7       1.0  0.38871459999999997  0.23746729499999997  0.47612089403830393  1.0000
  Zn  Zn8       1.0  0.97204793  0.404133965  0.44907771857199075  1.0000
  Zn  Zn9       1.0  0.7961041600000001  0.05419936500000002  0.5034422983587599  1.0000
  Zn  Zn10      1.0  0.007118740000000002  0.506444635  0.5187807575694376  1.0000
  Zn  Zn11      1.0  0.5970479299999999  0.654133965  0.4896424833940511  1.0000
  Zn  Zn12      1.0  0.18038126000000002  0.820800635  0.4625993046825567  1.0000
