data_image0
_chemical_formula_structural       COCa12Ge6
_chemical_formula_sum              "C1 O1 Ca12 Ge6"
_cell_length_a       8.942593869209146
_cell_length_b       7.30159732
_cell_length_c       109.32030492
_cell_angle_alpha    90.0
_cell_angle_beta     85.65224685943907
_cell_angle_gamma    114.09484255620075

_space_group_name_H-M_alt    "P 1"
_space_group_IT_number       1

loop_
  _space_group_symop_operation_xyz
  'x, y, z'

loop_
  _atom_site_type_symbol
  _atom_site_label
  _atom_site_symmetry_multiplicity
  _atom_site_fract_x
  _atom_site_fract_y
  _atom_site_fract_z
  _atom_site_occupancy
  C   C1        1.0  0.69600945  0.17109267499999994  0.5402323773774604  1.0000
  O   O1        1.0  0.66024161  0.1785735149999999  0.5507913280850883  1.0000
  Ca  Ca1       1.0  0.22916666000000002  0.8854166649999999  0.5016619742295663  1.0000
  Ca  Ca2       1.0  0.38142472000000005  0.47929750499999996  0.5304574135265354  1.0000
  Ca  Ca3       1.0  0.06250000000000006  0.3020833349999999  0.4716886591350205  1.0000
  Ca  Ca4       1.0  0.22916666000000002  0.38541666499999994  0.5016619742295663  1.0000
  Ca  Ca5       1.0  0.37836232000000003  0.9555007149999999  0.5306530361737238  1.0000
  Ca  Ca6       1.0  0.06250000000000006  0.802083335  0.4716886591350205  1.0000
  Ca  Ca7       1.0  0.81525546  0.18222826499999992  0.5178675020791105  1.0000
  Ca  Ca8       1.0  0.47916666000000013  0.010416664999999957  0.45670199978934867  1.0000
  Ca  Ca9       1.0  0.6458333300000001  0.5937500050000001  0.4866753184806924  1.0000
  Ca  Ca10      1.0  0.8225179600000001  0.677134305  0.5169374096926687  1.0000
  Ca  Ca11      1.0  0.47916666000000013  0.510416665  0.45670199978934867  1.0000
  Ca  Ca12      1.0  0.6458333300000001  0.09375000499999997  0.4866753184806924  1.0000
  Ge  Ge1       1.0  0.35416666  0.6979166649999999  0.4791819870094575  1.0000
  Ge  Ge2       1.0  0.5194836  0.284651785  0.5106923973069634  1.0000
  Ge  Ge3       1.0  0.18750000000000003  0.11458333499999994  0.4492086719149117  1.0000
  Ge  Ge4       1.0  0.9375  0.989583335  0.49416864635512936  1.0000
  Ge  Ge5       1.0  0.10994384000000006  0.578627025  0.5234468083088702  1.0000
  Ge  Ge6       1.0  0.7708333300000001  0.4062500049999999  0.46419533126058354  1.0000
