data_image0
_chemical_formula_structural       COCa6Zn6Ca6Zn6
_chemical_formula_sum              "C1 O1 Ca12 Zn12"
_cell_length_a       7.605913138997067
_cell_length_b       8.76319337071446
_cell_length_c       101.71370096
_cell_angle_alpha    93.96117590075897
_cell_angle_beta     94.79206236147243
_cell_angle_gamma    73.25941982045546

_space_group_name_H-M_alt    "P 1"
_space_group_IT_number       1

loop_
  _space_group_symop_operation_xyz
  'x, y, z'

loop_
  _atom_site_type_symbol
  _atom_site_label
  _atom_site_symmetry_multiplicity
  _atom_site_fract_x
  _atom_site_fract_y
  _atom_site_fract_z
  _atom_site_occupancy
  C   C1        1.0  0.10084591999999999  0.4285827099999999  0.5496607900990685  1.0000
  O   O1        1.0  0.18037557  0.41488079999999994  0.5601486447949289  1.0000
  Ca  Ca1       1.0  0.55808257  0.24728723999999988  0.45988322736007786  1.0000
  Ca  Ca2       1.0  0.22474924  0.3583983599999999  0.49452698216022434  1.0000
  Ca  Ca3       1.0  0.89915408  0.46659722999999986  0.5281458146289861  1.0000
  Ca  Ca4       1.0  0.42408989  0.33751808999999994  0.5308022229431151  1.0000
  Ca  Ca5       1.0  0.11356543  0.11072831999999992  0.46276642824577346  1.0000
  Ca  Ca6       1.0  0.78023209  0.2218394299999999  0.49741018616385785  1.0000
  Zn  Zn1       1.0  0.17259948  0.32759621999999994  0.43985135520507124  1.0000
  Zn  Zn2       1.0  0.83926615  0.4387073399999999  0.4744951100052177  1.0000
  Zn  Zn3       1.0  0.50759162  0.051277569999999904  0.5092126570431391  1.0000
  Zn  Zn4       1.0  0.83238185  0.4193082299999998  0.44815454871857147  1.0000
  Zn  Zn5       1.0  0.49904851999999994  0.030419339999999916  0.48279830351871794  1.0000
  Zn  Zn6       1.0  0.15886741000000001  0.14189794999999988  0.5174209062277223  1.0000
  Ca  Ca7       1.0  0.55808257  0.7472872399999998  0.4598832273600778  1.0000
  Ca  Ca8       1.0  0.22474924  0.8583983599999998  0.4945269821602243  1.0000
  Ca  Ca9       1.0  0.8915489500000001  0.9695806599999998  0.5277853342313716  1.0000
  Ca  Ca10      1.0  0.43166465000000004  0.8356982399999999  0.5303722842414944  1.0000
  Ca  Ca11      1.0  0.11356543  0.6107283199999999  0.46276642824577346  1.0000
  Ca  Ca12      1.0  0.78023209  0.7218394299999997  0.49741018616385785  1.0000
  Zn  Zn7       1.0  0.17259948  0.8275962199999998  0.43985135520507124  1.0000
  Zn  Zn8       1.0  0.83926615  0.93870734  0.4744951100052177  1.0000
  Zn  Zn9       1.0  0.50821405  0.5481076799999999  0.5092284930500541  1.0000
  Zn  Zn10      1.0  0.83238185  0.91930823  0.44815454871857147  1.0000
  Zn  Zn11      1.0  0.49904851999999994  0.5304193399999998  0.48279830351871794  1.0000
  Zn  Zn12      1.0  0.1580068  0.64471956  0.5174963260291139  1.0000
