data_image0
_chemical_formula_structural       COCa6Al4Ge4Ca6Al4Ge4Ca6Al4Ge4Ca6Al4Ge4
_chemical_formula_sum              "C1 O1 Ca24 Al16 Ge16"
_cell_length_a       8.34260578
_cell_length_b       18.86693171
_cell_length_c       102.29299301
_cell_angle_alpha    90.0
_cell_angle_beta     90.0
_cell_angle_gamma    90.0

_space_group_name_H-M_alt    "P 1"
_space_group_IT_number       1

loop_
  _space_group_symop_operation_xyz
  'x, y, z'

loop_
  _atom_site_type_symbol
  _atom_site_label
  _atom_site_symmetry_multiplicity
  _atom_site_fract_x
  _atom_site_fract_y
  _atom_site_fract_z
  _atom_site_occupancy
  C   C1        1.0  0.124898135  0.03405757  0.5394737977561241  1.0000
  O   O1        1.0  0.124898205  0.034057460000000005  0.5508842872013401  1.0000
  Ca  Ca1       1.0  0.374897975  0.53405717  0.44911571279865986  1.0000
  Ca  Ca2       1.0  0.374897975  0.8483842400000001  0.4716650804909201  1.0000
  Ca  Ca3       1.0  0.124897975  0.7197301  0.44911571279865986  1.0000
  Ca  Ca4       1.0  0.124897975  0.034057170000000005  0.4716650804909201  1.0000
  Ca  Ca5       1.0  0.124897975  0.34838423999999996  0.44911571279865986  1.0000
  Ca  Ca6       1.0  0.374897975  0.21973009999999998  0.4716650804909201  1.0000
  Al  Al1       1.0  0.124897975  0.60217151  0.4716650804909201  1.0000
  Al  Al2       1.0  0.374897975  0.96594283  0.44911571279865986  1.0000
  Al  Al3       1.0  0.374897975  0.10217151  0.44911571279865986  1.0000
  Al  Al4       1.0  0.124897975  0.46594283  0.4716650804909201  1.0000
  Ge  Ge1       1.0  0.374897975  0.6801511  0.4716650804909201  1.0000
  Ge  Ge2       1.0  0.124897975  0.8879632399999999  0.44911571279865986  1.0000
  Ge  Ge3       1.0  0.124897975  0.1801511  0.44911571279865986  1.0000
  Ge  Ge4       1.0  0.374897975  0.38796324  0.4716650804909201  1.0000
  Ca  Ca7       1.0  0.374693845  0.53405697  0.49503510627948677  1.0000
  Ca  Ca8       1.0  0.378244095  0.8399601900000001  0.5164993361404379  1.0000
  Ca  Ca9       1.0  0.12489805500000001  0.7177984700000001  0.49463423849521904  1.0000
  Ca  Ca10      1.0  0.12489799500000001  0.034057210000000004  0.5145053960857123  1.0000
  Ca  Ca11      1.0  0.124897875  0.35031513999999997  0.4946343426732999  1.0000
  Ca  Ca12      1.0  0.37824316500000005  0.22815314  0.5164997118129111  1.0000
  Al  Al5       1.0  0.124897985  0.60466311  0.5187254039007035  1.0000
  Al  Al6       1.0  0.377122655  0.9658485099999999  0.4945944866651067  1.0000
  Al  Al7       1.0  0.377123145  0.10226638  0.4945946887074453  1.0000
  Al  Al8       1.0  0.124897895  0.46345088999999995  0.5187254102145266  1.0000
  Ge  Ge5       1.0  0.374946705  0.67641146  0.5152938631550449  1.0000
  Ge  Ge6       1.0  0.124898035  0.8881348400000001  0.4960726189433026  1.0000
  Ge  Ge7       1.0  0.124897975  0.17997976  0.4960726284140372  1.0000
  Ge  Ge8       1.0  0.374946565  0.39170244  0.5152939262932756  1.0000
  Ca  Ca13      1.0  0.8748979750000001  0.53405717  0.44911571279865986  1.0000
  Ca  Ca14      1.0  0.8748979750000001  0.8483842400000001  0.4716650804909201  1.0000
  Ca  Ca15      1.0  0.6248979750000001  0.7197301  0.44911571279865986  1.0000
  Ca  Ca16      1.0  0.6248979750000001  0.034057170000000005  0.4716650804909201  1.0000
  Ca  Ca17      1.0  0.6248979750000001  0.34838423999999996  0.44911571279865986  1.0000
  Ca  Ca18      1.0  0.8748979750000001  0.21973009999999998  0.4716650804909201  1.0000
  Al  Al9       1.0  0.6248979750000001  0.60217151  0.4716650804909201  1.0000
  Al  Al10      1.0  0.8748979750000001  0.96594283  0.44911571279865986  1.0000
  Al  Al11      1.0  0.8748979750000001  0.10217151  0.44911571279865986  1.0000
  Al  Al12      1.0  0.6248979750000001  0.46594283  0.4716650804909201  1.0000
  Ge  Ge9       1.0  0.8748979750000001  0.6801511  0.4716650804909201  1.0000
  Ge  Ge10      1.0  0.6248979750000001  0.8879632399999999  0.44911571279865986  1.0000
  Ge  Ge11      1.0  0.6248979750000001  0.1801511  0.44911571279865986  1.0000
  Ge  Ge12      1.0  0.8748979750000001  0.38796324  0.4716650804909201  1.0000
  Ca  Ca19      1.0  0.8751021250000001  0.53405697  0.4950351125933098  1.0000
  Ca  Ca20      1.0  0.871551905  0.8399601200000001  0.5164992635314724  1.0000
  Ca  Ca21      1.0  0.624897905  0.7170917099999999  0.4945752263478008  1.0000
  Ca  Ca22      1.0  0.624897955  0.03405765  0.5157980313987263  1.0000
  Ca  Ca23      1.0  0.624898115  0.35102229  0.49457537156573167  1.0000
  Ca  Ca24      1.0  0.871552835  0.22815283  0.5164998096771688  1.0000
  Al  Al13      1.0  0.6248979849999999  0.6046184499999999  0.5187988431338598  1.0000
  Al  Al14      1.0  0.8726732850000001  0.96584856  0.4945944866651067  1.0000
  Al  Al15      1.0  0.872672845  0.10226634000000001  0.49459470449200293  1.0000
  Al  Al16      1.0  0.624898065  0.46349560999999995  0.5187988683891521  1.0000
  Ge  Ge13      1.0  0.874849265  0.67641145  0.5152938536843102  1.0000
  Ge  Ge14      1.0  0.6248979349999999  0.8863235600000001  0.4955186819891923  1.0000
  Ge  Ge15      1.0  0.6248979849999999  0.18179139  0.4955187514412462  1.0000
  Ge  Ge16      1.0  0.874849405  0.39170233  0.5152939389209218  1.0000
