data_image0
_chemical_formula_structural       COCa8Cu4Ca8Cu4
_chemical_formula_sum              "C1 O1 Ca16 Cu8"
_cell_length_a       17.022562279132522
_cell_length_b       6.14587999
_cell_length_c       103.8175796
_cell_angle_alpha    90.0
_cell_angle_beta     60.220847454375644
_cell_angle_gamma    90.0

_space_group_name_H-M_alt    "P 1"
_space_group_IT_number       1

loop_
  _space_group_symop_operation_xyz
  'x, y, z'

loop_
  _atom_site_type_symbol
  _atom_site_label
  _atom_site_symmetry_multiplicity
  _atom_site_fract_x
  _atom_site_fract_y
  _atom_site_fract_z
  _atom_site_occupancy
  C   C1        1.0  0.8738021050000001  0.6442121600000001  0.5370329729618196  1.0000
  O   O1        1.0  0.8357928350000001  0.55247864  0.5485632155685216  1.0000
  Ca  Ca1       1.0  0.16248416500000004  0.6310895000000001  0.49215433406312104  1.0000
  Ca  Ca2       1.0  0.8358108150000001  0.36659906000000003  0.49752375407564176  1.0000
  Ca  Ca3       1.0  0.34126597500000005  0.12885695000000003  0.5185565150896017  1.0000
  Ca  Ca4       1.0  0.6674334650000001  0.86717565  0.5109537309649775  1.0000
  Ca  Ca5       1.0  0.9080306950000001  0.86325587  0.5133175671357165  1.0000
  Ca  Ca6       1.0  0.09513272500000003  0.13326147  0.5179386279026434  1.0000
  Ca  Ca7       1.0  0.5901010750000002  0.37023988  0.497417833070732  1.0000
  Ca  Ca8       1.0  0.40481039500000005  0.63218554  0.4927792474704436  1.0000
  Cu  Cu1       1.0  0.5176992650000001  0.88509599  0.5038428767305788  1.0000
  Cu  Cu2       1.0  0.49500131500000005  0.11677270000000003  0.525073590183828  1.0000
  Cu  Cu3       1.0  0.9866915850000001  0.37865506000000004  0.5064891884588345  1.0000
  Cu  Cu4       1.0  0.014281245000000014  0.63330747  0.5233475732549426  1.0000
  Ca  Ca9       1.0  0.16248416500000004  0.6310895000000001  0.4514367844314785  1.0000
  Ca  Ca10      1.0  0.831072865  0.3689105  0.4580665200994296  1.0000
  Ca  Ca11      1.0  0.33107286500000005  0.13108950000000003  0.4784252949152509  1.0000
  Ca  Ca12      1.0  0.6624841650000002  0.8689105000000001  0.4717955592472998  1.0000
  Ca  Ca13      1.0  0.9048103950000002  0.8678144600000001  0.47242047265462234  1.0000
  Ca  Ca14      1.0  0.08874663500000003  0.13218554000000002  0.4778003815079282  1.0000
  Ca  Ca15      1.0  0.5887466350000001  0.36781446000000007  0.457441606692107  1.0000
  Ca  Ca16      1.0  0.40481039500000005  0.63218554  0.4520616978388011  1.0000
  Cu  Cu5       1.0  0.513308415  0.88903257  0.4635849272547545  1.0000
  Cu  Cu6       1.0  0.48024861500000005  0.11096743000000003  0.48663593016520007  1.0000
  Cu  Cu7       1.0  0.9802486150000002  0.3890325700000001  0.4662771553493788  1.0000
  Cu  Cu8       1.0  0.013308415000000014  0.61096743  0.4839437020705758  1.0000
