data_image0
_chemical_formula_structural       COAu4Ca2In2
_chemical_formula_sum              "C1 O1 Au4 Ca2 In2"
_cell_length_a       5.06440434
_cell_length_b       5.06440434
_cell_length_c       98.6485972
_cell_angle_alpha    90.0
_cell_angle_beta     90.0
_cell_angle_gamma    90.0

_space_group_name_H-M_alt    "P 1"
_space_group_IT_number       1

loop_
  _space_group_symop_operation_xyz
  'x, y, z'

loop_
  _atom_site_type_symbol
  _atom_site_label
  _atom_site_symmetry_multiplicity
  _atom_site_fract_x
  _atom_site_fract_y
  _atom_site_fract_z
  _atom_site_occupancy
  C   C1        1.0  0.42229114  0.577697215  0.5346752174292159  1.0000
  O   O1        1.0  0.4906138500000001  0.509367625  0.5453099602607429  1.0000
  Au  Au1       1.0  0.22812192  0.22812394500000005  0.49342358396948044  1.0000
  Au  Au2       1.0  0.77187808  0.771876055  0.49342378435278667  1.0000
  Au  Au3       1.0  0.73053272  0.769459125  0.45469003973925703  1.0000
  Au  Au4       1.0  0.23053272000000002  0.269459125  0.45469003973925703  1.0000
  Ca  Ca1       1.0  0.26764249  0.732359315  0.5102216700702414  1.0000
  Ca  Ca2       1.0  0.73053272  0.269459125  0.47284070154106517  1.0000
  In  In1       1.0  0.73440508  0.26559394500000005  0.5080064093863367  1.0000
  In  In2       1.0  0.23053272000000002  0.769459125  0.47284070154106517  1.0000
