data_image0
_chemical_formula_structural       COAu4In4Pd8
_chemical_formula_sum              "C1 O1 Au4 In4 Pd8"
_cell_length_a       4.63560578
_cell_length_b       4.63560578
_cell_length_c       109.33441936
_cell_angle_alpha    90.0
_cell_angle_beta     90.0
_cell_angle_gamma    90.0

_space_group_name_H-M_alt    "P 1"
_space_group_IT_number       1

loop_
  _space_group_symop_operation_xyz
  'x, y, z'

loop_
  _atom_site_type_symbol
  _atom_site_label
  _atom_site_symmetry_multiplicity
  _atom_site_fract_x
  _atom_site_fract_y
  _atom_site_fract_z
  _atom_site_occupancy
  C   C1        1.0  0.50000002  0.999999985  0.5590148236734879  1.0000
  O   O1        1.0  0.5000001700000001  0.999999985  0.5695621199371068  1.0000
  Au  Au1       1.0  8.000000004428044e-08  0.500000015  0.4754081872066178  1.0000
  Au  Au2       1.0  0.5000000800000001  1.5000000050214908e-08  0.44542798364334285  1.0000
  Au  Au3       1.0  0.99999992  0.499999935  0.5353446845202655  1.0000
  Au  Au4       1.0  0.5000000800000001  1.5000000050214908e-08  0.5053883943675173  1.0000
  In  In1       1.0  0.5000000800000001  1.5000000050214908e-08  0.4754081872066178  1.0000
  In  In2       1.0  8.000000004428044e-08  0.500000015  0.44542798364334285  1.0000
  In  In3       1.0  0.5000002400000001  5.5000000050214915e-08  0.5343597880246985  1.0000
  In  In4       1.0  8.000000004428044e-08  0.500000015  0.5053883943675173  1.0000
  Pd  Pd1       1.0  0.5000000800000001  0.500000015  0.4604180872237926  1.0000
  Pd  Pd2       1.0  0.5000000800000001  0.500000015  0.43043788006289313  1.0000
  Pd  Pd3       1.0  8.000000004428044e-08  1.5000000050214908e-08  0.43043788006289313  1.0000
  Pd  Pd4       1.0  8.000000004428044e-08  1.5000000050214908e-08  0.4604180872237926  1.0000
  Pd  Pd5       1.0  0.4999999400000001  0.500000055  0.5205588720511083  1.0000
  Pd  Pd6       1.0  0.5000000800000001  0.500000015  0.49039829078706754  1.0000
  Pd  Pd7       1.0  8.000000004428044e-08  1.5000000050214908e-08  0.49039829078706754  1.0000
  Pd  Pd8       1.0  2.1000000004428045e-07  0.999999955  0.5205588360748625  1.0000
