data_image0
_chemical_formula_structural       CONi12Pb8Se8
_chemical_formula_sum              "C1 O1 Ni12 Pb8 Se8"
_cell_length_a       5.89477399
_cell_length_b       8.244788529087462
_cell_length_c       104.58633241999999
_cell_angle_alpha    90.0
_cell_angle_beta     90.0
_cell_angle_gamma    91.79243175079407

_space_group_name_H-M_alt    "P 1"
_space_group_IT_number       1

loop_
  _space_group_symop_operation_xyz
  'x, y, z'

loop_
  _atom_site_type_symbol
  _atom_site_label
  _atom_site_symmetry_multiplicity
  _atom_site_fract_x
  _atom_site_fract_y
  _atom_site_fract_z
  _atom_site_occupancy
  C   C1        1.0  0.50002435  0.6072197300000001  0.5524521182336428  1.0000
  O   O1        1.0  0.50000858  0.6072302700000001  0.5636105319128059  1.0000
  Ni  Ni1       1.0  0.25001304  0.35719564  0.4363894680871942  1.0000
  Ni  Ni2       1.0  0.7500130399999999  0.85719564  0.46394750732956075  1.0000
  Ni  Ni3       1.0  0.7500130399999999  0.85719564  0.4363894680871942  1.0000
  Ni  Ni4       1.0  0.25001304  0.35719564  0.46394750732956075  1.0000
  Ni  Ni5       1.0  0.50001304  0.60719564  0.4777265286042265  1.0000
  Ni  Ni6       1.0  1.3040000000051776e-05  0.10719564  0.45016848605489507  1.0000
  Ni  Ni7       1.0  0.25001304  0.35719564  0.49150554657192735  1.0000
  Ni  Ni8       1.0  0.7440407599999999  0.84573438  0.5189643437994047  1.0000
  Ni  Ni9       1.0  0.7500130399999999  0.85719564  0.49150554657192735  1.0000
  Ni  Ni10      1.0  0.2559149200000001  0.36877695  0.5189671315707659  1.0000
  Ni  Ni11      1.0  0.49999052  0.60721902  0.5356123257291594  1.0000
  Ni  Ni12      1.0  0.99998696  0.107379  0.5063555945497652  1.0000
  Pb  Pb1       1.0  1.3040000000055308e-05  0.60719564  0.4777265286042265  1.0000
  Pb  Pb2       1.0  0.50001304  0.10719564  0.45016848605489507  1.0000
  Pb  Pb3       1.0  0.50001304  0.60719564  0.45016848605489507  1.0000
  Pb  Pb4       1.0  1.3040000000051776e-05  0.10719564  0.4777265286042265  1.0000
  Pb  Pb5       1.0  4.692000000005127e-05  0.60730283  0.5310292726017767  1.0000
  Pb  Pb6       1.0  0.49998542000000007  0.10721955999999999  0.5065498390506172  1.0000
  Pb  Pb7       1.0  0.50001456  0.60719145  0.5047851004117779  1.0000
  Pb  Pb8       1.0  0.99990889  0.10722237999999999  0.532293660846188  1.0000
  Se  Se1       1.0  0.057955060000000044  0.82822463  0.45016848605489507  1.0000
  Se  Se2       1.0  0.5579550600000001  0.32822463  0.4777265286042265  1.0000
  Se  Se3       1.0  0.44207102000000004  0.88616665  0.4777265286042265  1.0000
  Se  Se4       1.0  0.94207102  0.38616665  0.45016848605489507  1.0000
  Se  Se5       1.0  0.052327810000000044  0.8301255499999999  0.5054742818056124  1.0000
  Se  Se6       1.0  0.5259777800000001  0.32158074000000003  0.5341873512720514  1.0000
  Se  Se7       1.0  0.47395490000000007  0.89280436  0.5341894677295498  1.0000
  Se  Se8       1.0  0.9476523299999999  0.38437072  0.505476249449693  1.0000
