data_image0
_chemical_formula_structural       COZn5Pd5Zn5Pd5
_chemical_formula_sum              "C1 O1 Zn10 Pd10"
_cell_length_a       4.533723705219102
_cell_length_b       6.5780373771107605
_cell_length_c       102.4270808
_cell_angle_alpha    104.08892591684676
_cell_angle_beta     97.61368009949375
_cell_angle_gamma    73.13111505114368

_space_group_name_H-M_alt    "P 1"
_space_group_IT_number       1

loop_
  _space_group_symop_operation_xyz
  'x, y, z'

loop_
  _atom_site_type_symbol
  _atom_site_label
  _atom_site_symmetry_multiplicity
  _atom_site_fract_x
  _atom_site_fract_y
  _atom_site_fract_z
  _atom_site_occupancy
  C   C1        1.0  0.10497861999999998  0.6398046399999999  0.551844862606203  1.0000
  O   O1        1.0  0.10343370999999998  0.73599677  0.5630332081524445  1.0000
  Zn  Zn1       1.0  0.09732340999999999  0.49944584999999997  0.5055606367136888  1.0000
  Zn  Zn2       1.0  0.8973234099999999  0.89944585  0.4950077382340998  1.0000
  Zn  Zn3       1.0  0.29993126  0.09965134999999996  0.5165701264421636  1.0000
  Zn  Zn4       1.0  0.71005891  0.29327859999999994  0.5354911914352042  1.0000
  Zn  Zn5       1.0  0.4964271199999999  0.7134066699999998  0.5264715965440444  1.0000
  Pd  Pd1       1.0  0.09903735999999999  0.51228953  0.5327714971117852  1.0000
  Pd  Pd2       1.0  0.90267659  0.9005541499999998  0.5208521110584543  1.0000
  Pd  Pd3       1.0  0.29732341  0.09944584999999997  0.4897312874113704  1.0000
  Pd  Pd4       1.0  0.69827316  0.30134009999999994  0.5104924731044972  1.0000
  Pd  Pd5       1.0  0.49732340999999997  0.6994458499999999  0.5002841890568293  1.0000
  Zn  Zn6       1.0  0.09732340999999999  0.49944584999999997  0.45279614114987377  1.0000
  Zn  Zn7       1.0  0.8973234099999999  0.89944585  0.4422432395044149  1.0000
  Zn  Zn8       1.0  0.29732341  0.09944584999999997  0.46334903962946283  1.0000
  Zn  Zn9       1.0  0.69732341  0.29944585  0.48445483975451076  1.0000
  Zn  Zn10      1.0  0.49732340999999997  0.6994458499999999  0.47390193810905185  1.0000
  Pd  Pd6       1.0  0.09732340999999999  0.49944584999999997  0.4791783889317813  1.0000
  Pd  Pd7       1.0  0.8973234099999999  0.89944585  0.4686254904521923  1.0000
  Pd  Pd8       1.0  0.29732341  0.09944584999999997  0.4369667918475553  1.0000
  Pd  Pd9       1.0  0.69732341  0.29944585  0.4580725888067334  1.0000
  Pd  Pd10      1.0  0.49732340999999997  0.6994458499999999  0.44751969032714434  1.0000
