data_image0
_chemical_formula_structural       COGa4Mn4Ni8Ga4Mn4Ni8Ga4Mn4Ni8Ga4Mn4Ni8
_chemical_formula_sum              "C1 O1 Ga16 Mn16 Ni32"
_cell_length_a       8.4889843
_cell_length_b       8.488984298527264
_cell_length_c       102.36109323
_cell_angle_alpha    90.0
_cell_angle_beta     90.0
_cell_angle_gamma    101.10741570876829

_space_group_name_H-M_alt    "P 1"
_space_group_IT_number       1

loop_
  _space_group_symop_operation_xyz
  'x, y, z'

loop_
  _atom_site_type_symbol
  _atom_site_label
  _atom_site_symmetry_multiplicity
  _atom_site_fract_x
  _atom_site_fract_y
  _atom_site_fract_z
  _atom_site_occupancy
  C   C1        1.0  0.37514335  0.37518097999999994  0.5490695696402436  1.0000
  O   O1        1.0  0.3751471900000001  0.37518239999999997  0.5606126887792043  1.0000
  Ga  Ga1       1.0  0.12513786000000005  0.12518227999999995  0.47890561379168356  1.0000
  Ga  Ga2       1.0  0.37513786000000005  0.37518228  0.4525600766367821  1.0000
  Ga  Ga3       1.0  0.12819601000000005  0.12832125999999996  0.5320469722868358  1.0000
  Ga  Ga4       1.0  0.3751420400000001  0.37518327999999995  0.5046795677025921  1.0000
  Mn  Mn1       1.0  0.37513786000000005  0.37518228  0.47890561379168356  1.0000
  Mn  Mn2       1.0  0.12513786000000005  0.12518227999999995  0.4525600766367821  1.0000
  Mn  Mn3       1.0  0.3751345900000001  0.37518058  0.5314602740824758  1.0000
  Mn  Mn4       1.0  0.12377411000000006  0.12391027999999996  0.5051231906828604  1.0000
  Ni  Ni1       1.0  0.12513786000000005  0.37518228  0.4393873112207956  1.0000
  Ni  Ni2       1.0  0.3751378600000001  0.12518227999999995  0.46573284521423286  1.0000
  Ni  Ni3       1.0  0.3751378600000001  0.12518227999999995  0.4393873112207956  1.0000
  Ni  Ni4       1.0  0.12513786000000005  0.37518228  0.46573284521423286  1.0000
  Ni  Ni5       1.0  0.12513786000000005  0.37518228  0.49207837920767006  1.0000
  Ni  Ni6       1.0  0.37272684  0.12773180999999995  0.5182923109306177  1.0000
  Ni  Ni7       1.0  0.3751378600000001  0.12518227999999995  0.49207837920767006  1.0000
  Ni  Ni8       1.0  0.12768941000000006  0.37287693999999993  0.5182995728138982  1.0000
  Ga  Ga5       1.0  0.12513786000000005  0.62518228  0.47890561379168356  1.0000
  Ga  Ga6       1.0  0.3751378600000001  0.87518228  0.4525600766367821  1.0000
  Ga  Ga7       1.0  0.13169213000000002  0.6186149899999999  0.5319375571721418  1.0000
  Ga  Ga8       1.0  0.37516331999999997  0.87518176  0.5049867956326352  1.0000
  Mn  Mn5       1.0  0.3751378600000001  0.87518228  0.47890561379168356  1.0000
  Mn  Mn6       1.0  0.12513786000000005  0.62518228  0.4525600766367821  1.0000
  Mn  Mn7       1.0  0.37513999000000003  0.87519561  0.5296126796245754  1.0000
  Mn  Mn8       1.0  0.12354925000000005  0.6267511399999999  0.5052655640618986  1.0000
  Ni  Ni9       1.0  0.12513786000000005  0.87518228  0.4393873112207956  1.0000
  Ni  Ni10      1.0  0.3751378600000001  0.62518228  0.46573284521423286  1.0000
  Ni  Ni11      1.0  0.3751378600000001  0.62518228  0.4393873112207956  1.0000
  Ni  Ni12      1.0  0.12513786000000005  0.87518228  0.46573284521423286  1.0000
  Ni  Ni13      1.0  0.12513786000000005  0.87518228  0.49207837920767006  1.0000
  Ni  Ni14      1.0  0.37754852000000005  0.62265728  0.5182919442007698  1.0000
  Ni  Ni15      1.0  0.3751378600000001  0.62518228  0.49207837920767006  1.0000
  Ni  Ni16      1.0  0.12552335000000003  0.8739857999999998  0.5191945612002742  1.0000
  Ga  Ga9       1.0  0.62513786  0.12518227999999995  0.47890561379168356  1.0000
  Ga  Ga10      1.0  0.8751378600000002  0.37518228  0.4525600766367821  1.0000
  Ga  Ga11      1.0  0.6185426200000002  0.13171509999999997  0.5319376867921741  1.0000
  Ga  Ga12      1.0  0.87514497  0.37516391999999993  0.5049962357647533  1.0000
  Mn  Mn9       1.0  0.8751378600000002  0.37518228  0.47890561379168356  1.0000
  Mn  Mn10      1.0  0.62513786  0.12518227999999995  0.4525600766367821  1.0000
  Mn  Mn11      1.0  0.8751270000000001  0.37517923  0.529617839134159  1.0000
  Mn  Mn12      1.0  0.6267187000000001  0.12361637999999996  0.5052660035054232  1.0000
  Ni  Ni17      1.0  0.62513786  0.37518228  0.4393873112207956  1.0000
  Ni  Ni18      1.0  0.87513786  0.12518227999999995  0.46573284521423286  1.0000
  Ni  Ni19      1.0  0.87513786  0.12518227999999995  0.4393873112207956  1.0000
  Ni  Ni20      1.0  0.62513786  0.37518228  0.46573284521423286  1.0000
  Ni  Ni21      1.0  0.62513786  0.37518228  0.49207837920767006  1.0000
  Ni  Ni22      1.0  0.8738134700000001  0.12554206999999998  0.5191978712532975  1.0000
  Ni  Ni23      1.0  0.87513786  0.12518227999999995  0.49207837920767006  1.0000
  Ni  Ni24      1.0  0.6225723  0.37747447999999995  0.51829904801084  1.0000
  Ga  Ga13      1.0  0.62513786  0.62518228  0.47890561379168356  1.0000
  Ga  Ga14      1.0  0.87513786  0.87518228  0.4525600766367821  1.0000
  Ga  Ga15      1.0  0.6220723200000001  0.6220116299999998  0.5320472283654365  1.0000
  Ga  Ga16      1.0  0.8751491200000001  0.8751701199999999  0.5050339583556553  1.0000
  Mn  Mn13      1.0  0.87513786  0.87518228  0.47890561379168356  1.0000
  Mn  Mn14      1.0  0.62513786  0.62518228  0.4525600766367821  1.0000
  Mn  Mn15      1.0  0.87513244  0.87517744  0.5296948207875671  1.0000
  Mn  Mn16      1.0  0.6265040500000001  0.62646227  0.5051234372770684  1.0000
  Ni  Ni25      1.0  0.62513786  0.87518228  0.4393873112207956  1.0000
  Ni  Ni26      1.0  0.8751378600000002  0.62518228  0.46573284521423286  1.0000
  Ni  Ni27      1.0  0.8751378600000002  0.62518228  0.4393873112207956  1.0000
  Ni  Ni28      1.0  0.62513786  0.87518228  0.46573284521423286  1.0000
  Ni  Ni29      1.0  0.62513786  0.87518228  0.49207837920767006  1.0000
  Ni  Ni30      1.0  0.8764507500000001  0.6248228100000001  0.519199262297548  1.0000
  Ni  Ni31      1.0  0.8751378600000002  0.62518228  0.49207837920767006  1.0000
  Ni  Ni32      1.0  0.62475879  0.8763836199999999  0.5191942703455672  1.0000
