data_image0
_chemical_formula_structural       COAl3Ru3Al3Ru3Al3Ru3Al3Ru3Al3Ru3Al3Ru3Al3Ru3Al3Ru3
_chemical_formula_sum              "C1 O1 Al24 Ru24"
_cell_length_a       8.54313628
_cell_length_b       8.54313629171517
_cell_length_c       101.38948705
_cell_angle_alpha    90.0
_cell_angle_beta     90.0
_cell_angle_gamma    60.00000004536211

_space_group_name_H-M_alt    "P 1"
_space_group_IT_number       1

loop_
  _space_group_symop_operation_xyz
  'x, y, z'

loop_
  _atom_site_type_symbol
  _atom_site_label
  _atom_site_symmetry_multiplicity
  _atom_site_fract_x
  _atom_site_fract_y
  _atom_site_fract_z
  _atom_site_occupancy
  C   C1        1.0  0.41731026499999985  0.41731405499999996  0.5476893193030647  1.0000
  O   O1        1.0  0.4172546650000001  0.417259155  0.5593689517337186  1.0000
  Al  Al1       1.0  0.41748732499999996  0.41748984499999997  0.4492308576839753  1.0000
  Al  Al2       1.0  0.08415399499999997  0.08415651499999997  0.48363009225882  1.0000
  Al  Al3       1.0  0.25082066499999994  0.25082318499999995  0.46643047651936326  1.0000
  Ru  Ru1       1.0  0.41748732499999996  0.41748984499999997  0.47503028284112603  1.0000
  Ru  Ru2       1.0  0.08415399499999997  0.08415651499999997  0.45783066710166925  1.0000
  Ru  Ru3       1.0  0.25082066499999994  0.25082318499999995  0.4406310482662814  1.0000
  Al  Al4       1.0  0.41748732499999996  0.41748984499999997  0.5008297110942079  1.0000
  Al  Al5       1.0  0.08445401499999997  0.08445342499999997  0.5337677776232215  1.0000
  Al  Al6       1.0  0.250683685  0.25068514499999994  0.5180274599871856  1.0000
  Ru  Ru4       1.0  0.4176038449999999  0.417606455  0.5290622749753701  1.0000
  Ru  Ru5       1.0  0.08404623499999996  0.08404835499999998  0.5089816600168684  1.0000
  Ru  Ru6       1.0  0.25082066499999994  0.25082318499999995  0.492229901676514  1.0000
  Al  Al7       1.0  0.41748732499999996  0.9174898449999999  0.4492308576839753  1.0000
  Al  Al8       1.0  0.08415399499999994  0.584156515  0.48363009225882  1.0000
  Al  Al9       1.0  0.250820665  0.750823185  0.46643047651936326  1.0000
  Ru  Ru7       1.0  0.41748732499999996  0.9174898449999999  0.47503028284112603  1.0000
  Ru  Ru8       1.0  0.08415399499999994  0.584156515  0.45783066710166925  1.0000
  Ru  Ru9       1.0  0.250820665  0.750823185  0.4406310482662814  1.0000
  Al  Al10      1.0  0.41748732499999996  0.9174898449999999  0.5008297110942079  1.0000
  Al  Al11      1.0  0.08212164499999997  0.5846674449999999  0.5337747620438794  1.0000
  Al  Al12      1.0  0.2507149550000001  0.7512071049999999  0.5180180421646495  1.0000
  Ru  Ru10      1.0  0.41653336499999993  0.9178758749999999  0.5267300140717122  1.0000
  Ru  Ru11      1.0  0.08737782500000002  0.5826324049999998  0.5092457553270648  1.0000
  Ru  Ru12      1.0  0.250820665  0.750823185  0.492229901676514  1.0000
  Al  Al13      1.0  0.917487325  0.41748984499999997  0.4492308576839753  1.0000
  Al  Al14      1.0  0.5841539950000001  0.08415651499999997  0.48363009225882  1.0000
  Al  Al15      1.0  0.7508206650000001  0.25082318499999995  0.46643047651936326  1.0000
  Ru  Ru13      1.0  0.917487325  0.41748984499999997  0.47503028284112603  1.0000
  Ru  Ru14      1.0  0.5841539950000001  0.08415651499999997  0.45783066710166925  1.0000
  Ru  Ru15      1.0  0.7508206650000001  0.25082318499999995  0.4406310482662814  1.0000
  Al  Al16      1.0  0.917487325  0.41748984499999997  0.5008297110942079  1.0000
  Al  Al17      1.0  0.584664965  0.08212412499999996  0.5337747403723614  1.0000
  Al  Al18      1.0  0.7512055249999999  0.25071716499999996  0.5180181195629281  1.0000
  Ru  Ru16      1.0  0.917878355  0.41653112499999995  0.5267297911646699  1.0000
  Ru  Ru17      1.0  0.5826300349999999  0.08737998499999998  0.5092458048619632  1.0000
  Ru  Ru18      1.0  0.7508206650000001  0.25082318499999995  0.492229901676514  1.0000
  Al  Al19      1.0  0.917487325  0.9174898449999999  0.4492308576839753  1.0000
  Al  Al20      1.0  0.584153995  0.584156515  0.48363009225882  1.0000
  Al  Al21      1.0  0.7508206649999999  0.750823185  0.46643047651936326  1.0000
  Ru  Ru19      1.0  0.917487325  0.9174898449999999  0.47503028284112603  1.0000
  Ru  Ru20      1.0  0.584153995  0.584156515  0.45783066710166925  1.0000
  Ru  Ru21      1.0  0.7508206649999999  0.750823185  0.4406310482662814  1.0000
  Al  Al22      1.0  0.917487325  0.9174898449999999  0.5008297110942079  1.0000
  Al  Al23      1.0  0.585396625  0.5853975949999999  0.5337697744988086  1.0000
  Al  Al24      1.0  0.7507671949999999  0.7507683249999999  0.5180096893424266  1.0000
  Ru  Ru22      1.0  0.9178676349999999  0.917867095  0.5267562737596645  1.0000
  Ru  Ru23      1.0  0.5824695150000001  0.582470545  0.5092331703669698  1.0000
  Ru  Ru24      1.0  0.7508206649999999  0.750823185  0.492229901676514  1.0000
