data_image0
_chemical_formula_structural       COCa6Cu6As6Ca6Cu6As6
_chemical_formula_sum              "C1 O1 Ca12 Cu12 As12"
_cell_length_a       8.06642808
_cell_length_b       11.247972786794138
_cell_length_c       99.75933875
_cell_angle_alpha    79.1066053684614
_cell_angle_beta     90.0
_cell_angle_gamma    90.0

_space_group_name_H-M_alt    "P 1"
_space_group_IT_number       1

loop_
  _space_group_symop_operation_xyz
  'x, y, z'

loop_
  _atom_site_type_symbol
  _atom_site_label
  _atom_site_symmetry_multiplicity
  _atom_site_fract_x
  _atom_site_fract_y
  _atom_site_fract_z
  _atom_site_occupancy
  C   C1        1.0  0.7531875200000001  0.24141412999999995  0.5390776894265468  1.0000
  O   O1        1.0  0.7531863099999999  0.23556382999999995  0.550879931812892  1.0000
  Ca  Ca1       1.0  0.5031881500000001  0.7206783  0.46806046760385267  1.0000
  Ca  Ca2       1.0  0.5031881500000001  0.38734495999999996  0.4538551665497377  1.0000
  Ca  Ca3       1.0  0.5031881500000001  0.05401162999999996  0.4822657686579676  1.0000
  Ca  Ca4       1.0  0.003188150000000022  0.7206783  0.46806046760385267  1.0000
  Ca  Ca5       1.0  0.003188150000000022  0.38734495999999996  0.4538551665497377  1.0000
  Ca  Ca6       1.0  0.003188150000000022  0.05401162999999996  0.4822657686579676  1.0000
  Cu  Cu1       1.0  0.75318815  0.6095671899999999  0.44912006818710803  1.0000
  Cu  Cu2       1.0  0.75318815  0.27623384999999995  0.477530667312225  1.0000
  Cu  Cu3       1.0  0.75318815  0.94290052  0.46332536625810994  1.0000
  Cu  Cu4       1.0  0.25318815  0.83178941  0.48700086702059725  1.0000
  Cu  Cu5       1.0  0.25318815  0.4984560699999999  0.4727955659664823  1.0000
  Cu  Cu6       1.0  0.25318815  0.16512273999999996  0.4585902678954804  1.0000
  As  As1       1.0  0.75318815  0.83178941  0.48700086702059725  1.0000
  As  As2       1.0  0.75318815  0.4984560699999999  0.4727955659664823  1.0000
  As  As3       1.0  0.75318815  0.16512273999999996  0.4585902678954804  1.0000
  As  As4       1.0  0.25318815  0.6095671899999999  0.44912006818710803  1.0000
  As  As5       1.0  0.25318815  0.27623384999999995  0.477530667312225  1.0000
  As  As6       1.0  0.25318815  0.94290052  0.46332536625810994  1.0000
  Ca  Ca7       1.0  0.5198159899999999  0.71567717  0.511683424992679  1.0000
  Ca  Ca8       1.0  0.5031881500000001  0.38734495999999996  0.4964710667289695  1.0000
  Ca  Ca9       1.0  0.50956455  0.05277181999999997  0.523603109557564  1.0000
  Ca  Ca10      1.0  0.98656055  0.7156773399999999  0.5116833742797567  1.0000
  Ca  Ca11      1.0  0.003188150000000022  0.38734495999999996  0.4964710667289695  1.0000
  Ca  Ca12      1.0  0.99681185  0.052771829999999964  0.5236031065744509  1.0000
  Cu  Cu7       1.0  0.75318815  0.6095671899999999  0.4917359683663399  1.0000
  Cu  Cu8       1.0  0.7531884000000001  0.28553462999999996  0.5203394854138365  1.0000
  Cu  Cu9       1.0  0.75318814  0.9472281800000001  0.5052431672655229  1.0000
  Cu  Cu10      1.0  0.25318813  0.8339582000000001  0.5291263046302881  1.0000
  Cu  Cu11      1.0  0.25318817000000005  0.47151007  0.5136987207246448  1.0000
  Cu  Cu12      1.0  0.25318821  0.16340461999999997  0.5009646433079339  1.0000
  As  As7       1.0  0.75318823  0.8471389  0.5287663681732215  1.0000
  As  As8       1.0  0.75318819  0.50190479  0.5145961544950619  1.0000
  As  As9       1.0  0.75318814  0.17158719999999997  0.5011929051539933  1.0000
  As  As10      1.0  0.25318815  0.6095671899999999  0.4917359683663399  1.0000
  As  As11      1.0  0.25318818  0.2571454999999999  0.5208200679128825  1.0000
  As  As12      1.0  0.25318819000000004  0.9381723900000001  0.5060013045710332  1.0000
