data_image0
_chemical_formula_structural       COCa4Ga4Ca4Ga4
_chemical_formula_sum              "C1 O1 Ca8 Ga8"
_cell_length_a       8.2956908
_cell_length_b       6.22089433176051
_cell_length_c       101.44673924
_cell_angle_alpha    90.0
_cell_angle_beta     90.0
_cell_angle_gamma    109.47406591364258

_space_group_name_H-M_alt    "P 1"
_space_group_IT_number       1

loop_
  _space_group_symop_operation_xyz
  'x, y, z'

loop_
  _atom_site_type_symbol
  _atom_site_label
  _atom_site_symmetry_multiplicity
  _atom_site_fract_x
  _atom_site_fract_y
  _atom_site_fract_z
  _atom_site_occupancy
  C   C1        1.0  0.11964825499999994  0.23991726500000005  0.5387199577410288  1.0000
  O   O1        1.0  0.030670774999999945  0.23900587500000003  0.5477583355802036  1.0000
  Ca  Ca1       1.0  0.3266266949999999  0.29713069500000006  0.47438328899939075  1.0000
  Ca  Ca2       1.0  0.18016385499999996  0.7112793350000001  0.4522416644197963  1.0000
  Ca  Ca3       1.0  0.320309185  0.2792945050000001  0.5190714035289371  1.0000
  Ca  Ca4       1.0  0.17678133499999993  0.694546025  0.4960372673151562  1.0000
  Ga  Ga1       1.0  0.46932922499999996  0.8679407949999999  0.47438328899939075  1.0000
  Ga  Ga2       1.0  0.03746132499999994  0.14046923500000003  0.4522416644197963  1.0000
  Ga  Ga3       1.0  0.46442060499999993  0.8422663749999999  0.5174677573674278  1.0000
  Ga  Ga4       1.0  0.03303777499999995  0.13205920500000004  0.49672190761680957  1.0000
  Ca  Ca5       1.0  0.8266266950000001  0.29713069500000006  0.47438328899939075  1.0000
  Ca  Ca6       1.0  0.6801638549999999  0.7112793350000001  0.4522416644197963  1.0000
  Ca  Ca7       1.0  0.8279373250000001  0.27745173500000003  0.5191843209453939  1.0000
  Ca  Ca8       1.0  0.6783284449999999  0.6912069449999999  0.49623254094871644  1.0000
  Ga  Ga5       1.0  0.969329225  0.8679407949999999  0.47438328899939075  1.0000
  Ga  Ga6       1.0  0.5374613249999999  0.14046923500000003  0.4522416644197963  1.0000
  Ga  Ga7       1.0  0.9684954749999998  0.844624265  0.5180711139922939  1.0000
  Ga  Ga8       1.0  0.5408505349999999  0.13497426500000007  0.49690722150460237  1.0000
