data_image0
_chemical_formula_structural       CONa4Al4Ge4Na4Al4Ge4
_chemical_formula_sum              "C1 O1 Na8 Al8 Ge8"
_cell_length_a       5.96300259
_cell_length_b       7.55600481
_cell_length_c       105.77801556
_cell_angle_alpha    90.0
_cell_angle_beta     90.0
_cell_angle_gamma    90.0

_space_group_name_H-M_alt    "P 1"
_space_group_IT_number       1

loop_
  _space_group_symop_operation_xyz
  'x, y, z'

loop_
  _atom_site_type_symbol
  _atom_site_label
  _atom_site_symmetry_multiplicity
  _atom_site_fract_x
  _atom_site_fract_y
  _atom_site_fract_z
  _atom_site_occupancy
  C   C1        1.0  0.3809435950000001  0.19336435500000007  0.5517142476658767  1.0000
  O   O1        1.0  0.3804824750000001  0.08090124500000005  0.5595438609249578  1.0000
  Na  Na1       1.0  0.8813997549999999  0.4864762150000001  0.5398235031631142  1.0000
  Na  Na2       1.0  0.38007601500000004  0.49661108500000006  0.5113430495204068  1.0000
  Na  Na3       1.0  0.3813936050000001  0.8131397350000001  0.5428938644610387  1.0000
  Na  Na4       1.0  0.880076025  0.7715205850000001  0.5113430055496252  1.0000
  Al  Al1       1.0  0.641671875  0.12070909500000004  0.5249257119055978  1.0000
  Al  Al2       1.0  0.12972991500000006  0.13406608500000006  0.4968289337738694  1.0000
  Al  Al3       1.0  0.6297299150000001  0.13406608500000006  0.4968289337738694  1.0000
  Al  Al4       1.0  0.11860024500000005  0.12149266500000006  0.5249536299695612  1.0000
  Ge  Ge1       1.0  0.880539065  0.9159765550000001  0.5384933227540022  1.0000
  Ge  Ge2       1.0  0.379345225  0.9114246350000001  0.5104727358397246  1.0000
  Ge  Ge3       1.0  0.3814591650000001  0.3609561950000001  0.5381898059779235  1.0000
  Ge  Ge4       1.0  0.879345225  0.35670872500000006  0.5104726648100004  1.0000
  Na  Na5       1.0  0.879729915  0.4952441250000001  0.4827357367903465  1.0000
  Na  Na6       1.0  0.37972991500000003  0.4952441250000001  0.45454933605856507  1.0000
  Na  Na7       1.0  0.37972991500000003  0.7728880450000001  0.4827357367903465  1.0000
  Na  Na8       1.0  0.879729915  0.7728880450000001  0.45454933605856507  1.0000
  Al  Al5       1.0  0.6297299150000001  0.13406608500000006  0.4686425364244558  1.0000
  Al  Al6       1.0  0.12972991500000006  0.13406608500000006  0.44045613907504216  1.0000
  Al  Al7       1.0  0.6297299150000001  0.13406608500000006  0.44045613907504216  1.0000
  Al  Al8       1.0  0.12972991500000006  0.13406608500000006  0.4686425364244558  1.0000
  Ge  Ge5       1.0  0.879729915  0.919098755  0.4827357367903465  1.0000
  Ge  Ge6       1.0  0.37972991500000003  0.919098755  0.45454933605856507  1.0000
  Ge  Ge7       1.0  0.37972991500000003  0.34903341500000007  0.4827357367903465  1.0000
  Ge  Ge8       1.0  0.879729915  0.34903341500000007  0.45454933605856507  1.0000
