data_image0
_chemical_formula_structural       COPt4Rh4Zn8Pt4Rh4Zn8Pt4Rh4Zn8Pt4Rh4Zn8
_chemical_formula_sum              "C1 O1 Pt16 Rh16 Zn32"
_cell_length_a       8.6854502
_cell_length_b       8.6854502
_cell_length_c       106.84924444
_cell_angle_alpha    90.0
_cell_angle_beta     90.0
_cell_angle_gamma    90.0

_space_group_name_H-M_alt    "P 1"
_space_group_IT_number       1

loop_
  _space_group_symop_operation_xyz
  'x, y, z'

loop_
  _atom_site_type_symbol
  _atom_site_label
  _atom_site_symmetry_multiplicity
  _atom_site_fract_x
  _atom_site_fract_y
  _atom_site_fract_z
  _atom_site_occupancy
  C   C1        1.0  0.375174415  0.12388846500000004  0.5550314491098595  1.0000
  O   O1        1.0  0.375175555  0.12388788500000003  0.5658795847188833  1.0000
  Pt  Pt1       1.0  0.375175015  0.373888015  0.49159897328614854  1.0000
  Pt  Pt2       1.0  0.129385895  0.12388834500000004  0.5208290007878279  1.0000
  Pt  Pt3       1.0  0.375175015  0.373888015  0.4341204152811166  1.0000
  Pt  Pt4       1.0  0.12517501499999997  0.12388801500000003  0.4628596942836325  1.0000
  Rh  Rh1       1.0  0.12517501499999997  0.12388801500000003  0.49159897328614854  1.0000
  Rh  Rh2       1.0  0.37517541499999996  0.37166375500000004  0.5211008732284954  1.0000
  Rh  Rh3       1.0  0.12517501499999997  0.12388801500000003  0.4341204152811166  1.0000
  Rh  Rh4       1.0  0.375175015  0.373888015  0.4628596942836325  1.0000
  Zn  Zn1       1.0  0.375175015  0.12388801500000003  0.5059686145117632  1.0000
  Zn  Zn2       1.0  0.37517703499999994  0.12388864500000003  0.5353662943285666  1.0000
  Zn  Zn3       1.0  0.12482498499999999  0.37440174500000006  0.5339492523899637  1.0000
  Zn  Zn4       1.0  0.12517501499999997  0.373888015  0.5059686145117632  1.0000
  Zn  Zn5       1.0  0.375175015  0.12388801500000003  0.4484900530580178  1.0000
  Zn  Zn6       1.0  0.375175015  0.12388801500000003  0.47722933550924734  1.0000
  Zn  Zn7       1.0  0.12517501499999997  0.373888015  0.47722933550924734  1.0000
  Zn  Zn8       1.0  0.12517501499999997  0.373888015  0.4484900530580178  1.0000
  Pt  Pt5       1.0  0.375175015  0.8738880150000001  0.49159897328614854  1.0000
  Pt  Pt6       1.0  0.12526337499999998  0.6238876550000001  0.520590918843192  1.0000
  Pt  Pt7       1.0  0.375175015  0.8738880150000001  0.4341204152811166  1.0000
  Pt  Pt8       1.0  0.12517501499999997  0.623888015  0.4628596942836325  1.0000
  Rh  Rh5       1.0  0.12517501499999997  0.623888015  0.49159897328614854  1.0000
  Rh  Rh6       1.0  0.375175465  0.8761121149999999  0.5211009180617724  1.0000
  Rh  Rh7       1.0  0.12517501499999997  0.623888015  0.4341204152811166  1.0000
  Rh  Rh8       1.0  0.375175015  0.8738880150000001  0.4628596942836325  1.0000
  Zn  Zn9       1.0  0.375175015  0.623888015  0.5059686145117632  1.0000
  Zn  Zn10      1.0  0.375176365  0.623887395  0.5339045570614712  1.0000
  Zn  Zn11      1.0  0.12482510499999999  0.873374235  0.5339491040952781  1.0000
  Zn  Zn12      1.0  0.12517501499999997  0.8738880150000001  0.5059686145117632  1.0000
  Zn  Zn13      1.0  0.375175015  0.623888015  0.4484900530580178  1.0000
  Zn  Zn14      1.0  0.375175015  0.623888015  0.47722933550924734  1.0000
  Zn  Zn15      1.0  0.12517501499999997  0.8738880150000001  0.47722933550924734  1.0000
  Zn  Zn16      1.0  0.12517501499999997  0.8738880150000001  0.4484900530580178  1.0000
  Pt  Pt9       1.0  0.8751750150000001  0.373888015  0.49159897328614854  1.0000
  Pt  Pt10      1.0  0.6209636849999999  0.12388831500000003  0.5208287904162971  1.0000
  Pt  Pt11      1.0  0.8751750150000001  0.373888015  0.4341204152811166  1.0000
  Pt  Pt12      1.0  0.625175015  0.12388801500000003  0.4628596942836325  1.0000
  Rh  Rh9       1.0  0.625175015  0.12388801500000003  0.49159897328614854  1.0000
  Rh  Rh10      1.0  0.8751747750000001  0.3740738250000001  0.5209656284752421  1.0000
  Rh  Rh11      1.0  0.625175015  0.12388801500000003  0.4341204152811166  1.0000
  Rh  Rh12      1.0  0.8751750150000001  0.373888015  0.4628596942836325  1.0000
  Zn  Zn17      1.0  0.8751750150000001  0.12388801500000003  0.5059686145117632  1.0000
  Zn  Zn18      1.0  0.8751729149999999  0.12388860500000004  0.5337970951451265  1.0000
  Zn  Zn19      1.0  0.6255251449999999  0.374401185  0.5339494420692127  1.0000
  Zn  Zn20      1.0  0.625175015  0.373888015  0.5059686145117632  1.0000
  Zn  Zn21      1.0  0.8751750150000001  0.12388801500000003  0.4484900530580178  1.0000
  Zn  Zn22      1.0  0.8751750150000001  0.12388801500000003  0.47722933550924734  1.0000
  Zn  Zn23      1.0  0.625175015  0.373888015  0.47722933550924734  1.0000
  Zn  Zn24      1.0  0.625175015  0.373888015  0.4484900530580178  1.0000
  Pt  Pt13      1.0  0.8751750150000001  0.8738880150000001  0.49159897328614854  1.0000
  Pt  Pt14      1.0  0.625086845  0.6238877150000002  0.5205908395227786  1.0000
  Pt  Pt15      1.0  0.8751750150000001  0.8738880150000001  0.4341204152811166  1.0000
  Pt  Pt16      1.0  0.625175015  0.623888015  0.4628596942836325  1.0000
  Rh  Rh13      1.0  0.625175015  0.623888015  0.49159897328614854  1.0000
  Rh  Rh14      1.0  0.8751747449999999  0.873702235  0.520965700898228  1.0000
  Rh  Rh15      1.0  0.625175015  0.623888015  0.4341204152811166  1.0000
  Rh  Rh16      1.0  0.8751750150000001  0.8738880150000001  0.4628596942836325  1.0000
  Zn  Zn25      1.0  0.8751750150000001  0.623888015  0.5059686145117632  1.0000
  Zn  Zn26      1.0  0.8751736849999999  0.6238874350000001  0.5339540702428883  1.0000
  Zn  Zn27      1.0  0.625525075  0.8733748450000002  0.5339493110180952  1.0000
  Zn  Zn28      1.0  0.625175015  0.8738880150000001  0.5059686145117632  1.0000
  Zn  Zn29      1.0  0.8751750150000001  0.623888015  0.4484900530580178  1.0000
  Zn  Zn30      1.0  0.8751750150000001  0.623888015  0.47722933550924734  1.0000
  Zn  Zn31      1.0  0.625175015  0.8738880150000001  0.47722933550924734  1.0000
  Zn  Zn32      1.0  0.625175015  0.8738880150000001  0.4484900530580178  1.0000
