data_image0
_chemical_formula_structural       COAs12Os6
_chemical_formula_sum              "C1 O1 As12 Os6"
_cell_length_a       6.993552909148236
_cell_length_b       6.297316668661983
_cell_length_c       105.5903802
_cell_angle_alpha    111.85566346579668
_cell_angle_beta     118.94164167944139
_cell_angle_gamma    77.67763953107091

_space_group_name_H-M_alt    "P 1"
_space_group_IT_number       1

loop_
  _space_group_symop_operation_xyz
  'x, y, z'

loop_
  _atom_site_type_symbol
  _atom_site_label
  _atom_site_symmetry_multiplicity
  _atom_site_fract_x
  _atom_site_fract_y
  _atom_site_fract_z
  _atom_site_occupancy
  C   C1        1.0  0.7399796249999999  0.43699442999999993  0.5429173846570112  1.0000
  O   O1        1.0  0.8349632349999999  0.4950120899999999  0.5562607967464253  1.0000
  As  As1       1.0  0.204502445  0.48308662999999996  0.46092484579063936  1.0000
  As  As2       1.0  0.537835775  0.81641996  0.48901324975621074  1.0000
  As  As3       1.0  0.8966012550000001  0.13171793999999995  0.5178933758833411  1.0000
  As  As4       1.0  0.603716925  0.9544859099999999  0.47182760384853784  1.0000
  As  As5       1.0  0.948945395  0.30113912  0.5012178007449073  1.0000
  As  As6       1.0  0.270383595  0.6211525699999999  0.4437392032535747  1.0000
  As  As7       1.0  0.09049809500000001  0.71109532  0.4934508509549752  1.0000
  As  As8       1.0  0.42503281499999995  0.045514089999999945  0.5221276316596325  1.0000
  As  As9       1.0  0.7571647650000001  0.37776198999999994  0.4653624469894039  1.0000
  As  As10      1.0  0.051054605  0.05981054999999995  0.4673900026497734  1.0000
  As  As11      1.0  0.38870456499999995  0.38784143000000004  0.4950142266768333  1.0000
  As  As12      1.0  0.710788585  0.7065329699999999  0.5221753190245341  1.0000
  Os  Os1       1.0  0.9041096850000001  0.71878627  0.46637622481958857  1.0000
  Os  Os2       1.0  0.237443015  0.052119599999999947  0.49446462878515995  1.0000
  Os  Os3       1.0  0.581770075  0.34920361999999994  0.5212398033462896  1.0000
  Os  Os4       1.0  0.8773532049999999  0.71513083  0.5073219418708977  1.0000
  Os  Os5       1.0  0.237443015  0.052119599999999947  0.4523320262074111  1.0000
  Os  Os6       1.0  0.5707763549999999  0.38545292999999986  0.4804204268023743  1.0000
