data_image0
_chemical_formula_structural       CONa14In6Se16
_chemical_formula_sum              "C1 O1 Na14 In6 Se16"
_cell_length_a       10.717427851877973
_cell_length_b       6.904651391753837
_cell_length_c       111.58851073
_cell_angle_alpha    90.00334315555611
_cell_angle_beta     88.51840389782627
_cell_angle_gamma    90.18044881137139

_space_group_name_H-M_alt    "P 1"
_space_group_IT_number       1

loop_
  _space_group_symop_operation_xyz
  'x, y, z'

loop_
  _atom_site_type_symbol
  _atom_site_label
  _atom_site_symmetry_multiplicity
  _atom_site_fract_x
  _atom_site_fract_y
  _atom_site_fract_z
  _atom_site_occupancy
  C   C1        1.0  0.34223818500000003  0.03854983499999994  0.5650819646315549  1.0000
  O   O1        1.0  0.358681275  0.13865426499999994  0.5730942012031389  1.0000
  Na  Na1       1.0  0.143582425  0.787201675  0.4940198844171438  1.0000
  Na  Na2       1.0  0.8878625649999999  0.297701455  0.48989277620064553  1.0000
  Na  Na3       1.0  0.12596245500000003  0.32098789499999997  0.519941821004806  1.0000
  Na  Na4       1.0  0.905482535  0.7639152350000001  0.4639708396129834  1.0000
  Na  Na5       1.0  0.4080906650000001  0.7524421550000001  0.5240829425636566  1.0000
  Na  Na6       1.0  0.6293610350000001  0.309758315  0.45895676509158945  1.0000
  Na  Na7       1.0  0.37565478500000005  0.2980045349999999  0.42739576264057133  1.0000
  Na  Na8       1.0  0.655790205  0.786898595  0.43228513704979327  1.0000
  Na  Na9       1.0  0.639621175  0.524903245  0.5086669019113677  1.0000
  Na  Na10      1.0  0.391823815  0.559999885  0.47524575870642183  1.0000
  Na  Na11      1.0  0.8944024249999999  0.5261598549999998  0.5375786037246666  1.0000
  Na  Na12      1.0  0.15469291500000001  0.564274555  0.4453472977013051  1.0000
  Na  Na13      1.0  0.634846755  0.18110243499999995  0.5311312847985644  1.0000
  Na  Na14      1.0  0.39041055500000005  0.8960845450000001  0.45198968906146697  1.0000
  In  In1       1.0  0.17212162500000003  0.16807207499999996  0.4676812633308063  1.0000
  In  In2       1.0  0.8593233649999998  0.9168310550000002  0.5162313972869831  1.0000
  In  In3       1.0  0.3982313050000001  0.17762205499999997  0.49996884267498254  1.0000
  In  In4       1.0  0.6332136850000001  0.9072810750000001  0.4839438179428069  1.0000
  In  In5       1.0  0.9041566949999998  0.17515510499999995  0.43901634169406584  1.0000
  In  In6       1.0  0.058654955000000016  0.9614501650000001  0.5449758819111006  1.0000
  Se  Se1       1.0  0.183642695  0.300250635  0.4907516263739705  1.0000
  Se  Se2       1.0  0.847802295  0.7846524950000002  0.4931610342438189  1.0000
  Se  Se3       1.0  0.9413450449999999  0.295321915  0.4616015561164768  1.0000
  Se  Se4       1.0  0.09115101500000002  0.799348715  0.5225040376644916  1.0000
  Se  Se5       1.0  0.6841746850000001  0.297282905  0.4327751046204564  1.0000
  Se  Se6       1.0  0.347270305  0.7876202249999998  0.42690579879686086  1.0000
  Se  Se7       1.0  0.173127265  0.7922121750000001  0.46794174378568604  1.0000
  Se  Se8       1.0  0.858317725  0.292690955  0.5159709168321034  1.0000
  Se  Se9       1.0  0.07454309500000002  0.316161465  0.5503594614362662  1.0000
  Se  Se10      1.0  0.939027325  0.7926675450000001  0.4357041540587896  1.0000
  Se  Se11      1.0  0.353172585  0.31509071499999997  0.4542248842518158  1.0000
  Se  Se12      1.0  0.688897415  0.7756139150000001  0.5311626769216053  1.0000
  Se  Se13      1.0  0.43438591500000007  0.793575945  0.4977675031234444  1.0000
  Se  Se14      1.0  0.597059075  0.291327185  0.4861451574943449  1.0000
  Se  Se15      1.0  0.40289841500000007  0.30082169500000006  0.5218712122678424  1.0000
  Se  Se16      1.0  0.6304852650000001  0.7822688750000001  0.4618886917374482  1.0000
