data_image0
_chemical_formula_structural       COCa12Ga20
_chemical_formula_sum              "C1 O1 Ca12 Ga20"
_cell_length_a       4.53797601
_cell_length_b       15.26531748
_cell_length_c       102.99608764
_cell_angle_alpha    90.0
_cell_angle_beta     90.0
_cell_angle_gamma    90.0

_space_group_name_H-M_alt    "P 1"
_space_group_IT_number       1

loop_
  _space_group_symop_operation_xyz
  'x, y, z'

loop_
  _atom_site_type_symbol
  _atom_site_label
  _atom_site_symmetry_multiplicity
  _atom_site_fract_x
  _atom_site_fract_y
  _atom_site_fract_z
  _atom_site_occupancy
  C   C1        1.0  0.750012425  0.28551681  0.5556524023202548  1.0000
  O   O1        1.0  0.750011475  0.23390587000000002  0.5640467272493342  1.0000
  Ca  Ca1       1.0  0.750013475  0.25000000000000006  0.4581277902561881  1.0000
  Ca  Ca2       1.0  0.25001621500000004  0.74978887  0.5390309464650236  1.0000
  Ca  Ca3       1.0  0.25001347500000004  0.8899922  0.46263208428218133  1.0000
  Ca  Ca4       1.0  0.7499921450000001  0.10348339000000004  0.5359882680574135  1.0000
  Ca  Ca5       1.0  0.750049525  0.39481761000000004  0.536249043160181  1.0000
  Ca  Ca6       1.0  0.25001347500000004  0.6100078  0.46263208428218133  1.0000
  Ca  Ca7       1.0  0.25001623500000003  0.24918853000000002  0.5118994050075513  1.0000
  Ca  Ca8       1.0  0.750013475  0.75  0.4859608487763582  1.0000
  Ca  Ca9       1.0  0.7500144350000001  0.88989114  0.5165095468148151  1.0000
  Ca  Ca10      1.0  0.25001347500000004  0.11000780000000003  0.481456554750365  1.0000
  Ca  Ca11      1.0  0.25001347500000004  0.3899922  0.481456554750365  1.0000
  Ca  Ca12      1.0  0.7500292350000001  0.60845949  0.5165244725052793  1.0000
  Ga  Ga1       1.0  0.25001347500000004  0.25000000000000006  0.4359532727506657  1.0000
  Ga  Ga2       1.0  0.750013475  0.75  0.45474160952862686  1.0000
  Ga  Ga3       1.0  0.750013475  0.59966445  0.44084090297410167  1.0000
  Ga  Ga4       1.0  0.25001347500000004  0.40033555  0.44985397930519094  1.0000
  Ga  Ga5       1.0  0.25001347500000004  0.09966445000000003  0.44985397930519094  1.0000
  Ga  Ga6       1.0  0.750013475  0.90033555  0.44084090297410167  1.0000
  Ga  Ga7       1.0  0.750013475  0.46600320000000006  0.45975480264368274  1.0000
  Ga  Ga8       1.0  0.24995047500000003  0.54160147  0.538118217587211  1.0000
  Ga  Ga9       1.0  0.24996249500000003  0.95786944  0.5380055044368343  1.0000
  Ga  Ga10      1.0  0.750013475  0.03399680000000003  0.45975480264368274  1.0000
  Ga  Ga11      1.0  0.750013475  0.25000000000000006  0.48934702950391945  1.0000
  Ga  Ga12      1.0  0.25001347500000004  0.75  0.5081353630782551  1.0000
  Ga  Ga13      1.0  0.25001347500000004  0.59966445  0.49423465652373  1.0000
  Ga  Ga14      1.0  0.750013475  0.40033555  0.5032477360584446  1.0000
  Ga  Ga15      1.0  0.750013475  0.09966445000000003  0.5032477360584446  1.0000
  Ga  Ga16      1.0  0.25001347500000004  0.90033555  0.49423465652373  1.0000
  Ga  Ga17      1.0  0.25003013500000004  0.46017398  0.5145758225407867  1.0000
  Ga  Ga18      1.0  0.750013475  0.5339968  0.48433383318523815  1.0000
  Ga  Ga19      1.0  0.750013475  0.9660032  0.48433383318523815  1.0000
  Ga  Ga20      1.0  0.250014945  0.037430830000000026  0.5143274454680895  1.0000
