data_image0
_chemical_formula_structural       COIr4Ni4Zn8Ir4Ni4Zn8Ir4Ni4Zn8Ir4Ni4Zn8
_chemical_formula_sum              "C1 O1 Ir16 Ni16 Zn32"
_cell_length_a       8.49152846
_cell_length_b       8.49152846
_cell_length_c       106.02650416
_cell_angle_alpha    90.0
_cell_angle_beta     90.0
_cell_angle_gamma    90.0

_space_group_name_H-M_alt    "P 1"
_space_group_IT_number       1

loop_
  _space_group_symop_operation_xyz
  'x, y, z'

loop_
  _atom_site_type_symbol
  _atom_site_label
  _atom_site_symmetry_multiplicity
  _atom_site_fract_x
  _atom_site_fract_y
  _atom_site_fract_z
  _atom_site_occupancy
  C   C1        1.0  0.375597695  0.12254041500000001  0.5543210745671495  1.0000
  O   O1        1.0  0.37559791499999995  0.12253960500000001  0.5652609139948025  1.0000
  Ir  Ir1       1.0  0.37559844499999995  0.37253986499999997  0.491370370488201  1.0000
  Ir  Ir2       1.0  0.13042881499999998  0.12254023500000001  0.5203738246250265  1.0000
  Ir  Ir3       1.0  0.37559844499999995  0.37253986499999997  0.4347390860051975  1.0000
  Ir  Ir4       1.0  0.12559844499999998  0.12253986500000001  0.4630547282466993  1.0000
  Ni  Ni1       1.0  0.12559844499999998  0.12253986500000001  0.491370370488201  1.0000
  Ni  Ni2       1.0  0.37559895499999996  0.36761894500000003  0.5196121972453035  1.0000
  Ni  Ni3       1.0  0.12559844499999998  0.12253986500000001  0.4347390860051975  1.0000
  Ni  Ni4       1.0  0.37559844499999995  0.37253986499999997  0.4630547282466993  1.0000
  Zn  Zn1       1.0  0.37559856499999994  0.12253944500000002  0.5053067570483246  1.0000
  Zn  Zn2       1.0  0.37559889499999993  0.122540995  0.5347008175571161  1.0000
  Zn  Zn3       1.0  0.12440120499999997  0.37289942499999995  0.5331178994718294  1.0000
  Zn  Zn4       1.0  0.126205415  0.37187163500000003  0.5053669572387637  1.0000
  Zn  Zn5       1.0  0.37559844499999995  0.12253986500000001  0.44889690542700983  1.0000
  Zn  Zn6       1.0  0.37559844499999995  0.12253986500000001  0.4772125510663887  1.0000
  Zn  Zn7       1.0  0.12559844499999998  0.37253986499999997  0.4772125510663887  1.0000
  Zn  Zn8       1.0  0.12559844499999998  0.37253986499999997  0.44889690542700983  1.0000
  Ir  Ir5       1.0  0.37559844499999995  0.8725398649999999  0.491370370488201  1.0000
  Ir  Ir6       1.0  0.12442176499999998  0.6225399949999999  0.5202335160816046  1.0000
  Ir  Ir7       1.0  0.37559844499999995  0.8725398649999999  0.4347390860051975  1.0000
  Ir  Ir8       1.0  0.12559844499999998  0.622539865  0.4630547282466993  1.0000
  Ni  Ni5       1.0  0.12559844499999998  0.622539865  0.491370370488201  1.0000
  Ni  Ni6       1.0  0.375599045  0.8774605549999999  0.5196123977200586  1.0000
  Ni  Ni7       1.0  0.12559844499999998  0.622539865  0.4347390860051975  1.0000
  Ni  Ni8       1.0  0.37559844499999995  0.8725398649999999  0.4630547282466993  1.0000
  Zn  Zn9       1.0  0.375598535  0.622540105  0.5055201539304236  1.0000
  Zn  Zn10      1.0  0.37559787499999997  0.622538525  0.5329100886998552  1.0000
  Zn  Zn11      1.0  0.12440101499999999  0.872180725  0.5331178586973031  1.0000
  Zn  Zn12      1.0  0.126205765  0.8732083849999999  0.5053670965517292  1.0000
  Zn  Zn13      1.0  0.37559844499999995  0.622539865  0.44889690542700983  1.0000
  Zn  Zn14      1.0  0.37559844499999995  0.622539865  0.4772125510663887  1.0000
  Zn  Zn15      1.0  0.12559844499999998  0.8725398649999999  0.4772125510663887  1.0000
  Zn  Zn16      1.0  0.12559844499999998  0.8725398649999999  0.44889690542700983  1.0000
  Ir  Ir9       1.0  0.8755984450000001  0.37253986499999997  0.491370370488201  1.0000
  Ir  Ir10      1.0  0.6207687449999999  0.12254023500000001  0.5203738314207809  1.0000
  Ir  Ir11      1.0  0.8755984450000001  0.37253986499999997  0.4347390860051975  1.0000
  Ir  Ir12      1.0  0.625598445  0.12253986500000001  0.4630547282466993  1.0000
  Ni  Ni9       1.0  0.625598445  0.12253986500000001  0.491370370488201  1.0000
  Ni  Ni10      1.0  0.875598035  0.37382441499999997  0.519267037480953  1.0000
  Ni  Ni11      1.0  0.625598445  0.12253986500000001  0.4347390860051975  1.0000
  Ni  Ni12      1.0  0.8755984450000001  0.37253986499999997  0.4630547282466993  1.0000
  Zn  Zn17      1.0  0.8755986649999999  0.12253984500000001  0.505498152675522  1.0000
  Zn  Zn18      1.0  0.8755982849999999  0.12254066500000002  0.5326816732005106  1.0000
  Zn  Zn19      1.0  0.6267956349999999  0.372898625  0.5331180285911632  1.0000
  Zn  Zn20      1.0  0.6249915349999999  0.371871785  0.5053668756897107  1.0000
  Zn  Zn21      1.0  0.8755984450000001  0.12253986500000001  0.44889690542700983  1.0000
  Zn  Zn22      1.0  0.8755984450000001  0.12253986500000001  0.4772125510663887  1.0000
  Zn  Zn23      1.0  0.625598445  0.37253986499999997  0.4772125510663887  1.0000
  Zn  Zn24      1.0  0.625598445  0.37253986499999997  0.44889690542700983  1.0000
  Ir  Ir13      1.0  0.8755984450000001  0.8725398649999999  0.491370370488201  1.0000
  Ir  Ir14      1.0  0.626775055  0.622540205  0.5202335024900958  1.0000
  Ir  Ir15      1.0  0.8755984450000001  0.8725398649999999  0.4347390860051975  1.0000
  Ir  Ir16      1.0  0.625598445  0.622539865  0.4630547282466993  1.0000
  Ni  Ni13      1.0  0.625598445  0.622539865  0.491370370488201  1.0000
  Ni  Ni14      1.0  0.875597985  0.8712554650000001  0.5192670102979354  1.0000
  Ni  Ni15      1.0  0.625598445  0.622539865  0.4347390860051975  1.0000
  Ni  Ni16      1.0  0.8755984450000001  0.8725398649999999  0.4630547282466993  1.0000
  Zn  Zn25      1.0  0.875598495  0.622539885  0.5052610861808136  1.0000
  Zn  Zn26      1.0  0.875598985  0.622539045  0.5331915960305265  1.0000
  Zn  Zn27      1.0  0.6267959249999999  0.872181825  0.533118042182672  1.0000
  Zn  Zn28      1.0  0.624991195  0.873208355  0.5053670014111674  1.0000
  Zn  Zn29      1.0  0.8755984450000001  0.622539865  0.44889690542700983  1.0000
  Zn  Zn30      1.0  0.8755984450000001  0.622539865  0.4772125510663887  1.0000
  Zn  Zn31      1.0  0.625598445  0.8725398649999999  0.4772125510663887  1.0000
  Zn  Zn32      1.0  0.625598445  0.8725398649999999  0.44889690542700983  1.0000
