data_image0
_chemical_formula_structural       COSb8Rh16Sb8Rh16
_chemical_formula_sum              "C1 O1 Sb16 Rh32"
_cell_length_a       5.86395039
_cell_length_b       16.69534235988212
_cell_length_c       99.64410036
_cell_angle_alpha    104.69395333535651
_cell_angle_beta     90.0
_cell_angle_gamma    90.0

_space_group_name_H-M_alt    "P 1"
_space_group_IT_number       1

loop_
  _space_group_symop_operation_xyz
  'x, y, z'

loop_
  _atom_site_type_symbol
  _atom_site_label
  _atom_site_symmetry_multiplicity
  _atom_site_fract_x
  _atom_site_fract_y
  _atom_site_fract_z
  _atom_site_occupancy
  C   C1        1.0  0.803698415  0.017861430000000032  0.5426792430921095  1.0000
  O   O1        1.0  0.783164675  0.04489358000000004  0.5546718796794815  1.0000
  Sb  Sb1       1.0  0.711589305  0.07071293000000003  0.4646196171073868  1.0000
  Sb  Sb2       1.0  0.711589305  0.5707129300000001  0.4858696027061457  1.0000
  Sb  Sb3       1.0  0.27933274500000005  0.46316257000000005  0.4600487289636869  1.0000
  Sb  Sb4       1.0  0.27933274500000005  0.9631625699999999  0.48129871456244583  1.0000
  Sb  Sb5       1.0  0.211589305  0.21316257000000002  0.47067372027556736  1.0000
  Sb  Sb6       1.0  0.211589305  0.7131625699999999  0.4494237346768085  1.0000
  Sb  Sb7       1.0  0.7793327449999999  0.32071293  0.4539946228205084  1.0000
  Sb  Sb8       1.0  0.7793327449999999  0.82071293  0.47524460841926724  1.0000
  Rh  Rh1       1.0  0.154475755  0.051736930000000035  0.46381313678781366  1.0000
  Rh  Rh2       1.0  0.154475755  0.55173693  0.4850631223865726  1.0000
  Rh  Rh3       1.0  0.836446295  0.48213857000000004  0.4608552063082621  1.0000
  Rh  Rh4       1.0  0.836446295  0.9821385699999999  0.4821051948820189  1.0000
  Rh  Rh5       1.0  0.654475755  0.23213857000000004  0.47148020059514045  1.0000
  Rh  Rh6       1.0  0.654475755  0.7321385699999999  0.4502302149963816  1.0000
  Rh  Rh7       1.0  0.33644629500000006  0.30173693000000007  0.4531881425009352  1.0000
  Rh  Rh8       1.0  0.33644629500000006  0.80173693  0.47443812809969405  1.0000
  Rh  Rh9       1.0  0.03451923500000001  0.36679508000000005  0.4772031002061556  1.0000
  Rh  Rh10      1.0  0.03451923500000001  0.8667950799999999  0.45595311163239866  1.0000
  Rh  Rh11      1.0  0.9564028149999999  0.16708042000000004  0.4474652458649182  1.0000
  Rh  Rh12      1.0  0.9564028149999999  0.66708042  0.4687152314636771  1.0000
  Rh  Rh13      1.0  0.534519235  0.41708042  0.4793402257505555  1.0000
  Rh  Rh14      1.0  0.534519235  0.91708042  0.45809023717679853  1.0000
  Rh  Rh15      1.0  0.456402815  0.11679508000000001  0.4453281203205183  1.0000
  Rh  Rh16      1.0  0.456402815  0.6167950799999999  0.4665781059192772  1.0000
  Sb  Sb9       1.0  0.710196995  0.07030031000000003  0.5074774954445069  1.0000
  Sb  Sb10      1.0  0.702417065  0.5623178  0.5281088986251112  1.0000
  Sb  Sb11      1.0  0.284893495  0.46373354000000006  0.5021407059545449  1.0000
  Sb  Sb12      1.0  0.290742825  0.96139668  0.5234279177038199  1.0000
  Sb  Sb13      1.0  0.19568301500000002  0.22109007000000003  0.5144680744467618  1.0000
  Sb  Sb14      1.0  0.211589305  0.7131625699999999  0.49192370587432627  1.0000
  Sb  Sb15      1.0  0.7793327449999999  0.32071293  0.4964945940180261  1.0000
  Sb  Sb16      1.0  0.792522775  0.8062655599999999  0.5184766463103004  1.0000
  Rh  Rh17      1.0  0.156393805  0.05431988000000003  0.5064460784978759  1.0000
  Rh  Rh18      1.0  0.157627045  0.55187598  0.525482927352228  1.0000
  Rh  Rh19      1.0  0.836941845  0.48316574  0.502850022838023  1.0000
  Rh  Rh20      1.0  0.844104725  0.97002025  0.523552959846579  1.0000
  Rh  Rh21      1.0  0.640998845  0.23105176000000002  0.5127554126981895  1.0000
  Rh  Rh22      1.0  0.654475755  0.7321385699999999  0.4927301861938994  1.0000
  Rh  Rh23      1.0  0.33644629500000006  0.30173693000000007  0.4956881166734511  1.0000
  Rh  Rh24      1.0  0.342497975  0.79938064  0.5158725918480024  1.0000
  Rh  Rh25      1.0  0.03550666500000001  0.37395920000000005  0.518408492080126  1.0000
  Rh  Rh26      1.0  0.02973827500000001  0.86936971  0.4989121190780056  1.0000
  Rh  Rh27      1.0  0.9564028149999999  0.16708042000000004  0.4899652170624359  1.0000
  Rh  Rh28      1.0  0.970261725  0.65904712  0.5110881196697781  1.0000
  Rh  Rh29      1.0  0.530195515  0.41068651  0.519960271884511  1.0000
  Rh  Rh30      1.0  0.537992505  0.9136971199999999  0.5002061212519326  1.0000
  Rh  Rh31      1.0  0.456402815  0.11679508000000001  0.48782809151803597  1.0000
  Rh  Rh32      1.0  0.470878405  0.62330851  0.5096590317596976  1.0000
