data_image0
_chemical_formula_structural       COCa3Cu12In3
_chemical_formula_sum              "C1 O1 Ca3 Cu12 In3"
_cell_length_a       5.22177535
_cell_length_b       5.221775342342491
_cell_length_c       108.37205546
_cell_angle_alpha    90.0
_cell_angle_beta     90.0
_cell_angle_gamma    119.99999998516041

_space_group_name_H-M_alt    "P 1"
_space_group_IT_number       1

loop_
  _space_group_symop_operation_xyz
  'x, y, z'

loop_
  _atom_site_type_symbol
  _atom_site_label
  _atom_site_symmetry_multiplicity
  _atom_site_fract_x
  _atom_site_fract_y
  _atom_site_fract_z
  _atom_site_occupancy
  C   C1        1.0  0.8670523400000001  0.6439746300000001  0.5584501366466555  1.0000
  O   O1        1.0  0.8266086599999998  0.56353328  0.5688283432818563  1.0000
  Ca  Ca1       1.0  0.5892915999999999  0.09175495000000011  0.46067807818974976  1.0000
  Ca  Ca2       1.0  0.24791045999999994  0.4141719600000001  0.5402755716364341  1.0000
  Ca  Ca3       1.0  0.92262494  0.7584216100000001  0.5000199699444543  1.0000
  Cu  Cu1       1.0  0.42177085999999997  0.7567134600000002  0.48524155954647363  1.0000
  Cu  Cu2       1.0  0.08843752999999999  0.0900468000000001  0.44589966779176904  1.0000
  Cu  Cu3       1.0  0.7466578499999998  0.4130107000000001  0.5240398049711105  1.0000
  Cu  Cu4       1.0  0.91156247  0.74072431  0.5420589053800624  1.0000
  Cu  Cu5       1.0  0.5892915999999999  0.09175495000000011  0.5050133093836919  1.0000
  Cu  Cu6       1.0  0.25595826999999993  0.4250882800000001  0.46567141408821705  1.0000
  Cu  Cu7       1.0  0.7472011000000001  0.9204621500000002  0.5245725032394312  1.0000
  Cu  Cu8       1.0  0.42177085999999997  0.25927568999999995  0.48524155954647363  1.0000
  Cu  Cu9       1.0  0.08843752999999976  0.5926090200000002  0.44589966779176904  1.0000
  Cu  Cu10      1.0  0.92433309  0.25927568999999995  0.48524155954647363  1.0000
  Cu  Cu11      1.0  0.59099975  0.5926090200000002  0.44589966779176904  1.0000
  Cu  Cu12      1.0  0.25476362999999996  0.9194642900000001  0.5244747319493215  1.0000
  In  In1       1.0  0.25595826999999993  0.4250882800000001  0.509855443768323  1.0000
  In  In2       1.0  0.92262494  0.7584216100000001  0.4705135484728482  1.0000
  In  In3       1.0  0.5892915999999999  0.09175495000000011  0.43117165671814356  1.0000
