data_image0
_chemical_formula_structural       COCaCu5CaCu5
_chemical_formula_sum              "C1 O1 Ca2 Cu10"
_cell_length_a       5.199088641067734
_cell_length_b       5.19908864
_cell_length_c       98.69883233
_cell_angle_alpha    90.0
_cell_angle_beta     90.0
_cell_angle_gamma    119.99999999320643

_space_group_name_H-M_alt    "P 1"
_space_group_IT_number       1

loop_
  _space_group_symop_operation_xyz
  'x, y, z'

loop_
  _atom_site_type_symbol
  _atom_site_label
  _atom_site_symmetry_multiplicity
  _atom_site_fract_x
  _atom_site_fract_y
  _atom_site_fract_z
  _atom_site_occupancy
  C   C1        1.0  0.15719437  0.07752904999999995  0.5350684849062486  1.0000
  O   O1        1.0  0.15671250000000003  0.07738889999999993  0.5468561536260164  1.0000
  Ca  Ca1       1.0  0.15724466  0.57748415  0.4951205141714492  1.0000
  Cu  Cu1       1.0  0.8432875000000001  0.9226111  0.49471955155724673  1.0000
  Cu  Cu2       1.0  0.47132078000000005  0.23239101999999998  0.49472523032955  1.0000
  Cu  Cu3       1.0  0.15769315000000003  0.07769649999999993  0.5161629592392443  1.0000
  Cu  Cu4       1.0  0.65766494  0.0777977699999999  0.5146108254461241  1.0000
  Cu  Cu5       1.0  0.65777689  0.57768064  0.5144933449354376  1.0000
  Ca  Ca2       1.0  0.15740661000000006  0.57759215  0.45314384637398364  1.0000
  Cu  Cu6       1.0  0.8240732800000001  0.91092548  0.45314384637398364  1.0000
  Cu  Cu7       1.0  0.4907399500000001  0.24425880999999994  0.45314384637398364  1.0000
  Cu  Cu8       1.0  0.15740661000000006  0.07759214999999997  0.4739132567672875  1.0000
  Cu  Cu9       1.0  0.65740661  0.07759214999999987  0.4739132567672875  1.0000
  Cu  Cu10      1.0  0.65740661  0.5775921499999999  0.4739132567672875  1.0000
