data_image0
_chemical_formula_structural       COAs12Pd12Se12
_chemical_formula_sum              "C1 O1 As12 Pd12 Se12"
_cell_length_a       6.2337312
_cell_length_b       13.939046714719211
_cell_length_c       105.26330883
_cell_angle_alpha    71.56505119007639
_cell_angle_beta     90.0
_cell_angle_gamma    90.0

_space_group_name_H-M_alt    "P 1"
_space_group_IT_number       1

loop_
  _space_group_symop_operation_xyz
  'x, y, z'

loop_
  _atom_site_type_symbol
  _atom_site_label
  _atom_site_symmetry_multiplicity
  _atom_site_fract_x
  _atom_site_fract_y
  _atom_site_fract_z
  _atom_site_occupancy
  C   C1        1.0  0.58930428  0.4563343549999999  0.5382349904554155  1.0000
  O   O1        1.0  0.6121278900000001  0.427281745  0.5497517604362491  1.0000
  As  As1       1.0  0.6166185900000001  0.4118757149999999  0.4611410669186213  1.0000
  As  As2       1.0  0.51311744  0.09035392499999996  0.5180404227744755  1.0000
  As  As3       1.0  0.6166185900000001  0.745209045  0.48905781192963127  1.0000
  As  As4       1.0  0.8519346  0.8358305149999999  0.5161554528091788  1.0000
  As  As5       1.0  0.8833814100000001  0.5007966549999999  0.4881218862656531  1.0000
  As  As6       1.0  0.8833814100000001  0.16746332499999994  0.4602051379046336  1.0000
  As  As7       1.0  0.34497594000000004  0.6580900349999999  0.5233676548376772  1.0000
  As  As8       1.0  0.39913938000000004  0.3342368049999999  0.49701326047367433  1.0000
  As  As9       1.0  0.38338141000000003  0.0007966549999999774  0.4685882151658605  1.0000
  As  As10      1.0  0.11661859  0.7563842649999999  0.46765228950188237  1.0000
  As  As11      1.0  0.12081826000000001  0.418111325  0.5230874365900762  1.0000
  As  As12      1.0  0.11661859  0.08971759499999998  0.49556903451289236  1.0000
  Pd  Pd1       1.0  0.48308155  0.8254165649999999  0.5064573862550236  1.0000
  Pd  Pd2       1.0  0.5068082300000001  0.496257835  0.47854511350674334  1.0000
  Pd  Pd3       1.0  0.5068082300000001  0.16292450499999997  0.4506283684957333  1.0000
  Pd  Pd4       1.0  0.006808229999999999  0.6720021449999999  0.4502482395637508  1.0000
  Pd  Pd5       1.0  0.0187235  0.336091105  0.5060016174577431  1.0000
  Pd  Pd6       1.0  0.006808229999999999  0.005335474999999977  0.47816498792477036  1.0000
  Pd  Pd7       1.0  0.5022610800000001  0.5008361949999999  0.5195297934637555  1.0000
  Pd  Pd8       1.0  0.49319177000000003  0.16746332499999994  0.492883613269226  1.0000
  Pd  Pd9       1.0  0.49319177000000003  0.8341299849999998  0.464966868258216  1.0000
  Pd  Pd10      1.0  0.99319177  0.6674633249999999  0.49174323317329754  1.0000
  Pd  Pd11      1.0  0.99319177  0.33412998499999996  0.4638264848122781  1.0000
  Pd  Pd12      1.0  0.9780343900000001  0.9992033449999999  0.5185069250023071  1.0000
  Se  Se1       1.0  0.11338753000000001  0.5007966549999999  0.46885881888609515  1.0000
  Se  Se2       1.0  0.15649985000000002  0.147353985  0.5243919202531019  1.0000
  Se  Se3       1.0  0.08964029  0.8362168349999998  0.49718305905698157  1.0000
  Se  Se4       1.0  0.3631363100000001  0.9201988649999998  0.5241924104352258  1.0000
  Se  Se5       1.0  0.38661247000000004  0.591871635  0.49547883550615374  1.0000
  Se  Se6       1.0  0.38661247000000004  0.25853830499999997  0.46756208714513425  1.0000
  Se  Se7       1.0  0.9824348600000001  0.5933455149999999  0.5182662971673945  1.0000
  Se  Se8       1.0  0.88661247  0.243055005  0.4891480109363697  1.0000
  Se  Se9       1.0  0.88661247  0.9097216749999999  0.4612312659253599  1.0000
  Se  Se10      1.0  0.61338753  0.6674633249999999  0.4599345375344085  1.0000
  Se  Se11      1.0  0.63436314  0.32922683499999994  0.5160665871062353  1.0000
  Se  Se12      1.0  0.61338753  0.0007966549999999774  0.48785128254541843  1.0000
