data_image0
_chemical_formula_structural       COAs2Au2Ca4
_chemical_formula_sum              "C1 O1 As2 Au2 Ca4"
_cell_length_a       5.21223
_cell_length_b       5.21223
_cell_length_c       99.48482544000001
_cell_angle_alpha    90.0
_cell_angle_beta     90.0
_cell_angle_gamma    90.0

_space_group_name_H-M_alt    "P 1"
_space_group_IT_number       1

loop_
  _space_group_symop_operation_xyz
  'x, y, z'

loop_
  _atom_site_type_symbol
  _atom_site_label
  _atom_site_symmetry_multiplicity
  _atom_site_fract_x
  _atom_site_fract_y
  _atom_site_fract_z
  _atom_site_occupancy
  C   C1        1.0  0.255924935  0.255925235  0.5322915553332221  1.0000
  O   O1        1.0  0.263631615  0.263633255  0.5441000374746436  1.0000
  As  As1       1.0  0.5085704449999999  0.5085707949999999  0.4558999625253562  1.0000
  As  As2       1.0  0.9914295550000001  0.9914292049999999  0.4958047778081923  1.0000
  Au  Au1       1.0  0.008570444999999989  0.008570794999999989  0.4558999625253562  1.0000
  Au  Au2       1.0  0.5097781349999999  0.509779975  0.4942951852908318  1.0000
  Ca  Ca1       1.0  0.008570444999999989  0.5085707949999999  0.4744234064963305  1.0000
  Ca  Ca2       1.0  0.5085704449999999  0.008570794999999989  0.4744234064963305  1.0000
  Ca  Ca3       1.0  0.48976528499999994  0.013763394999999987  0.5108734009072605  1.0000
  Ca  Ca4       1.0  0.013763944999999991  0.48976465499999994  0.5108734127622646  1.0000
