data_image0
_chemical_formula_structural       COAl4Zn2Se8
_chemical_formula_sum              "C1 O1 Al4 Zn2 Se8"
_cell_length_a       5.68586621
_cell_length_b       5.68586621
_cell_length_c       103.29524466000001
_cell_angle_alpha    90.0
_cell_angle_beta     90.0
_cell_angle_gamma    90.0

_space_group_name_H-M_alt    "P 1"
_space_group_IT_number       1

loop_
  _space_group_symop_operation_xyz
  'x, y, z'

loop_
  _atom_site_type_symbol
  _atom_site_label
  _atom_site_symmetry_multiplicity
  _atom_site_fract_x
  _atom_site_fract_y
  _atom_site_fract_z
  _atom_site_occupancy
  C   C1        1.0  0.11717713999999997  0.11747021499999996  0.5523277826841865  1.0000
  O   O1        1.0  0.11856280000000001  0.11753806499999997  0.5634718111840731  1.0000
  Al  Al1       1.0  0.11878812999999999  0.616491425  0.5311005487654875  1.0000
  Al  Al2       1.0  0.6200473700000001  0.6169767749999999  0.4507161004073822  1.0000
  Al  Al3       1.0  0.6200473700000001  0.11697677499999996  0.4775770040222119  1.0000
  Al  Al4       1.0  0.11915158999999999  0.11627782499999996  0.5040923786290447  1.0000
  Zn  Zn1       1.0  0.12004737  0.11697677499999996  0.4507161004073822  1.0000
  Zn  Zn2       1.0  0.6199964699999999  0.616384525  0.5040145615137236  1.0000
  Se  Se1       1.0  0.38282286000000004  0.868348335  0.4365281888159271  1.0000
  Se  Se2       1.0  0.86442061  0.883722175  0.5185929866074769  1.0000
  Se  Se3       1.0  0.37313299999999994  0.34982863499999994  0.5185654079794144  1.0000
  Se  Se4       1.0  0.8572718800000001  0.36560521499999993  0.4365281888159271  1.0000
  Se  Se5       1.0  0.88282286  0.368348335  0.4902499960455866  1.0000
  Se  Se6       1.0  0.36867581  0.3797522649999999  0.46490401199883724  1.0000
  Se  Se7       1.0  0.8714189299999999  0.854201285  0.46490401199883724  1.0000
  Se  Se8       1.0  0.35727188  0.8656052149999999  0.4902499960455866  1.0000
