data_image0
_chemical_formula_structural       COCa12Sn6
_chemical_formula_sum              "C1 O1 Ca12 Sn6"
_cell_length_a       9.399916785565248
_cell_length_b       7.674999915065157
_cell_length_c       101.17599705
_cell_angle_alpha    97.07055509581554
_cell_angle_beta     95.76818116794212
_cell_angle_gamma    65.90515747004773

_space_group_name_H-M_alt    "P 1"
_space_group_IT_number       1

loop_
  _space_group_symop_operation_xyz
  'x, y, z'

loop_
  _atom_site_type_symbol
  _atom_site_label
  _atom_site_symmetry_multiplicity
  _atom_site_fract_x
  _atom_site_fract_y
  _atom_site_fract_z
  _atom_site_occupancy
  C   C1        1.0  0.9788978549999998  0.5038856199999999  0.5525879239336813  1.0000
  O   O1        1.0  0.9446088149999999  0.47331557999999985  0.5626608378468642  1.0000
  Ca  Ca1       1.0  0.8297544649999999  0.63888889  0.497254554897851  1.0000
  Ca  Ca2       1.0  0.06463299499999997  0.13482759999999988  0.528965046077179  1.0000
  Ca  Ca3       1.0  0.6075322449999999  0.19444444999999988  0.46301718893574084  1.0000
  Ca  Ca4       1.0  0.8297544649999999  0.13888888999999993  0.497254554897851  1.0000
  Ca  Ca5       1.0  0.0035788649999999797  0.6291533999999999  0.5312990552704684  1.0000
  Ca  Ca6       1.0  0.6075322449999999  0.6944444499999999  0.46301718893574084  1.0000
  Ca  Ca7       1.0  0.437169205  0.36179155999999996  0.5155025004012445  1.0000
  Ca  Ca8       1.0  0.9964211350000001  0.4722222199999999  0.4458985044140043  1.0000
  Ca  Ca9       1.0  0.21864335499999996  0.9166666699999998  0.4801358703761145  1.0000
  Ca  Ca10      1.0  0.456941075  0.8422603599999998  0.5138594098193212  1.0000
  Ca  Ca11      1.0  0.9964211350000001  0.9722222199999998  0.4458985044140043  1.0000
  Ca  Ca12      1.0  0.21864335499999996  0.4166666699999998  0.4801358703761145  1.0000
  Sn  Sn1       1.0  0.9130877949999999  0.3055555599999999  0.47157652811524625  1.0000
  Sn  Sn2       1.0  0.135192605  0.7597710999999998  0.5082062242275298  1.0000
  Sn  Sn3       1.0  0.6908655749999998  0.86111111  0.43733916215313606  1.0000
  Sn  Sn4       1.0  0.5241989049999999  0.027777779999999894  0.48869521263698273  1.0000
  Sn  Sn5       1.0  0.7384996749999999  0.4727104399999999  0.5225565537134547  1.0000
  Sn  Sn6       1.0  0.30197668499999997  0.5833333299999999  0.45445784667487266  1.0000
