data_image0
_chemical_formula_structural       COCa10Na10Pb20
_chemical_formula_sum              "C1 O1 Ca10 Na10 Pb20"
_cell_length_a       16.83639600786016
_cell_length_b       5.612132
_cell_length_c       110.07863904
_cell_angle_alpha    90.0
_cell_angle_beta     81.95053303018219
_cell_angle_gamma    90.0

_space_group_name_H-M_alt    "P 1"
_space_group_IT_number       1

loop_
  _space_group_symop_operation_xyz
  'x, y, z'

loop_
  _atom_site_type_symbol
  _atom_site_label
  _atom_site_symmetry_multiplicity
  _atom_site_fract_x
  _atom_site_fract_y
  _atom_site_fract_z
  _atom_site_occupancy
  C   C1        1.0  0.80476501  0.50000391  0.5634183199838141  1.0000
  O   O1        1.0  0.80665667  0.5000058900000001  0.5738838419985521  1.0000
  Ca  Ca1       1.0  0.9500000000000001  3.5900000000213274e-06  0.4564570713902624  1.0000
  Ca  Ca2       1.0  0.4833333300000001  3.5900000000213274e-06  0.48072980428585976  1.0000
  Ca  Ca3       1.0  0.41666666999999996  3.5900000000213274e-06  0.4321843421355748  1.0000
  Ca  Ca4       1.0  0.016666670000000036  3.5900000000213274e-06  0.5050025371814572  1.0000
  Ca  Ca5       1.0  0.5492552600000001  2.4600000000213276e-06  0.5293644068296102  1.0000
  Ca  Ca6       1.0  0.21666667  0.5000035899999999  0.468593439658516  1.0000
  Ca  Ca7       1.0  0.75  0.5000035899999999  0.49286616891320356  1.0000
  Ca  Ca8       1.0  0.68333333  0.5000035899999999  0.4443207067629186  1.0000
  Ca  Ca9       1.0  0.28149377999999997  0.50000327  0.517050620670037  1.0000
  Ca  Ca10      1.0  0.80730809  0.49999896  0.5393507996845853  1.0000
  Na  Na1       1.0  0.18333333000000004  3.5900000000213274e-06  0.44432070676291857  1.0000
  Na  Na2       1.0  0.7166666700000001  3.5900000000213274e-06  0.46859343965851596  1.0000
  Na  Na3       1.0  0.31647056000000007  3.2400000000213278e-06  0.5409532405256747  1.0000
  Na  Na4       1.0  0.25000000000000006  3.5900000000213274e-06  0.4928661689132036  1.0000
  Na  Na5       1.0  0.7763513100000001  2.5000000000213272e-06  0.5172077077212998  1.0000
  Na  Na6       1.0  0.98333333  0.5000035899999999  0.4807298042858597  1.0000
  Na  Na7       1.0  0.5166666700000001  0.5000035899999999  0.505002537181457  1.0000
  Na  Na8       1.0  0.45  0.5000035899999999  0.4564570713902624  1.0000
  Na  Na9       1.0  0.048155340000000026  0.50000139  0.5307723429899125  1.0000
  Na  Na10      1.0  0.91666667  0.5000035899999999  0.4321843421355748  1.0000
  Pb  Pb1       1.0  0.13333333000000003  0.5000035899999999  0.4989343530473304  1.0000
  Pb  Pb2       1.0  0.6539009500000001  0.50000272  0.5231352435116955  1.0000
  Pb  Pb3       1.0  0.6000000000000001  0.5000035899999999  0.474661620151733  1.0000
  Pb  Pb4       1.0  0.53333333  0.5000035899999999  0.426116158001448  1.0000
  Pb  Pb5       1.0  0.06666667000000003  0.5000035899999999  0.45038889089704537  1.0000
  Pb  Pb6       1.0  0.9  0.5000035899999999  0.5110707176746742  1.0000
  Pb  Pb7       1.0  0.43726654000000004  0.5000018900000001  0.5344827941184755  1.0000
  Pb  Pb8       1.0  0.36666667000000003  0.5000035899999999  0.48679798841998656  1.0000
  Pb  Pb9       1.0  0.30000000000000004  0.5000035899999999  0.4382525226287917  1.0000
  Pb  Pb10      1.0  0.83333333  0.5000035899999999  0.46252525552438917  1.0000
  Pb  Pb11      1.0  0.86666667  3.5900000000213274e-06  0.4867979884199865  1.0000
  Pb  Pb12      1.0  0.39999999999999997  3.5900000000213274e-06  0.5110707176746742  1.0000
  Pb  Pb13      1.0  0.33333333  3.5900000000213274e-06  0.46252525552438917  1.0000
  Pb  Pb14      1.0  0.9258435700000001  0.9999975400000001  0.5348107199371354  1.0000
  Pb  Pb15      1.0  0.7999999999999999  3.5900000000213274e-06  0.4382525226287919  1.0000
  Pb  Pb16      1.0  0.16287409000000005  2.4900000000213273e-06  0.5231786686423111  1.0000
  Pb  Pb17      1.0  0.033333330000000036  3.5900000000213274e-06  0.42611615800144803  1.0000
  Pb  Pb18      1.0  0.6333333300000001  3.5900000000213274e-06  0.4989343530473303  1.0000
  Pb  Pb19      1.0  0.5666666700000001  3.5900000000213274e-06  0.45038889089704537  1.0000
  Pb  Pb20      1.0  0.10000000000000003  3.5900000000213274e-06  0.47466162015173297  1.0000
