data_image0
_chemical_formula_structural       COV20As12V20As12
_chemical_formula_sum              "C1 O1 V40 As24"
_cell_length_a       9.50652541
_cell_length_b       9.50652541
_cell_length_c       104.75147424
_cell_angle_alpha    90.0
_cell_angle_beta     90.0
_cell_angle_gamma    90.0

_space_group_name_H-M_alt    "P 1"
_space_group_IT_number       1

loop_
  _space_group_symop_operation_xyz
  'x, y, z'

loop_
  _atom_site_type_symbol
  _atom_site_label
  _atom_site_symmetry_multiplicity
  _atom_site_fract_x
  _atom_site_fract_y
  _atom_site_fract_z
  _atom_site_occupancy
  C   C1        1.0  0.47205447999999994  0.149101945  0.541035056396779  1.0000
  O   O1        1.0  0.41367966  0.20742079500000002  0.549661342376029  1.0000
  V   V1        1.0  0.8480502200000001  0.578177475  0.4977317526065816  1.0000
  V   V2        1.0  0.39387974  0.422473355  0.4977317526065816  1.0000
  V   V3        1.0  0.05633410999999996  0.22910479499999997  0.5197444995832622  1.0000
  V   V4        1.0  0.18481304999999998  0.7686898449999999  0.5199305956703709  1.0000
  V   V5        1.0  0.8531769499999999  0.436939005  0.5200072269836096  1.0000
  V   V6        1.0  0.19881703999999994  0.227410655  0.4977317526065816  1.0000
  V   V7        1.0  0.11507476999999994  0.506212385  0.5097763146793576  1.0000
  V   V8        1.0  0.12019966999999995  0.498468075  0.5302557553003858  1.0000
  V   V9        1.0  0.39257214999999995  0.565011225  0.5196969297144138  1.0000
  V   V10       1.0  0.043112919999999964  0.7732401750000001  0.4977317526065816  1.0000
  V   V11       1.0  0.35338984999999995  0.063197855  0.5209927383825713  1.0000
  V   V12       1.0  0.8951815500000001  0.931680295  0.519077556022088  1.0000
  V   V13       1.0  0.54311292  0.727410655  0.4977317526065816  1.0000
  V   V14       1.0  0.69881704  0.273240175  0.4977317526065816  1.0000
  V   V15       1.0  0.34805022  0.922473355  0.4977317526065816  1.0000
  V   V16       1.0  0.6899929699999999  0.725956575  0.5190775095768573  1.0000
  V   V17       1.0  0.5920805299999999  0.029239535  0.5307133635714886  1.0000
  V   V18       1.0  0.62050799  0.0009034149999999952  0.5094695804228645  1.0000
  V   V19       1.0  0.8938797399999999  0.078177475  0.4977317526065816  1.0000
  V   V20       1.0  0.55803479  0.267872985  0.5210080785787883  1.0000
  As  As1       1.0  0.29392939  0.327662285  0.521127694953096  1.0000
  As  As2       1.0  0.28504287999999994  0.664403315  0.4977317526065816  1.0000
  As  As3       1.0  0.9568870800000001  0.336247515  0.4977317526065816  1.0000
  As  As4       1.0  0.9438435800000002  0.678286795  0.524497120616411  1.0000
  As  As5       1.0  0.62198654  0.5036518350000001  0.5345031451133198  1.0000
  As  As6       1.0  0.62137093  0.495761105  0.5102006681652357  1.0000
  As  As7       1.0  0.78504288  0.836247515  0.4977317526065816  1.0000
  As  As8       1.0  0.79943993  0.171888555  0.5222265924304106  1.0000
  As  As9       1.0  0.4496961799999999  0.8218072649999999  0.5222117200040177  1.0000
  As  As10      1.0  0.45688707999999995  0.164403315  0.4977317526065816  1.0000
  As  As11      1.0  0.12538963999999997  0.0002890950000000725  0.5101876535480732  1.0000
  As  As12      1.0  0.11730905999999998  0.999710905  0.5344873603698941  1.0000
  V   V21       1.0  0.8480502200000001  0.578177475  0.4503386576239709  1.0000
  V   V22       1.0  0.39387974  0.422473355  0.4503386576239709  1.0000
  V   V23       1.0  0.043112919999999964  0.227410655  0.474035203456518  1.0000
  V   V24       1.0  0.19881703999999994  0.7732401750000001  0.474035203456518  1.0000
  V   V25       1.0  0.8480502200000001  0.422473355  0.474035203456518  1.0000
  V   V26       1.0  0.19881703999999994  0.227410655  0.4503386576239709  1.0000
  V   V27       1.0  0.12096497999999996  0.500325415  0.46218693219900275  1.0000
  V   V28       1.0  0.12096497999999996  0.500325415  0.48588347803154985  1.0000
  V   V29       1.0  0.39387974  0.578177475  0.474035203456518  1.0000
  V   V30       1.0  0.043112919999999964  0.7732401750000001  0.4503386576239709  1.0000
  V   V31       1.0  0.34805022  0.078177475  0.474035203456518  1.0000
  V   V32       1.0  0.8938797399999999  0.922473355  0.474035203456518  1.0000
  V   V33       1.0  0.54311292  0.727410655  0.4503386576239709  1.0000
  V   V34       1.0  0.69881704  0.273240175  0.4503386576239709  1.0000
  V   V35       1.0  0.34805022  0.922473355  0.4503386576239709  1.0000
  V   V36       1.0  0.69881704  0.727410655  0.474035203456518  1.0000
  V   V37       1.0  0.62096498  0.0003254149999999952  0.48588347803154985  1.0000
  V   V38       1.0  0.62096498  0.0003254149999999952  0.46218693219900275  1.0000
  V   V39       1.0  0.8938797399999999  0.078177475  0.4503386576239709  1.0000
  V   V40       1.0  0.54311292  0.273240175  0.474035203456518  1.0000
  As  As13      1.0  0.28504287999999994  0.336247515  0.474035203456518  1.0000
  As  As14      1.0  0.28504287999999994  0.664403315  0.4503386576239709  1.0000
  As  As15      1.0  0.9568870800000001  0.336247515  0.4503386576239709  1.0000
  As  As16      1.0  0.9568870800000001  0.664403315  0.474035203456518  1.0000
  As  As17      1.0  0.62096498  0.500325415  0.48588347803154985  1.0000
  As  As18      1.0  0.62096498  0.500325415  0.46218693219900275  1.0000
  As  As19      1.0  0.78504288  0.836247515  0.4503386576239709  1.0000
  As  As20      1.0  0.78504288  0.164403315  0.474035203456518  1.0000
  As  As21      1.0  0.45688707999999995  0.836247515  0.474035203456518  1.0000
  As  As22      1.0  0.45688707999999995  0.164403315  0.4503386576239709  1.0000
  As  As23      1.0  0.12096497999999996  0.0003254149999999952  0.46218693219900275  1.0000
  As  As24      1.0  0.12096497999999996  0.0003254149999999952  0.48588347803154985  1.0000
