data_image0
_chemical_formula_structural       COCa6Zn6Sn6Ca6Zn6Sn6
_chemical_formula_sum              "C1 O1 Ca12 Zn12 Sn12"
_cell_length_a       12.593389922836474
_cell_length_b       9.061437093205154
_cell_length_c       103.31897791
_cell_angle_alpha    105.22697238962492
_cell_angle_beta     79.10660536380627
_cell_angle_gamma    66.6042661564395

_space_group_name_H-M_alt    "P 1"
_space_group_IT_number       1

loop_
  _space_group_symop_operation_xyz
  'x, y, z'

loop_
  _atom_site_type_symbol
  _atom_site_label
  _atom_site_symmetry_multiplicity
  _atom_site_fract_x
  _atom_site_fract_y
  _atom_site_fract_z
  _atom_site_occupancy
  C   C1        1.0  0.50269456  0.352326775  0.5472431581524977  1.0000
  O   O1        1.0  0.48228689  0.387244045  0.5593254446598518  1.0000
  Ca  Ca1       1.0  0.9171315700000001  0.24086374500000002  0.44412437749025846  1.0000
  Ca  Ca2       1.0  0.2504649  0.24086374500000002  0.4594808761118137  1.0000
  Ca  Ca3       1.0  0.58379824  0.24086374500000002  0.4748373779582341  1.0000
  Ca  Ca4       1.0  0.7504649000000001  0.740863745  0.4594808761118137  1.0000
  Ca  Ca5       1.0  0.08379824000000002  0.740863745  0.4748373779582341  1.0000
  Ca  Ca6       1.0  0.4171315700000001  0.740863745  0.44412437749025846  1.0000
  Zn  Zn1       1.0  0.09194691000000002  0.04975105500000002  0.458730066214644  1.0000
  Zn  Zn2       1.0  0.42528024  0.04975105500000002  0.4740865680610645  1.0000
  Zn  Zn3       1.0  0.75861358  0.04975105500000002  0.4433735643682236  1.0000
  Zn  Zn4       1.0  0.7030580200000003  0.549751055  0.4792053998599611  1.0000
  Zn  Zn5       1.0  0.036391360000000046  0.549751055  0.44849239939198554  1.0000
  Zn  Zn6       1.0  0.36972469  0.549751055  0.46384890123840594  1.0000
  Sn  Sn1       1.0  0.95457305  0.461872635  0.47138755580812375  1.0000
  Sn  Sn2       1.0  0.2879063800000001  0.461872635  0.4406745553401481  1.0000
  Sn  Sn3       1.0  0.6212397200000002  0.461872635  0.45603105718656856  1.0000
  Sn  Sn4       1.0  0.5656841600000002  0.9618726350000001  0.44579339036391  1.0000
  Sn  Sn5       1.0  0.8990175000000002  0.9618726350000001  0.4611498889854652  1.0000
  Sn  Sn6       1.0  0.23235083000000004  0.9618726350000001  0.4765063908318857  1.0000
  Ca  Ca7       1.0  0.9171315700000001  0.24086374500000002  0.4901938798046545  1.0000
  Ca  Ca8       1.0  0.26092367  0.23862161500000004  0.5071889840456405  1.0000
  Ca  Ca9       1.0  0.5578917  0.26297117500000006  0.5191946896784609  1.0000
  Ca  Ca10      1.0  0.75559187  0.748737195  0.5072430489111629  1.0000
  Ca  Ca11      1.0  0.06395340000000002  0.7693130050000001  0.5205040075344785  1.0000
  Ca  Ca12      1.0  0.4171315700000001  0.740863745  0.4901938798046545  1.0000
  Zn  Zn7       1.0  0.07611433000000004  0.08759704500000001  0.5084343205755643  1.0000
  Zn  Zn8       1.0  0.45732812000000017  0.924499445  0.5176492084921759  1.0000
  Zn  Zn9       1.0  0.75861358  0.04975105500000002  0.48944306990748493  1.0000
  Zn  Zn10      1.0  0.7644634600000001  0.417461565  0.5207980507458313  1.0000
  Zn  Zn11      1.0  0.036391360000000046  0.549751055  0.4945619017063816  1.0000
  Zn  Zn12      1.0  0.34989142000000006  0.5828901150000001  0.5123736675924625  1.0000
  Sn  Sn7       1.0  0.9636086400000001  0.476834315  0.5185421124009558  1.0000
  Sn  Sn8       1.0  0.2879063800000001  0.461872635  0.4867440576545442  1.0000
  Sn  Sn9       1.0  0.59440226  0.5359753850000001  0.5065453589940042  1.0000
  Sn  Sn10      1.0  0.5656841600000002  0.9618726350000001  0.491862892678306  1.0000
  Sn  Sn11      1.0  0.8608886000000002  0.03763724500000002  0.5111884393254954  1.0000
  Sn  Sn12      1.0  0.22643057999999996  0.962362755  0.524221993352499  1.0000
