data_image0
_chemical_formula_structural       COAl3Pt2Al3Pt2Al3Pt2Al3Pt2
_chemical_formula_sum              "C1 O1 Al12 Pt8"
_cell_length_a       8.519735014279535
_cell_length_b       5.26302923
_cell_length_c       104.07894005
_cell_angle_alpha    90.0
_cell_angle_beta     119.99999994455659
_cell_angle_gamma    90.0

_space_group_name_H-M_alt    "P 1"
_space_group_IT_number       1

loop_
  _space_group_symop_operation_xyz
  'x, y, z'

loop_
  _atom_site_type_symbol
  _atom_site_label
  _atom_site_symmetry_multiplicity
  _atom_site_fract_x
  _atom_site_fract_y
  _atom_site_fract_z
  _atom_site_occupancy
  C   C1        1.0  0.533342195  0.20215120500000003  0.538643187339002  1.0000
  O   O1        1.0  0.5995047750000001  0.21023592500000005  0.5515182981342783  1.0000
  Al  Al1       1.0  0.08333333500000001  0.08345164500000005  0.4621247688332654  1.0000
  Al  Al2       1.0  0.416666665  0.730270655  0.47576783580080934  1.0000
  Al  Al3       1.0  0.250000005  0.43663263500000005  0.44848170186572156  1.0000
  Pt  Pt1       1.0  0.416666665  0.25035493500000006  0.47576783580080934  1.0000
  Pt  Pt2       1.0  0.250000005  0.916548355  0.44848170186572156  1.0000
  Al  Al4       1.0  0.08377910500000002  0.12678654500000003  0.503675870885012  1.0000
  Al  Al5       1.0  0.409177565  0.7061178550000001  0.5144633961410966  1.0000
  Al  Al6       1.0  0.24658374500000002  0.425729535  0.4889050473546897  1.0000
  Pt  Pt3       1.0  0.419133955  0.22032999500000008  0.5172612178608926  1.0000
  Pt  Pt4       1.0  0.248144365  0.9113207950000002  0.48917849041254063  1.0000
  Al  Al7       1.0  0.583333335  0.08345164500000005  0.4621247688332654  1.0000
  Al  Al8       1.0  0.9166666649999999  0.730270655  0.47576783580080934  1.0000
  Al  Al9       1.0  0.750000005  0.43663263500000005  0.44848170186572156  1.0000
  Pt  Pt5       1.0  0.9166666649999999  0.25035493500000006  0.47576783580080934  1.0000
  Pt  Pt6       1.0  0.750000005  0.916548355  0.44848170186572156  1.0000
  Al  Al10      1.0  0.589151915  0.12675192500000004  0.5036366672623558  1.0000
  Al  Al11      1.0  0.9052157449999999  0.739198565  0.5151436459543505  1.0000
  Al  Al12      1.0  0.746137915  0.434636845  0.48880179117491307  1.0000
  Pt  Pt7       1.0  0.907596275  0.26453965500000004  0.5153542905256963  1.0000
  Pt  Pt8       1.0  0.744487825  0.910563625  0.4885196514811501  1.0000
