data_image0
_chemical_formula_structural       COAl12Os6Al12Os6
_chemical_formula_sum              "C1 O1 Al24 Os12"
_cell_length_a       7.152409064166643
_cell_length_b       8.964681079115984
_cell_length_c       101.66506475
_cell_angle_alpha    104.61366479008774
_cell_angle_beta     71.56505117707799
_cell_angle_gamma    80.81814156362769

_space_group_name_H-M_alt    "P 1"
_space_group_IT_number       1

loop_
  _space_group_symop_operation_xyz
  'x, y, z'

loop_
  _atom_site_type_symbol
  _atom_site_label
  _atom_site_symmetry_multiplicity
  _atom_site_fract_x
  _atom_site_fract_y
  _atom_site_fract_z
  _atom_site_occupancy
  C   C1        1.0  0.09909740000000002  0.6517992699999999  0.5459106191178561  1.0000
  O   O1        1.0  0.05803255000000003  0.6746470499999999  0.5584120715355332  1.0000
  Al  Al1       1.0  0.9142186999999999  0.33996953  0.45162092145380206  1.0000
  Al  Al2       1.0  0.24755202999999995  0.33996953  0.4664525679519516  1.0000
  Al  Al3       1.0  0.5808853699999998  0.33996953  0.4812842144501012  1.0000
  Al  Al4       1.0  0.9730382099999999  0.16351099  0.46863405016318255  1.0000
  Al  Al5       1.0  0.30637155  0.16351099  0.48346569666133216  1.0000
  Al  Al6       1.0  0.6397048799999999  0.16351099  0.453802403665033  1.0000
  Al  Al7       1.0  0.7475520299999999  0.83996953  0.4442050997620501  1.0000
  Al  Al8       1.0  0.08088537000000004  0.83996953  0.45903674626019975  1.0000
  Al  Al9       1.0  0.4142186999999999  0.83996953  0.4738683896437037  1.0000
  Al  Al10      1.0  0.8063715499999999  0.6635109899999999  0.46121822847143057  1.0000
  Al  Al11      1.0  0.13970488000000003  0.6635109899999999  0.4760498718549346  1.0000
  Al  Al12      1.0  0.47303820999999985  0.6635109899999999  0.446386581973281  1.0000
  Os  Os1       1.0  0.02696179  0.001740259999999991  0.4415879284644668  1.0000
  Os  Os2       1.0  0.3602951199999999  0.001740259999999991  0.45641957496261637  1.0000
  Os  Os3       1.0  0.6936284599999998  0.001740259999999991  0.471251221460766  1.0000
  Os  Os4       1.0  0.86029512  0.5017402599999999  0.47866704315251785  1.0000
  Os  Os5       1.0  0.19362846  0.5017402599999999  0.4490037501562188  1.0000
  Os  Os6       1.0  0.52696179  0.5017402599999999  0.4638353966543683  1.0000
  Al  Al13      1.0  0.9142186999999999  0.33996953  0.49611585783360523  1.0000
  Al  Al14      1.0  0.24621128999999997  0.33288801  0.510725666812908  1.0000
  Al  Al15      1.0  0.5718292299999999  0.35046426999999997  0.5256388796502629  1.0000
  Al  Al16      1.0  0.9620002199999999  0.16142961  0.5141974408019467  1.0000
  Al  Al17      1.0  0.3281063799999999  0.14789375999999999  0.5266864346371884  1.0000
  Al  Al18      1.0  0.6410016599999999  0.16019657999999998  0.49816693917712923  1.0000
  Al  Al19      1.0  0.7475520299999999  0.83996953  0.48870003614185326  1.0000
  Al  Al20      1.0  0.07710523999999999  0.8411038099999999  0.5045796394162119  1.0000
  Al  Al21      1.0  0.4207628299999999  0.82325452  0.5180558762408087  1.0000
  Al  Al22      1.0  0.8090979199999999  0.66573986  0.5075208802454623  1.0000
  Al  Al23      1.0  0.14379007000000002  0.63177796  0.5242168757389467  1.0000
  Al  Al24      1.0  0.47303820999999985  0.6635109899999999  0.49088151835308413  1.0000
  Os  Os7       1.0  0.02696179  0.001740259999999991  0.4860828648442699  1.0000
  Os  Os8       1.0  0.35223980999999993  0.9982597399999998  0.5009375441466971  1.0000
  Os  Os9       1.0  0.69300048  0.9926902399999997  0.5146607817120148  1.0000
  Os  Os10      1.0  0.8733451499999999  0.47535401  0.521810640700579  1.0000
  Os  Os11      1.0  0.19362846  0.5017402599999999  0.49349868965066745  1.0000
  Os  Os12      1.0  0.52424828  0.49759959  0.5080169124758411  1.0000
