data_image0
_chemical_formula_structural       COSiPt5PbSiPt5PbSiPt5PbSiPt5Pb
_chemical_formula_sum              "C1 O1 Si4 Pt20 Pb4"
_cell_length_a       7.27421812
_cell_length_b       8.11693696
_cell_length_c       98.40927936
_cell_angle_alpha    90.0
_cell_angle_beta     90.0
_cell_angle_gamma    90.0

_space_group_name_H-M_alt    "P 1"
_space_group_IT_number       1

loop_
  _space_group_symop_operation_xyz
  'x, y, z'

loop_
  _atom_site_type_symbol
  _atom_site_label
  _atom_site_symmetry_multiplicity
  _atom_site_fract_x
  _atom_site_fract_y
  _atom_site_fract_z
  _atom_site_occupancy
  C   C1        1.0  0.7701424549999999  0.62139363  0.5351286068616858  1.0000
  O   O1        1.0  0.8073794750000001  0.6213948699999999  0.5467173307112777  1.0000
  Si  Si1       1.0  0.9011882549999999  0.12139345999999994  0.4934460256572804  1.0000
  Pt  Pt1       1.0  0.7081963549999999  0.3816174299999999  0.49452473744460496  1.0000
  Pt  Pt2       1.0  0.10628491499999997  0.36992376999999993  0.49395141199112036  1.0000
  Pt  Pt3       1.0  0.7074651350000001  0.12139478999999993  0.5131456134128126  1.0000
  Pt  Pt4       1.0  0.09442164499999996  0.12139411999999995  0.5132519245379946  1.0000
  Pt  Pt5       1.0  0.40624078499999994  0.12139372999999994  0.4956701874221201  1.0000
  Pb  Pb1       1.0  0.40196548499999996  0.3641805399999999  0.5181216703794668  1.0000
  Si  Si2       1.0  0.903900245  0.12139366999999994  0.45328266928872235  1.0000
  Pt  Pt6       1.0  0.705859915  0.37139366999999995  0.45328266928872235  1.0000
  Pt  Pt7       1.0  0.10194057499999995  0.37139366999999995  0.45328266928872235  1.0000
  Pt  Pt8       1.0  0.705859915  0.12139366999999994  0.4739030235135713  1.0000
  Pt  Pt9       1.0  0.10194057499999995  0.12139366999999994  0.4739030235135713  1.0000
  Pt  Pt10      1.0  0.40390024499999994  0.12139366999999994  0.45328266928872235  1.0000
  Pb  Pb2       1.0  0.40390024499999994  0.37139366999999995  0.4739030235135713  1.0000
  Si  Si3       1.0  0.9055783550000001  0.6213936899999999  0.4937697223347477  1.0000
  Pt  Pt11      1.0  0.7081966849999999  0.8611699599999999  0.49452484425804205  1.0000
  Pt  Pt12      1.0  0.10628515499999996  0.8728632299999999  0.4939515014834595  1.0000
  Pt  Pt13      1.0  0.7082808150000001  0.62138997  0.5167299952216706  1.0000
  Pt  Pt14      1.0  0.09796268499999995  0.6213927799999999  0.5132967342182498  1.0000
  Pt  Pt15      1.0  0.41332219499999995  0.6213938499999999  0.4978931857865513  1.0000
  Pb  Pb3       1.0  0.4019684049999999  0.87860654  0.5181216184161731  1.0000
  Si  Si4       1.0  0.903900245  0.6213936699999999  0.45328266928872235  1.0000
  Pt  Pt16      1.0  0.705859915  0.8713936699999999  0.45328266928872235  1.0000
  Pt  Pt17      1.0  0.10194057499999995  0.8713936699999999  0.45328266928872235  1.0000
  Pt  Pt18      1.0  0.705859915  0.6213936699999999  0.4739030235135713  1.0000
  Pt  Pt19      1.0  0.10194057499999995  0.6213936699999999  0.4739030235135713  1.0000
  Pt  Pt20      1.0  0.40390024499999994  0.6213936699999999  0.45328266928872235  1.0000
  Pb  Pb4       1.0  0.40390024499999994  0.8713936699999999  0.4739030235135713  1.0000
