data_image0
_chemical_formula_structural       COGe3Pd6Ge3Pd6
_chemical_formula_sum              "C1 O1 Ge6 Pd12"
_cell_length_a       6.80754711
_cell_length_b       6.807547103412934
_cell_length_c       98.40209768
_cell_angle_alpha    90.0
_cell_angle_beta     90.0
_cell_angle_gamma    119.9999999834156

_space_group_name_H-M_alt    "P 1"
_space_group_IT_number       1

loop_
  _space_group_symop_operation_xyz
  'x, y, z'

loop_
  _atom_site_type_symbol
  _atom_site_label
  _atom_site_symmetry_multiplicity
  _atom_site_fract_x
  _atom_site_fract_y
  _atom_site_fract_z
  _atom_site_occupancy
  C   C1        1.0  0.14242978500000006  0.28177382500000003  0.5294347667932323  1.0000
  O   O1        1.0  0.14365301500000005  0.273341895  0.5413726211243663  1.0000
  Ge  Ge1       1.0  0.6674765250000001  0.467872305  0.47666694456429076  1.0000
  Ge  Ge2       1.0  0.334143185  0.801205645  0.47666694456429076  1.0000
  Ge  Ge3       1.0  0.0008098550000000501  0.134538975  0.45862737887563376  1.0000
  Pd  Pd1       1.0  0.608089015  0.134538975  0.45862737887563376  1.0000
  Pd  Pd2       1.0  0.3935306950000001  0.5272598150000001  0.45862737887563376  1.0000
  Pd  Pd3       1.0  0.0008098550000000501  0.741818135  0.45862737887563376  1.0000
  Pd  Pd4       1.0  0.0008098550000000501  0.402137825  0.47666694456429076  1.0000
  Pd  Pd5       1.0  0.733211005  0.8669401250000001  0.47666694456429076  1.0000
  Pd  Pd6       1.0  0.268408705  0.134538975  0.47666694456429076  1.0000
  Ge  Ge4       1.0  0.671652695  0.469428895  0.5118163398166554  1.0000
  Ge  Ge5       1.0  0.334539325  0.803968325  0.5116211141936073  1.0000
  Ge  Ge6       1.0  0.9991901449999999  0.133059875  0.49464716152499727  1.0000
  Pd  Pd7       1.0  0.608293565  0.148198055  0.49549196737468437  1.0000
  Pd  Pd8       1.0  0.390258955  0.5233810649999999  0.494395285893026  1.0000
  Pd  Pd9       1.0  0.012514225000000044  0.741153765  0.49545675991512117  1.0000
  Pd  Pd10      1.0  0.004214765  0.38919547499999996  0.5138990062322455  1.0000
  Pd  Pd11      1.0  0.725580885  0.8594756450000001  0.5114599790202153  1.0000
  Pd  Pd12      1.0  0.254572385  0.138153035  0.5138392389863712  1.0000
