data_image0
_chemical_formula_structural       COAg4Ca8Ge4
_chemical_formula_sum              "C1 O1 Ag4 Ca8 Ge4"
_cell_length_a       5.25783608
_cell_length_b       7.43570309
_cell_length_c       101.54701648
_cell_angle_alpha    90.0
_cell_angle_beta     90.0
_cell_angle_gamma    90.0

_space_group_name_H-M_alt    "P 1"
_space_group_IT_number       1

loop_
  _space_group_symop_operation_xyz
  'x, y, z'

loop_
  _atom_site_type_symbol
  _atom_site_label
  _atom_site_symmetry_multiplicity
  _atom_site_fract_x
  _atom_site_fract_y
  _atom_site_fract_z
  _atom_site_occupancy
  C   C1        1.0  0.250015585  0.6249125600000001  0.5441226957218129  1.0000
  O   O1        1.0  0.25001775500000006  0.62509041  0.5556033480182903  1.0000
  Ag  Ag1       1.0  0.249975435  0.6251540100000001  0.4965427026723073  1.0000
  Ag  Ag2       1.0  0.250015355  0.62503851  0.4443966519817098  1.0000
  Ag  Ag3       1.0  0.750024565  0.12496149000000002  0.5200483125839218  1.0000
  Ag  Ag4       1.0  0.750015355  0.12503851000000002  0.47028532922670846  1.0000
  Ca  Ca1       1.0  0.750015355  0.8750385100000001  0.4443966519817098  1.0000
  Ca  Ca2       1.0  0.750023035  0.8731685700000001  0.495807528413062  1.0000
  Ca  Ca3       1.0  0.250015645  0.85760555  0.5228660207947695  1.0000
  Ca  Ca4       1.0  0.250015355  0.8750385100000001  0.47028532922670846  1.0000
  Ca  Ca5       1.0  0.250016985  0.39252812000000004  0.5228677574073086  1.0000
  Ca  Ca6       1.0  0.250015355  0.37503851000000005  0.47028532922670846  1.0000
  Ca  Ca7       1.0  0.750015355  0.37503851000000005  0.4443966519817098  1.0000
  Ca  Ca8       1.0  0.7500234450000001  0.37693031  0.4958073358012956  1.0000
  Ge  Ge1       1.0  0.25002198500000006  0.12502906000000003  0.4986919672810456  1.0000
  Ge  Ge2       1.0  0.250015355  0.12503851000000002  0.4443966519817098  1.0000
  Ge  Ge3       1.0  0.750014405  0.62503399  0.520840462646327  1.0000
  Ge  Ge4       1.0  0.750015355  0.62503851  0.47028532922670846  1.0000
