data_image0
_chemical_formula_structural       COAg4Ca8Ge4
_chemical_formula_sum              "C1 O1 Ag4 Ca8 Ge4"
_cell_length_a       5.25783608
_cell_length_b       7.43570309
_cell_length_c       101.54701648
_cell_angle_alpha    90.0
_cell_angle_beta     90.0
_cell_angle_gamma    90.0

_space_group_name_H-M_alt    "P 1"
_space_group_IT_number       1

loop_
  _space_group_symop_operation_xyz
  'x, y, z'

loop_
  _atom_site_type_symbol
  _atom_site_label
  _atom_site_symmetry_multiplicity
  _atom_site_fract_x
  _atom_site_fract_y
  _atom_site_fract_z
  _atom_site_occupancy
  C   C1        1.0  9.500000008877407e-08  0.00015966500000001054  0.543904935693324  1.0000
  O   O1        1.0  0.9999995850000001  0.999977365  0.5553862062114386  1.0000
  Ag  Ag1       1.0  1.47849999999754e-05  0.5000306950000001  0.49749952336842523  1.0000
  Ag  Ag2       1.0  2.4549999999754003e-06  0.500034925  0.44461379378856153  1.0000
  Ag  Ag3       1.0  0.500023805  0.9999977450000002  0.5200949929775031  1.0000
  Ag  Ag4       1.0  0.500002455  3.4925000000010525e-05  0.4705024710335601  1.0000
  Ca  Ca1       1.0  0.500002455  0.750034925  0.44461379378856153  1.0000
  Ca  Ca2       1.0  0.500004055  0.7505542050000001  0.495955006893302  1.0000
  Ca  Ca3       1.0  0.999999905  0.7493479150000001  0.5231717422676788  1.0000
  Ca  Ca4       1.0  2.4549999999754003e-06  0.750034925  0.4705024710335601  1.0000
  Ca  Ca5       1.0  2.849999999754e-07  0.250682725  0.5231707139693774  1.0000
  Ca  Ca6       1.0  2.4549999999754003e-06  0.250034925  0.4705024710335601  1.0000
  Ca  Ca7       1.0  0.500002455  0.250034925  0.44461379378856153  1.0000
  Ca  Ca8       1.0  0.5000040849999999  0.24952368500000005  0.495956411095212  1.0000
  Ge  Ge1       1.0  2.1249999999754e-06  2.26350000001041e-05  0.49832361281099863  1.0000
  Ge  Ge2       1.0  2.4549999999754003e-06  3.4925000000010525e-05  0.44461379378856153  1.0000
  Ge  Ge3       1.0  0.49999838499999993  0.5000371550000001  0.5209865648844297  1.0000
  Ge  Ge4       1.0  0.500002455  0.500034925  0.4705024710335601  1.0000
