data_image0
_chemical_formula_structural       COAl12Pd6
_chemical_formula_sum              "C1 O1 Al12 Pd6"
_cell_length_a       5.98134686
_cell_length_b       7.3256238927443755
_cell_length_c       102.21053864000001
_cell_angle_alpha    94.3477531191094
_cell_angle_beta     90.0
_cell_angle_gamma    114.09484254530685

_space_group_name_H-M_alt    "P 1"
_space_group_IT_number       1

loop_
  _space_group_symop_operation_xyz
  'x, y, z'

loop_
  _atom_site_type_symbol
  _atom_site_label
  _atom_site_symmetry_multiplicity
  _atom_site_fract_x
  _atom_site_fract_y
  _atom_site_fract_z
  _atom_site_occupancy
  C   C1        1.0  0.62351757  0.669741795  0.5354527958502111  1.0000
  O   O1        1.0  0.6891653799999999  0.7821026049999998  0.5448626701800092  1.0000
  Al  Al1       1.0  0.40918651  0.23275302499999997  0.4813989216448716  1.0000
  Al  Al2       1.0  0.99251984  0.39941968499999997  0.4551373298199909  1.0000
  Al  Al3       1.0  0.82677074  0.05891364500000001  0.506978505155098  1.0000
  Al  Al4       1.0  0.9091865100000001  0.23275302499999997  0.4813989216448716  1.0000
  Al  Al5       1.0  0.49251984  0.39941968499999997  0.4551373298199909  1.0000
  Al  Al6       1.0  0.32323310000000005  0.061183484999999996  0.5073171095280682  1.0000
  Al  Al7       1.0  0.7008531800000001  0.8160863549999999  0.4682681273081268  1.0000
  Al  Al8       1.0  0.54347481  0.471292455  0.5196972172829349  1.0000
  Al  Al9       1.0  0.11751983999999999  0.649419685  0.4945297191330075  1.0000
  Al  Al10      1.0  0.20085318000000005  0.8160863549999999  0.4682681273081268  1.0000
  Al  Al11      1.0  0.00748016000000005  0.469382615  0.5189312086373097  1.0000
  Al  Al12      1.0  0.61751984  0.649419685  0.4945297191330075  1.0000
  Pd  Pd1       1.0  0.22529177000000006  0.35863576500000005  0.5013958157416574  1.0000
  Pd  Pd2       1.0  0.8050198399999999  0.524419685  0.4748335244764991  1.0000
  Pd  Pd3       1.0  0.63778541  0.183958805  0.5257876966543583  1.0000
  Pd  Pd4       1.0  0.5133531800000001  0.9410863549999999  0.4879643219646351  1.0000
  Pd  Pd5       1.0  0.09668651000000006  0.107753025  0.4617027269883633  1.0000
  Pd  Pd6       1.0  0.9320609799999999  0.774493315  0.5138858881391392  1.0000
