data_image0
_chemical_formula_structural       COGe12Mo20Ge12Mo20
_chemical_formula_sum              "C1 O1 Ge24 Mo40"
_cell_length_a       9.9254583
_cell_length_b       9.9254583
_cell_length_c       100.09110163
_cell_angle_alpha    90.0
_cell_angle_beta     90.0
_cell_angle_gamma    90.0

_space_group_name_H-M_alt    "P 1"
_space_group_IT_number       1

loop_
  _space_group_symop_operation_xyz
  'x, y, z'

loop_
  _atom_site_type_symbol
  _atom_site_label
  _atom_site_symmetry_multiplicity
  _atom_site_fract_x
  _atom_site_fract_y
  _atom_site_fract_z
  _atom_site_occupancy
  C   C1        1.0  0.45639831000000003  0.28858682999999996  0.5474569330103384  1.0000
  O   O1        1.0  0.45877029999999996  0.27820687999999993  0.5591569184275655  1.0000
  Ge  Ge1       1.0  0.54391283  0.5381711199999999  0.4408430815724344  1.0000
  Ge  Ge2       1.0  0.04391282999999996  0.038171119999999954  0.4408430815724344  1.0000
  Ge  Ge3       1.0  0.37576614999999997  0.20631779999999997  0.45336962969844563  1.0000
  Ge  Ge4       1.0  0.71205951  0.20631779999999997  0.4784227229440967  1.0000
  Ge  Ge5       1.0  0.37576614999999997  0.87002444  0.4784227229440967  1.0000
  Ge  Ge6       1.0  0.71205951  0.87002444  0.45336962969844563  1.0000
  Ge  Ge7       1.0  0.04391282999999996  0.038171119999999954  0.4658961748180855  1.0000
  Ge  Ge8       1.0  0.54391283  0.5381711199999999  0.4658961748180855  1.0000
  Ge  Ge9       1.0  0.8757661499999999  0.7063178  0.4784227229440967  1.0000
  Ge  Ge10      1.0  0.21205950999999998  0.7063178  0.45336962969844563  1.0000
  Ge  Ge11      1.0  0.8757661499999999  0.37002443999999995  0.45336962969844563  1.0000
  Ge  Ge12      1.0  0.21205950999999998  0.37002443999999995  0.4784227229440967  1.0000
  Mo  Mo1       1.0  0.46708611  0.3083276999999999  0.4784227229440967  1.0000
  Mo  Mo2       1.0  0.62073955  0.7680145399999999  0.4784227229440967  1.0000
  Mo  Mo3       1.0  0.54391283  0.038171119999999954  0.4658961748180855  1.0000
  Mo  Mo4       1.0  0.54391283  0.038171119999999954  0.4408430815724344  1.0000
  Mo  Mo5       1.0  0.2737562499999999  0.9613444  0.45336962969844563  1.0000
  Mo  Mo6       1.0  0.8140694099999999  0.11499783999999995  0.45336962969844563  1.0000
  Mo  Mo7       1.0  0.46708611  0.7680145399999999  0.45336962969844563  1.0000
  Mo  Mo8       1.0  0.2737562499999999  0.11499783999999995  0.4784227229440967  1.0000
  Mo  Mo9       1.0  0.8140694099999999  0.9613444  0.4784227229440967  1.0000
  Mo  Mo10      1.0  0.62073955  0.3083276999999999  0.45336962969844563  1.0000
  Mo  Mo11      1.0  0.9670861099999999  0.8083277  0.45336962969844563  1.0000
  Mo  Mo12      1.0  0.12073954999999996  0.2680145399999999  0.45336962969844563  1.0000
  Mo  Mo13      1.0  0.04391282999999996  0.5381711199999999  0.4408430815724344  1.0000
  Mo  Mo14      1.0  0.04391282999999996  0.5381711199999999  0.4658961748180855  1.0000
  Mo  Mo15      1.0  0.77375625  0.46134439999999993  0.4784227229440967  1.0000
  Mo  Mo16      1.0  0.31406940999999994  0.6149978399999999  0.4784227229440967  1.0000
  Mo  Mo17      1.0  0.9670861099999999  0.2680145399999999  0.4784227229440967  1.0000
  Mo  Mo18      1.0  0.77375625  0.6149978399999999  0.45336962969844563  1.0000
  Mo  Mo19      1.0  0.31406940999999994  0.46134439999999993  0.45336962969844563  1.0000
  Mo  Mo20      1.0  0.12073954999999996  0.8083277  0.4784227229440967  1.0000
  Ge  Ge13      1.0  0.54391283  0.5381711199999999  0.49094927107010794  1.0000
  Ge  Ge14      1.0  0.04391282999999996  0.038171119999999954  0.49094927107010794  1.0000
  Ge  Ge15      1.0  0.37946771999999995  0.20659444999999999  0.5025285747302197  1.0000
  Ge  Ge16      1.0  0.69985662  0.20416093999999999  0.5290445622424442  1.0000
  Ge  Ge17      1.0  0.36007622999999994  0.8730024  0.5305592562866844  1.0000
  Ge  Ge18      1.0  0.71075806  0.8700839500000002  0.5023807755038906  1.0000
  Ge  Ge19      1.0  0.05231459999999996  0.036256989999999954  0.5186847750658977  1.0000
  Ge  Ge20      1.0  0.5498198799999999  0.5353341399999999  0.5186058848763591  1.0000
  Ge  Ge21      1.0  0.8578545399999998  0.7116694299999999  0.530853637158962  1.0000
  Ge  Ge22      1.0  0.21021762  0.7048969099999999  0.5023744531050263  1.0000
  Ge  Ge23      1.0  0.8793047799999998  0.3698421699999999  0.5022680636371174  1.0000
  Ge  Ge24      1.0  0.19485985999999997  0.37977647999999997  0.5295601579284347  1.0000
  Mo  Mo21      1.0  0.45304472  0.30685409999999996  0.527374847667989  1.0000
  Mo  Mo22      1.0  0.6014485299999999  0.7816564500000001  0.525039260931255  1.0000
  Mo  Mo23      1.0  0.53640418  0.028571879999999956  0.5176382451874945  1.0000
  Mo  Mo24      1.0  0.54391283  0.038171119999999954  0.49094927107010794  1.0000
  Mo  Mo25      1.0  0.27584608999999993  0.96244595  0.5031760358745978  1.0000
  Mo  Mo26      1.0  0.8101025599999999  0.11198441999999996  0.5036098372163643  1.0000
  Mo  Mo27      1.0  0.46678706000000003  0.7716685799999999  0.5032078252448269  1.0000
  Mo  Mo28      1.0  0.28650992999999997  0.12319643999999996  0.5261172404599294  1.0000
  Mo  Mo29      1.0  0.81350011  0.9714281200000001  0.5249876746059513  1.0000
  Mo  Mo30      1.0  0.62226666  0.30963816999999993  0.5031721155664098  1.0000
  Mo  Mo31      1.0  0.96876792  0.80580691  0.5030645716519181  1.0000
  Mo  Mo32      1.0  0.12023164999999994  0.2672828099999999  0.503824227567204  1.0000
  Mo  Mo33      1.0  0.04391282999999996  0.5381711199999999  0.49094927107010794  1.0000
  Mo  Mo34      1.0  0.031232079999999964  0.5514364399999999  0.5178956266480633  1.0000
  Mo  Mo35      1.0  0.7900191599999999  0.46066911999999993  0.5254206010936667  1.0000
  Mo  Mo36      1.0  0.31320440999999993  0.6135124399999999  0.5252072329090725  1.0000
  Mo  Mo37      1.0  0.9589568699999999  0.26894443999999995  0.5254973206831198  1.0000
  Mo  Mo38      1.0  0.77696235  0.6133274899999999  0.5030263787107992  1.0000
  Mo  Mo39      1.0  0.31345939999999994  0.4642735599999999  0.5041744487801888  1.0000
  Mo  Mo40      1.0  0.10452183999999995  0.7907227299999999  0.525274542556326  1.0000
