data_image0
_chemical_formula_structural       COZn16Cu8Au8
_chemical_formula_sum              "C1 O1 Zn16 Cu8 Au8"
_cell_length_a       6.578917347099842
_cell_length_b       10.701433042323215
_cell_length_c       104.6170502
_cell_angle_alpha    96.09859311280881
_cell_angle_beta     88.15924394299637
_cell_angle_gamma    53.928606598951575

_space_group_name_H-M_alt    "P 1"
_space_group_IT_number       1

loop_
  _space_group_symop_operation_xyz
  'x, y, z'

loop_
  _atom_site_type_symbol
  _atom_site_label
  _atom_site_symmetry_multiplicity
  _atom_site_fract_x
  _atom_site_fract_y
  _atom_site_fract_z
  _atom_site_occupancy
  C   C1        1.0  0.95924417  0.6895714350000001  0.5354244621573064  1.0000
  O   O1        1.0  0.9685656200000001  0.7092161550000001  0.5464833067921243  1.0000
  Zn  Zn1       1.0  0.04075582999999994  0.8660728150000001  0.518482005677192  1.0000
  Zn  Zn2       1.0  0.7781056400000002  0.6033288450000001  0.4564147170224598  1.0000
  Zn  Zn3       1.0  0.28591223000000004  0.10178588500000002  0.49771501834835624  1.0000
  Zn  Zn4       1.0  0.5281056400000002  0.353328845  0.4770955298857916  1.0000
  Zn  Zn5       1.0  0.28330639999999996  0.6036704650000001  0.4981103296045412  1.0000
  Zn  Zn6       1.0  0.03918481999999979  0.35720340500000003  0.518649291945211  1.0000
  Zn  Zn7       1.0  0.52772408  0.8537104050000001  0.4771270937696162  1.0000
  Zn  Zn8       1.0  0.7777240800000002  0.10371040500000002  0.45644628090628436  1.0000
  Zn  Zn9       1.0  0.9248762199999999  0.8877386450000001  0.474249039347933  1.0000
  Zn  Zn10      1.0  0.6817463300000001  0.641435225  0.49468631826791626  1.0000
  Zn  Zn11      1.0  0.17487622000000005  0.137738645  0.45356822648460104  1.0000
  Zn  Zn12      1.0  0.44040781  0.388658445  0.5163224390926117  1.0000
  Zn  Zn13      1.0  0.6798117  0.136919165  0.49456593608347144  1.0000
  Zn  Zn14      1.0  0.42324966  0.898214115  0.516717545195133  1.0000
  Zn  Zn15      1.0  0.9244946600000001  0.38812020500000005  0.4742806032317575  1.0000
  Zn  Zn16      1.0  0.17449465999999997  0.6381202050000001  0.45359979036842557  1.0000
  Cu  Cu1       1.0  0.18335085  0.8857519250000001  0.4940122627436342  1.0000
  Cu  Cu2       1.0  0.92376536  0.647442005  0.517983042186936  1.0000
  Cu  Cu3       1.0  0.4283185500000001  0.13671839500000002  0.4743650008018203  1.0000
  Cu  Cu4       1.0  0.6783185500000001  0.38671839500000005  0.45368418793848836  1.0000
  Cu  Cu5       1.0  0.024281750000000102  0.6047306550000001  0.47701113231572895  1.0000
  Cu  Cu6       1.0  0.78660414  0.35175261500000005  0.4977279297934431  1.0000
  Cu  Cu7       1.0  0.27428175  0.8547306550000001  0.456330319452397  1.0000
  Cu  Cu8       1.0  0.53210501  0.11680845500000002  0.5169663072479734  1.0000
  Au  Au1       1.0  0.7895941099999999  0.849448265  0.49899845305000434  1.0000
  Au  Au2       1.0  0.5439122900000001  0.6060907550000001  0.5175271940553374  1.0000
  Au  Au3       1.0  0.030356059999999907  0.10270588500000002  0.4771786270463415  1.0000
  Au  Au4       1.0  0.28035606  0.35270588500000005  0.4564978141830096  1.0000
  Au  Au5       1.0  0.4222442399999999  0.6387431650000001  0.47419750607120764  1.0000
  Au  Au6       1.0  0.17445041000000006  0.39437877499999996  0.4946526432867147  1.0000
  Au  Au7       1.0  0.6722442399999998  0.8887431650000001  0.4535166932078757  1.0000
  Au  Au8       1.0  0.9339242899999999  0.14153533500000004  0.5155026516707092  1.0000
