data_image0
_chemical_formula_structural       COCa4Ge8Ru8
_chemical_formula_sum              "C1 O1 Ca4 Ge8 Ru8"
_cell_length_a       5.90620519
_cell_length_b       5.906205187618877
_cell_length_c       106.63401105
_cell_angle_alpha    90.0
_cell_angle_beta     90.0
_cell_angle_gamma    117.75280912561193

_space_group_name_H-M_alt    "P 1"
_space_group_IT_number       1

loop_
  _space_group_symop_operation_xyz
  'x, y, z'

loop_
  _atom_site_type_symbol
  _atom_site_label
  _atom_site_symmetry_multiplicity
  _atom_site_fract_x
  _atom_site_fract_y
  _atom_site_fract_z
  _atom_site_occupancy
  C   C1        1.0  0.06817097499999995  0.275701465  0.5563264575187222  1.0000
  O   O1        1.0  0.07214316499999994  0.3798541649999999  0.5655530851047961  1.0000
  Ca  Ca1       1.0  0.5664926650000001  0.5664221349999999  0.4487614589526434  1.0000
  Ca  Ca2       1.0  0.06649266499999994  0.06642213499999994  0.47739054363203187  1.0000
  Ca  Ca3       1.0  0.5664926650000001  0.5664221349999999  0.5060196283114203  1.0000
  Ca  Ca4       1.0  0.06673233499999993  0.07021642499999994  0.5333385200554996  1.0000
  Ge  Ge1       1.0  0.199230745  0.933684055  0.4487614589526434  1.0000
  Ge  Ge2       1.0  0.6992307449999999  0.43368405499999996  0.47739054363203187  1.0000
  Ge  Ge3       1.0  0.43375458499999997  0.6991602149999999  0.47739054363203187  1.0000
  Ge  Ge4       1.0  0.933754585  0.19916021499999992  0.4487614589526434  1.0000
  Ge  Ge5       1.0  0.199230745  0.933684055  0.5060196283114203  1.0000
  Ge  Ge6       1.0  0.702064045  0.43084895499999987  0.5343302155561741  1.0000
  Ge  Ge7       1.0  0.428864645  0.7007012049999999  0.5343226987034  1.0000
  Ge  Ge8       1.0  0.933754585  0.19916021499999992  0.5060196283114203  1.0000
  Ru  Ru1       1.0  0.06649266499999996  0.5664221349999999  0.434446914895204  1.0000
  Ru  Ru2       1.0  0.566492665  0.06642213499999994  0.4630759995745925  1.0000
  Ru  Ru3       1.0  0.566492665  0.06642213499999994  0.434446914895204  1.0000
  Ru  Ru4       1.0  0.06649266499999996  0.5664221349999999  0.4630759995745925  1.0000
  Ru  Ru5       1.0  0.06649266499999996  0.5664221349999999  0.49170508768947124  1.0000
  Ru  Ru6       1.0  0.566410715  0.06631594499999995  0.5206350182543386  1.0000
  Ru  Ru7       1.0  0.566492665  0.06642213499999994  0.49170508768947124  1.0000
  Ru  Ru8       1.0  0.06624541499999996  0.5677524249999999  0.520596022003955  1.0000
