data_image0
_chemical_formula_structural       COAg4Ca4Ag4Ca4
_chemical_formula_sum              "C1 O1 Ag8 Ca8"
_cell_length_a       8.33817316
_cell_length_b       6.131158643940413
_cell_length_c       103.47638875
_cell_angle_alpha    90.0
_cell_angle_beta     90.0
_cell_angle_gamma    109.87637077187479

_space_group_name_H-M_alt    "P 1"
_space_group_IT_number       1

loop_
  _space_group_symop_operation_xyz
  'x, y, z'

loop_
  _atom_site_type_symbol
  _atom_site_label
  _atom_site_symmetry_multiplicity
  _atom_site_fract_x
  _atom_site_fract_y
  _atom_site_fract_z
  _atom_site_occupancy
  C   C1        1.0  0.37284813999999994  0.7284187999999999  0.5395671580013074  1.0000
  O   O1        1.0  0.4463156699999999  0.72642528  0.5491743466138614  1.0000
  Ag  Ag1       1.0  0.03631941999999999  0.14997343  0.4739340224166203  1.0000
  Ag  Ag2       1.0  0.46133270000000004  0.85002657  0.45082565338613856  1.0000
  Ag  Ag3       1.0  0.04335247  0.1569241  0.5191983032743727  1.0000
  Ag  Ag4       1.0  0.46217842  0.84847648  0.49678102839346194  1.0000
  Ca  Ca1       1.0  0.17820380999999996  0.7175110199999999  0.4739340224166203  1.0000
  Ca  Ca2       1.0  0.31944830999999996  0.28248898  0.45082565338613856  1.0000
  Ca  Ca3       1.0  0.19035666999999998  0.72339627  0.5192495160428423  1.0000
  Ca  Ca4       1.0  0.31986005999999995  0.2811679  0.4963042126081876  1.0000
  Ag  Ag5       1.0  0.5363194200000001  0.14997343  0.4739340224166203  1.0000
  Ag  Ag6       1.0  0.9613326999999999  0.85002657  0.45082565338613856  1.0000
  Ag  Ag7       1.0  0.5435999600000001  0.16923282  0.5189313563143283  1.0000
  Ag  Ag8       1.0  0.96368058  0.84597956  0.4969943329710682  1.0000
  Ca  Ca5       1.0  0.67820381  0.7175110199999999  0.4739340224166203  1.0000
  Ca  Ca6       1.0  0.8194483100000001  0.28248898  0.45082565338613856  1.0000
  Ca  Ca7       1.0  0.6798571  0.72820097  0.518752632487333  1.0000
  Ca  Ca8       1.0  0.8210576800000001  0.2833448  0.49651616811918287  1.0000
