data_image0
_chemical_formula_structural       COSi20V24
_chemical_formula_sum              "C1 O1 Si20 V24"
_cell_length_a       8.941843639089656
_cell_length_b       9.158750344856461
_cell_length_c       99.3010304
_cell_angle_alpha    84.81875629383995
_cell_angle_beta     85.98648518605357
_cell_angle_gamma    101.53927283808486

_space_group_name_H-M_alt    "P 1"
_space_group_IT_number       1

loop_
  _space_group_symop_operation_xyz
  'x, y, z'

loop_
  _atom_site_type_symbol
  _atom_site_label
  _atom_site_symmetry_multiplicity
  _atom_site_fract_x
  _atom_site_fract_y
  _atom_site_fract_z
  _atom_site_occupancy
  C   C1        1.0  0.622372605  0.05677892000000006  0.5356733068088875  1.0000
  O   O1        1.0  0.591630815  0.05563517000000007  0.5473704164346479  1.0000
  Si  Si1       1.0  0.649641485  0.9291991800000001  0.4947263266185355  1.0000
  Si  Si2       1.0  0.02934798500000007  0.18912735000000006  0.4581825875873591  1.0000
  Si  Si3       1.0  0.47277940500000015  0.80020513  0.5151898742366259  1.0000
  Si  Si4       1.0  0.8418479850000001  0.06412735000000006  0.47662463589867254  1.0000
  Si  Si5       1.0  0.5682385150000001  0.73133062  0.4626081008394394  1.0000
  Si  Si6       1.0  0.18453656500000007  0.47792581000000006  0.4993999754175985  1.0000
  Si  Si7       1.0  0.30295745500000004  0.52192408  0.47219912264659236  1.0000
  Si  Si8       1.0  0.920769225  0.2724277200000001  0.5090559870030007  1.0000
  Si  Si9       1.0  0.8626886750000001  0.49803158999999997  0.4757241328100891  1.0000
  Si  Si10      1.0  0.49211336500000014  0.2589602900000001  0.5134904085020972  1.0000
  Si  Si11      1.0  0.637917825  0.50695757  0.49557048261039055  1.0000
  Si  Si12      1.0  0.008507295000000055  0.7552231  0.4590830906759426  1.0000
  Si  Si13      1.0  0.861947415  0.90644185  0.5230332183688728  1.0000
  Si  Si14      1.0  0.20768043500000008  0.11994690000000005  0.4872282412364981  1.0000
  Si  Si15      1.0  0.2885155350000001  0.8833077900000001  0.48446307887216034  1.0000
  Si  Si16      1.0  0.9387157349999999  0.65747356  0.5215710678627419  1.0000
  Si  Si17      1.0  0.991492705  0.8058954  0.4965165773931272  1.0000
  Si  Si18      1.0  0.3632577650000001  0.05341090000000007  0.45936668216732696  1.0000
  Si  Si19      1.0  0.507938205  0.19984380000000004  0.4754405413187047  1.0000
  Si  Si20      1.0  0.13132483500000006  0.94811511  0.5132847752373345  1.0000
  V   V1        1.0  0.10690056500000004  0.65444283  0.48106624241979107  1.0000
  V   V2        1.0  0.7333205950000001  0.4241937400000001  0.5181167925443841  1.0000
  V   V3        1.0  0.576795405  0.47381187  0.47218302937755396  1.0000
  V   V4        1.0  0.2045207350000001  0.2232458900000001  0.5088991528734337  1.0000
  V   V5        1.0  0.3892954050000001  0.3488118700000001  0.4906250776888673  1.0000
  V   V6        1.0  0.7642954049999999  0.59881187  0.4537409810662406  1.0000
  V   V7        1.0  0.29440056500000006  0.7794428300000001  0.4626241941084777  1.0000
  V   V8        1.0  0.912383545  0.5306013  0.49990954839217044  1.0000
  V   V9        1.0  0.6722775750000001  0.058894110000000055  0.5158439650032206  1.0000
  V   V10       1.0  0.04248063500000007  0.3134148400000001  0.48217763992067947  1.0000
  V   V11       1.0  0.4537153350000001  0.68983986  0.48951368018797886  1.0000
  V   V12       1.0  0.8287153349999999  0.9398398600000001  0.45262958356535216  1.0000
  V   V13       1.0  0.7832492150000001  0.7580263000000002  0.4794536992227271  1.0000
  V   V14       1.0  0.42153619500000006  0.5236998  0.5119994205338627  1.0000
  V   V15       1.0  0.7129467549999999  0.2452283900000001  0.4922376208859313  1.0000
  V   V16       1.0  0.08794675500000006  0.4952283900000001  0.4553535242633045  1.0000
  V   V17       1.0  0.5736091550000001  0.9671351399999999  0.47170172142390593  1.0000
  V   V18       1.0  0.21100839500000007  0.71938652  0.5074920039321862  1.0000
  V   V19       1.0  0.29758682500000005  0.28611956000000005  0.4631055050128534  1.0000
  V   V20       1.0  0.9279497750000001  0.04239690000000006  0.49913780620953274  1.0000
  V   V21       1.0  0.793699075  0.2876746600000001  0.46287607117822205  1.0000
  V   V22       1.0  0.4134126350000001  0.03286486000000005  0.5013764997323178  1.0000
  V   V23       1.0  0.7142128150000002  0.71635806  0.5089296929054371  1.0000
  V   V24       1.0  0.07749690500000007  0.9655800400000001  0.4719311552585373  1.0000
