data_image0
_chemical_formula_structural       COAs24Rh12
_chemical_formula_sum              "C1 O1 As24 Rh12"
_cell_length_a       11.314386672362378
_cell_length_b       8.738612642999968
_cell_length_c       105.21495066
_cell_angle_alpha    73.08431003076103
_cell_angle_beta     85.71209968311638
_cell_angle_gamma    52.431014004138284

_space_group_name_H-M_alt    "P 1"
_space_group_IT_number       1

loop_
  _space_group_symop_operation_xyz
  'x, y, z'

loop_
  _atom_site_type_symbol
  _atom_site_label
  _atom_site_symmetry_multiplicity
  _atom_site_fract_x
  _atom_site_fract_y
  _atom_site_fract_z
  _atom_site_occupancy
  C   C1        1.0  0.6786700400000001  0.8375630750000002  0.5374067110522479  1.0000
  O   O1        1.0  0.7057043599999999  0.7105174649999999  0.5475587327436746  1.0000
  As  As1       1.0  0.28136035000000004  0.38298763500000016  0.5054903335184711  1.0000
  As  As2       1.0  0.01538752000000003  0.944924135  0.5350254810968752  1.0000
  As  As3       1.0  0.62251088  0.7146078750000001  0.4777097658641737  1.0000
  As  As4       1.0  0.2715171  0.10420960500000005  0.4869472091889198  1.0000
  As  As5       1.0  0.9465817400000001  0.744673385  0.5147165846320088  1.0000
  As  As6       1.0  0.60485043  0.4375429450000001  0.45905593436651804  1.0000
  As  As7       1.0  0.023954000000000027  0.5993357950000001  0.46582484915785644  1.0000
  As  As8       1.0  0.69062067  0.266002465  0.49371612398025816  1.0000
  As  As9       1.0  0.36551241  0.9434870449999999  0.5204683871480631  1.0000
  As  As10      1.0  0.04161446000000003  0.876400725  0.4844786773085588  1.0000
  As  As11      1.0  0.7268926400000001  0.535608625  0.51297289569333  1.0000
  As  As12      1.0  0.37494779  0.20973406500000014  0.4565874024861572  1.0000
  As  As13      1.0  0.95369743  0.23457867500000015  0.47612639263263384  1.0000
  As  As14      1.0  0.6203641000000001  0.9012453450000002  0.5040176708019888  1.0000
  As  As15      1.0  0.26598373000000003  0.618629245  0.5317840975793855  1.0000
  As  As16      1.0  0.27296543  0.918969035  0.46069774539940317  1.0000
  As  As17      1.0  0.9396321  0.5856357050000002  0.4885890235687581  1.0000
  As  As18      1.0  0.60834662  0.2634888550000001  0.5166313095686458  1.0000
  As  As19      1.0  0.35943412  0.746031665  0.49529949386484484  1.0000
  As  As20      1.0  0.98461248  0.4071180450000002  0.5240969127320834  1.0000
  As  As21      1.0  0.69276745  0.07936499500000006  0.4674082190424431  1.0000
  As  As22      1.0  0.039057540000000036  0.05736262500000001  0.5110932836417971  1.0000
  As  As23      1.0  0.7068327900000001  0.7283079650000002  0.45494559145327207  1.0000
  As  As24      1.0  0.37349945  0.3949746350000001  0.48283686627567374  1.0000
  Rh  Rh1       1.0  0.18068895000000001  0.7193107150000002  0.5077837293833106  1.0000
  Rh  Rh2       1.0  0.84358878  0.3884092050000001  0.4524412672563254  1.0000
  Rh  Rh3       1.0  0.51025545  0.055075865000000106  0.4803325420787271  1.0000
  Rh  Rh4       1.0  0.46923036  0.5928259650000001  0.47717384838483645  1.0000
  Rh  Rh5       1.0  0.13093266000000003  0.260694835  0.5056842794104849  1.0000
  Rh  Rh6       1.0  0.80928609  0.9314689250000002  0.5305333847116099  1.0000
  Rh  Rh7       1.0  0.13620944000000004  0.25886780500000006  0.4632020695963499  1.0000
  Rh  Rh8       1.0  0.80287611  0.9255344649999999  0.4910933444187516  1.0000
  Rh  Rh9       1.0  0.46968593  0.612473185  0.518282167415794  1.0000
  Rh  Rh10      1.0  0.8439011900000001  0.387784375  0.4942520414595955  1.0000
  Rh  Rh11      1.0  0.52134934  0.06039707500000015  0.5213954764254786  1.0000
  Rh  Rh12      1.0  0.17723453000000006  0.721117705  0.4663607632902405  1.0000
