data_image0
_chemical_formula_structural       COPt4Zn12
_chemical_formula_sum              "C1 O1 Pt4 Zn12"
_cell_length_a       4.90575819
_cell_length_b       4.905758195212272
_cell_length_c       102.41781062
_cell_angle_alpha    90.0
_cell_angle_beta     90.0
_cell_angle_gamma    113.17317068868581

_space_group_name_H-M_alt    "P 1"
_space_group_IT_number       1

loop_
  _space_group_symop_operation_xyz
  'x, y, z'

loop_
  _atom_site_type_symbol
  _atom_site_label
  _atom_site_symmetry_multiplicity
  _atom_site_fract_x
  _atom_site_fract_y
  _atom_site_fract_z
  _atom_site_occupancy
  C   C1        1.0  3.6999999997673503e-07  4.7500000001602195e-07  0.5498422101103178  1.0000
  O   O1        1.0  2.8999999997673505e-07  3.0500000001602194e-07  0.5612502188600333  1.0000
  Pt  Pt1       1.0  0.5000013999999999  0.500001555  0.45193832603143647  1.0000
  Pt  Pt2       1.0  1.399999999976735e-06  1.555000000016022e-06  0.4783154221448787  1.0000
  Pt  Pt3       1.0  0.5000000499999999  0.500000205  0.5039890443265049  1.0000
  Pt  Pt4       1.0  0.99999987  7.5000000016022e-08  0.5313159595484137  1.0000
  Zn  Zn1       1.0  0.5000013999999999  1.555000000016022e-06  0.43874978113996654  1.0000
  Zn  Zn2       1.0  1.3999999999757729e-06  0.500001555  0.4651268740881575  1.0000
  Zn  Zn3       1.0  1.3999999999757729e-06  0.500001555  0.43874978113996654  1.0000
  Zn  Zn4       1.0  0.5000013999999999  1.555000000016022e-06  0.4651268740881575  1.0000
  Zn  Zn5       1.0  1.399999999976735e-06  1.555000000016022e-06  0.45193832603143647  1.0000
  Zn  Zn6       1.0  0.5000013999999999  0.500001555  0.4783154221448787  1.0000
  Zn  Zn7       1.0  0.5000013999999999  1.555000000016022e-06  0.4915039670363485  1.0000
  Zn  Zn8       1.0  0.9999996800000001  0.5000007850000001  0.519953283527536  1.0000
  Zn  Zn9       1.0  1.3999999999757729e-06  0.500001555  0.4915039670363485  1.0000
  Zn  Zn10      1.0  0.50000062  0.999999925  0.519953283527536  1.0000
  Zn  Zn11      1.0  1.300000000981072e-07  0.999999085  0.5055241817017417  1.0000
  Zn  Zn12      1.0  0.49999714  0.499997375  0.5306937597737243  1.0000
