data_image0
_chemical_formula_structural       COPt4Zn12
_chemical_formula_sum              "C1 O1 Pt4 Zn12"
_cell_length_a       4.90575819
_cell_length_b       4.905758195212272
_cell_length_c       102.41781062
_cell_angle_alpha    90.0
_cell_angle_beta     90.0
_cell_angle_gamma    113.17317068868581

_space_group_name_H-M_alt    "P 1"
_space_group_IT_number       1

loop_
  _space_group_symop_operation_xyz
  'x, y, z'

loop_
  _atom_site_type_symbol
  _atom_site_label
  _atom_site_symmetry_multiplicity
  _atom_site_fract_x
  _atom_site_fract_y
  _atom_site_fract_z
  _atom_site_occupancy
  C   C1        1.0  0.014893835000000001  0.30985466  0.549660086299521  1.0000
  O   O1        1.0  0.9865987150000001  0.33534182  0.5608818611596521  1.0000
  Pt  Pt1       1.0  0.514583425  0.73222302  0.45230668373181787  1.0000
  Pt  Pt2       1.0  0.014583425000000014  0.23222302  0.47868377984526017  1.0000
  Pt  Pt3       1.0  0.5141420350000001  0.7321445  0.5044037571318877  1.0000
  Pt  Pt4       1.0  0.04337476500000002  0.26444019  0.5313842450969114  1.0000
  Zn  Zn1       1.0  0.514583425  0.23222302  0.439118138840348  1.0000
  Zn  Zn2       1.0  0.01458342499999997  0.73222302  0.46549523178853897  1.0000
  Zn  Zn3       1.0  0.01458342499999997  0.73222302  0.439118138840348  1.0000
  Zn  Zn4       1.0  0.514583425  0.23222302  0.46549523178853897  1.0000
  Zn  Zn5       1.0  0.014583425000000014  0.23222302  0.45230668373181787  1.0000
  Zn  Zn6       1.0  0.514583425  0.73222302  0.47868377984526017  1.0000
  Zn  Zn7       1.0  0.514583425  0.23222302  0.49187232473673  1.0000
  Zn  Zn8       1.0  0.04430792499999998  0.76245767  0.5200921795015966  1.0000
  Zn  Zn9       1.0  0.01458342499999997  0.73222302  0.49187232473673  1.0000
  Zn  Zn10      1.0  0.536493465  0.26191209  0.5201750521106199  1.0000
  Zn  Zn11      1.0  0.013401285000000004  0.23488242999999998  0.5056058467674016  1.0000
  Zn  Zn12      1.0  0.548708805  0.76777698  0.5310410052480655  1.0000
