data_image0
_chemical_formula_structural       COCa18In6
_chemical_formula_sum              "C1 O1 Ca18 In6"
_cell_length_a       10.064590026307533
_cell_length_b       8.21770334791967
_cell_length_c       103.3804688
_cell_angle_alpha    97.07055513438044
_cell_angle_beta     95.76818120248397
_cell_angle_gamma    65.9051574508839

_space_group_name_H-M_alt    "P 1"
_space_group_IT_number       1

loop_
  _space_group_symop_operation_xyz
  'x, y, z'

loop_
  _atom_site_type_symbol
  _atom_site_label
  _atom_site_symmetry_multiplicity
  _atom_site_fract_x
  _atom_site_fract_y
  _atom_site_fract_z
  _atom_site_occupancy
  C   C1        1.0  0.993992445  0.89867771  0.5509340150755769  1.0000
  O   O1        1.0  0.058662354999999985  0.7782136700000001  0.5585315729308874  1.0000
  Ca  Ca1       1.0  0.8393408950000001  0.14395667999999998  0.5042525000366571  1.0000
  Ca  Ca2       1.0  0.05474399499999998  0.58464579  0.5404049207667577  1.0000
  Ca  Ca3       1.0  0.617118665  0.6995122399999999  0.4683758882961581  1.0000
  Ca  Ca4       1.0  0.15109996499999997  0.25047035  0.5129647661146252  1.0000
  Ca  Ca5       1.0  0.700452005  0.3661789  0.4414684270691126  1.0000
  Ca  Ca6       1.0  0.922674225  0.81062335  0.47734503880961165  1.0000
  Ca  Ca7       1.0  0.8393408950000001  0.6439566800000002  0.5042525000366572  1.0000
  Ca  Ca8       1.0  0.085659245  0.07571301000000003  0.53968413128716  1.0000
  Ca  Ca9       1.0  0.617118665  0.19951223999999995  0.46837588829615817  1.0000
  Ca  Ca10      1.0  0.472291185  0.8561182299999999  0.5232966491980975  1.0000
  Ca  Ca11      1.0  0.006007555000000053  0.9772900099999999  0.4504375808114611  1.0000
  Ca  Ca12      1.0  0.22822977499999997  0.42173446  0.4863141925519602  1.0000
  Ca  Ca13      1.0  0.766820005  0.022709990000000003  0.5373338702142464  1.0000
  Ca  Ca14      1.0  0.311563115  0.08840112000000001  0.45940673455380965  1.0000
  Ca  Ca15      1.0  0.533785335  0.5328455700000001  0.4952833462943086  1.0000
  Ca  Ca16      1.0  0.45204890500000006  0.38289339999999994  0.5233356542507718  1.0000
  Ca  Ca17      1.0  0.006007555000000053  0.47729001000000004  0.45043758081146124  1.0000
  Ca  Ca18      1.0  0.22822977499999997  0.92173446  0.48631419255196007  1.0000
  In  In1       1.0  0.922674225  0.3106233500000001  0.4773450388096116  1.0000
  In  In2       1.0  0.156501595  0.74962812  0.5121352016172713  1.0000
  In  In3       1.0  0.700452005  0.8661789  0.4414684270691126  1.0000
  In  In4       1.0  0.533785335  0.03284557000000002  0.49528334629430865  1.0000
  In  In5       1.0  0.776806615  0.4512184  0.5282156771323828  1.0000
  In  In6       1.0  0.311563115  0.58840112  0.45940673455380965  1.0000
