data_image0
_chemical_formula_structural       COCaAl2Ge2CaAl2Ge2CaAl2Ge2CaAl2Ge2
_chemical_formula_sum              "C1 O1 Ca4 Al8 Ge8"
_cell_length_a       8.493778392625323
_cell_length_b       7.24815409
_cell_length_c       103.97511355
_cell_angle_alpha    90.0
_cell_angle_beta     120.00000002872132
_cell_angle_gamma    90.0

_space_group_name_H-M_alt    "P 1"
_space_group_IT_number       1

loop_
  _space_group_symop_operation_xyz
  'x, y, z'

loop_
  _atom_site_type_symbol
  _atom_site_label
  _atom_site_symmetry_multiplicity
  _atom_site_fract_x
  _atom_site_fract_y
  _atom_site_fract_z
  _atom_site_occupancy
  C   C1        1.0  0.22594337500000006  0.21948823  0.535959023219639  1.0000
  O   O1        1.0  0.301228005  0.24272989000000003  0.5486545102128342  1.0000
  Ca  Ca1       1.0  0.045533105000000046  0.13631991000000002  0.4649605732063306  1.0000
  Al  Al1       1.0  0.21219977500000003  0.50783405  0.4513454897871658  1.0000
  Al  Al2       1.0  0.37886643500000006  0.7648057699999999  0.47857565662549534  1.0000
  Ge  Ge1       1.0  0.37886643500000006  0.39569401  0.47857565662549534  1.0000
  Ge  Ge2       1.0  0.21219977500000003  0.8769458099999999  0.4513454897871658  1.0000
  Ca  Ca2       1.0  0.054828445000000045  0.15858342000000003  0.5071581834507015  1.0000
  Al  Al3       1.0  0.21898225500000004  0.5041552300000001  0.4925018926009895  1.0000
  Al  Al4       1.0  0.273557235  0.7022712400000001  0.5170355575292599  1.0000
  Ge  Ge3       1.0  0.46886881500000005  0.42424652000000007  0.5211641101368828  1.0000
  Ge  Ge4       1.0  0.21295283500000003  0.8757969599999998  0.49309389707562123  1.0000
  Ca  Ca3       1.0  0.5455331050000001  0.13631991000000002  0.4649605732063306  1.0000
  Al  Al5       1.0  0.712199775  0.50783405  0.4513454897871658  1.0000
  Al  Al6       1.0  0.8788664350000001  0.7648057699999999  0.47857565662549534  1.0000
  Ge  Ge5       1.0  0.8788664350000001  0.39569401  0.47857565662549534  1.0000
  Ge  Ge6       1.0  0.712199775  0.8769458099999999  0.4513454897871658  1.0000
  Ca  Ca4       1.0  0.541920245  0.12305419000000002  0.5052110251742989  1.0000
  Al  Al7       1.0  0.7097361550000001  0.50371119  0.49253666334284707  1.0000
  Al  Al8       1.0  0.9544668949999999  0.70371731  0.5171168297679105  1.0000
  Ge  Ge7       1.0  0.8107308449999999  0.42458162  0.5211781282256497  1.0000
  Ge  Ge8       1.0  0.722664435  0.8758824199999999  0.49309730520303  1.0000
