data_image0
_chemical_formula_structural       CONa12Ge12Au12
_chemical_formula_sum              "C1 O1 Na12 Ge12 Au12"
_cell_length_a       7.69216129
_cell_length_b       11.76810706685321
_cell_length_c       104.91247856
_cell_angle_alpha    82.23829180031254
_cell_angle_beta     90.0
_cell_angle_gamma    90.0

_space_group_name_H-M_alt    "P 1"
_space_group_IT_number       1

loop_
  _space_group_symop_operation_xyz
  'x, y, z'

loop_
  _atom_site_type_symbol
  _atom_site_label
  _atom_site_symmetry_multiplicity
  _atom_site_fract_x
  _atom_site_fract_y
  _atom_site_fract_z
  _atom_site_occupancy
  C   C1        1.0  0.07525001999999999  0.7302439949999998  0.5408231990568372  1.0000
  O   O1        1.0  0.001714119999999988  0.681698355  0.5498750843887292  1.0000
  Na  Na1       1.0  0.78778651  0.528027045  0.4819886765001709  1.0000
  Na  Na2       1.0  0.78582728  0.20711731499999997  0.5097365693841227  1.0000
  Na  Na3       1.0  0.78778651  0.8613603749999998  0.4542572427754467  1.0000
  Na  Na4       1.0  0.41398735999999997  0.36136037499999996  0.4958543900347612  1.0000
  Na  Na5       1.0  0.4059139  0.041372094999999984  0.5251735502648839  1.0000
  Na  Na6       1.0  0.41398735999999997  0.694693715  0.46812295963780876  1.0000
  Na  Na7       1.0  0.28778651  0.19469371499999996  0.46812295963780876  1.0000
  Na  Na8       1.0  0.28778651  0.8613603749999998  0.4958543900347613  1.0000
  Na  Na9       1.0  0.28249356999999997  0.5526261149999999  0.5240941475545379  1.0000
  Na  Na10      1.0  0.91398736  0.36136037499999996  0.4542572427754467  1.0000
  Na  Na11      1.0  0.91398736  0.028027044999999983  0.4819886765001709  1.0000
  Na  Na12      1.0  0.90260977  0.703043145  0.5111378375088742  1.0000
  Ge  Ge1       1.0  0.18336451999999998  0.469529125  0.47225529012975653  1.0000
  Ge  Ge2       1.0  0.18258388  0.14400861499999998  0.5007422545040375  1.0000
  Ge  Ge3       1.0  0.1882131  0.822981545  0.5265893507690019  1.0000
  Ge  Ge4       1.0  0.16710858  0.26370580499999996  0.5197150328351018  1.0000
  Ge  Ge5       1.0  0.18336451999999998  0.9198582949999998  0.4639906291458611  1.0000
  Ge  Ge6       1.0  0.18336451999999998  0.586524965  0.49172206287058534  1.0000
  Ge  Ge7       1.0  0.68336452  0.13619579499999998  0.45838957326739443  1.0000
  Ge  Ge8       1.0  0.68336452  0.8028624549999999  0.4861210036643468  1.0000
  Ge  Ge9       1.0  0.68848036  0.4839483049999999  0.5151974528596408  1.0000
  Ge  Ge10      1.0  0.68336452  0.25319163499999997  0.47785634600822313  1.0000
  Ge  Ge11      1.0  0.68978948  0.926890585  0.505495400788314  1.0000
  Ge  Ge12      1.0  0.68336452  0.586524965  0.45012491561127077  1.0000
  Au  Au1       1.0  0.47745578  0.325709755  0.5233252891789991  1.0000
  Au  Au2       1.0  0.50731211  0.9605030649999998  0.47075345674179087  1.0000
  Au  Au3       1.0  0.50731211  0.627169725  0.49848488713874334  1.0000
  Au  Au4       1.0  0.50731211  0.42888436500000005  0.4654924625338267  1.0000
  Au  Au5       1.0  0.50731211  0.09555102499999998  0.49322389625855095  1.0000
  Au  Au6       1.0  0.49751076  0.785167725  0.519570281418183  1.0000
  Au  Au7       1.0  0.007312109999999987  0.293836395  0.48461917027638124  1.0000
  Au  Au8       1.0  0.0009054699999999877  0.971972955  0.5121116134151277  1.0000
  Au  Au9       1.0  0.007312109999999987  0.627169725  0.45688773987942877  1.0000
  Au  Au10      1.0  0.007312109999999987  0.09555102499999998  0.4516267489992363  1.0000
  Au  Au11      1.0  0.007312109999999987  0.7622176949999999  0.4793581793961889  1.0000
  Au  Au12      1.0  0.99909453  0.43867859499999995  0.5076847551539533  1.0000
