data_image0
_chemical_formula_structural       COIn28Cu40
_chemical_formula_sum              "C1 O1 In28 Cu40"
_cell_length_a       6.87557415153627
_cell_length_b       12.14588172
_cell_length_c       112.48122623
_cell_angle_alpha    90.0
_cell_angle_beta     88.96100573835196
_cell_angle_gamma    90.0

_space_group_name_H-M_alt    "P 1"
_space_group_IT_number       1

loop_
  _space_group_symop_operation_xyz
  'x, y, z'

loop_
  _atom_site_type_symbol
  _atom_site_label
  _atom_site_symmetry_multiplicity
  _atom_site_fract_x
  _atom_site_fract_y
  _atom_site_fract_z
  _atom_site_occupancy
  C   C1        1.0  0.26962454  0.507501655  0.560332219889775  1.0000
  O   O1        1.0  0.29749313  0.511840715  0.5706912680328694  1.0000
  In  In1       1.0  0.04124322000000001  0.30964488500000004  0.5483732316970391  1.0000
  In  In2       1.0  0.28235582000000004  0.559753145  0.44234321842013213  1.0000
  In  In3       1.0  0.36797569  0.833657875  0.4466070890551774  1.0000
  In  In4       1.0  0.95335602  0.7839958549999999  0.45756049020795525  1.0000
  In  In5       1.0  0.4846393400000001  0.5582120349999999  0.5307146001214552  1.0000
  In  In6       1.0  0.76468039  0.833657875  0.4293087319671307  1.0000
  In  In7       1.0  0.06263243  0.557601335  0.5225545621850121  1.0000
  In  In8       1.0  0.76468039  0.285848415  0.4293087319671307  1.0000
  In  In9       1.0  0.95335602  0.33551043500000005  0.45756049020795525  1.0000
  In  In10      1.0  0.06348778000000002  0.559753145  0.47994486496875993  1.0000
  In  In11      1.0  0.36797569  0.285848415  0.4466070890551774  1.0000
  In  In12      1.0  0.85030026  0.559753145  0.433572602602176  1.0000
  In  In13      1.0  0.63308053  0.559753145  0.47107725493331476  1.0000
  In  In14      1.0  0.08261618000000001  0.786219875  0.5483152587495094  1.0000
  In  In15      1.0  0.17930006  0.8355104350000001  0.48130098628572243  1.0000
  In  In16      1.0  0.28235582000000004  0.05975314500000003  0.5052888701147624  1.0000
  In  In17      1.0  0.36797569  0.333657875  0.5095527407498077  1.0000
  In  In18      1.0  0.95335602  0.283995855  0.5205061456793247  1.0000
  In  In19      1.0  0.49957555000000003  0.05975314500000003  0.4677842215603629  1.0000
  In  In20      1.0  0.76468039  0.333657875  0.4922543874385003  1.0000
  In  In21      1.0  0.0691683  0.05975314500000003  0.4589166115249177  1.0000
  In  In22      1.0  0.76468039  0.785848415  0.4922543874385003  1.0000
  In  In23      1.0  0.95335602  0.8355104350000001  0.5205061456793247  1.0000
  In  In24      1.0  0.061777590000000014  0.05030548500000003  0.5448133679191415  1.0000
  In  In25      1.0  0.36797569  0.785848415  0.5095527407498077  1.0000
  In  In26      1.0  0.85030026  0.05975314500000003  0.4965182580735456  1.0000
  In  In27      1.0  0.63704908  0.06072364500000003  0.5354927568940254  1.0000
  In  In28      1.0  0.17930006  0.283995855  0.48130098628572243  1.0000
  Cu  Cu1       1.0  0.71915153  0.17092473500000002  0.45143243618471085  1.0000
  Cu  Cu2       1.0  0.62725379  0.6730071049999999  0.4498320769170124  1.0000
  Cu  Cu3       1.0  0.06632804  0.17099471500000002  0.43795791051115407  1.0000
  Cu  Cu4       1.0  0.29184205  0.672603775  0.4637260359217616  1.0000
  Cu  Cu5       1.0  0.39158607  0.9172068550000001  0.5469236965113992  1.0000
  Cu  Cu6       1.0  0.62725379  0.4464991850000001  0.4498320769170124  1.0000
  Cu  Cu7       1.0  0.81124143  0.6659332649999999  0.5383288727987013  1.0000
  Cu  Cu8       1.0  0.06632804  0.9485115749999999  0.43795791051115407  1.0000
  Cu  Cu9       1.0  0.4212915000000001  0.410082435  0.5482746285886284  1.0000
  Cu  Cu10      1.0  0.37919522  0.20037986500000005  0.5469228467450673  1.0000
  Cu  Cu11      1.0  0.80708187  0.452139555  0.5386580496152317  1.0000
  Cu  Cu12      1.0  0.73300074  0.559753145  0.4947640797695612  1.0000
  Cu  Cu13      1.0  0.5759066  0.304747335  0.5312492995346414  1.0000
  Cu  Cu14      1.0  0.9587567800000001  0.559753145  0.45668327075845877  1.0000
  Cu  Cu15      1.0  0.29184205  0.44690251499999994  0.4637260359217616  1.0000
  Cu  Cu16      1.0  0.71915153  0.9485815550000001  0.45143243618471085  1.0000
  Cu  Cu17      1.0  0.45725657000000003  0.7102067550000001  0.5477601687210977  1.0000
  Cu  Cu18      1.0  0.39965534  0.559753145  0.5070430484187468  1.0000
  Cu  Cu19      1.0  0.5821333500000001  0.816460065  0.530681187309286  1.0000
  Cu  Cu20      1.0  0.12715526000000002  0.558731265  0.5466167155914573  1.0000
  Cu  Cu21      1.0  0.71915153  0.6709247349999999  0.5143780916560804  1.0000
  Cu  Cu22      1.0  0.62725379  0.17300710500000005  0.512777732388382  1.0000
  Cu  Cu23      1.0  0.06632804  0.6709947150000001  0.5009035659825236  1.0000
  Cu  Cu24      1.0  0.2866478  0.168640955  0.5258606819594747  1.0000
  Cu  Cu25      1.0  0.41350455  0.448581555  0.4874290403089668  1.0000
  Cu  Cu26      1.0  0.62725379  0.9464991850000001  0.512777732388382  1.0000
  Cu  Cu27      1.0  0.84081403  0.17260377500000001  0.47513544057191615  1.0000
  Cu  Cu28      1.0  0.06632804  0.448511575  0.5009035659825236  1.0000
  Cu  Cu29      1.0  0.50540229  0.9464991850000001  0.4890293995766653  1.0000
  Cu  Cu30      1.0  0.41350455  0.6709247349999999  0.4874290403089668  1.0000
  Cu  Cu31      1.0  0.84081403  0.9469025150000001  0.47513544057191615  1.0000
  Cu  Cu32      1.0  0.73300074  0.05975314500000003  0.4318184242981916  1.0000
  Cu  Cu33      1.0  0.56632804  0.8097531450000001  0.4694307363584692  1.0000
  Cu  Cu34      1.0  0.9587567800000001  0.05975314500000003  0.5196289262298284  1.0000
  Cu  Cu35      1.0  0.28875300000000004  0.949694515  0.5258478863668864  1.0000
  Cu  Cu36      1.0  0.71915153  0.448581555  0.5143780916560804  1.0000
  Cu  Cu37      1.0  0.50540229  0.17300710500000005  0.4890293995766653  1.0000
  Cu  Cu38      1.0  0.39965534  0.05975314500000003  0.44409739672411647  1.0000
  Cu  Cu39      1.0  0.56632804  0.309753145  0.4694307363584692  1.0000
  Cu  Cu40      1.0  0.17389929999999998  0.05975314500000003  0.48217820573521886  1.0000
