data_image0
_chemical_formula_structural       COAg8Ca16Si24
_chemical_formula_sum              "C1 O1 Ag8 Ca16 Si24"
_cell_length_a       14.55255906
_cell_length_b       6.068132674245504
_cell_length_c       106.40879607
_cell_angle_alpha    87.7688564671623
_cell_angle_beta     90.0
_cell_angle_gamma    90.0

_space_group_name_H-M_alt    "P 1"
_space_group_IT_number       1

loop_
  _space_group_symop_operation_xyz
  'x, y, z'

loop_
  _atom_site_type_symbol
  _atom_site_label
  _atom_site_symmetry_multiplicity
  _atom_site_fract_x
  _atom_site_fract_y
  _atom_site_fract_z
  _atom_site_occupancy
  C   C1        1.0  0.040372990000000004  0.5802800450000001  0.5496977494561958  1.0000
  O   O1        1.0  0.04036704999999999  0.511109455  0.5600714516945979  1.0000
  Ag  Ag1       1.0  0.8738666600000001  0.512639135  0.4545494713952053  1.0000
  Ag  Ag2       1.0  0.8738666600000001  0.512639135  0.5115760803205063  1.0000
  Ag  Ag3       1.0  0.70710534  0.012639135000000006  0.48306277414705756  1.0000
  Ag  Ag4       1.0  0.7222982099999999  0.054147955000000005  0.5391414126631698  1.0000
  Ag  Ag5       1.0  0.35865803999999996  0.054613235  0.5392425345251581  1.0000
  Ag  Ag6       1.0  0.37386665999999996  0.012639135000000006  0.48306277414705756  1.0000
  Ag  Ag7       1.0  0.20710533999999997  0.512639135  0.4545494713952053  1.0000
  Ag  Ag8       1.0  0.20710533999999997  0.512639135  0.5115760803205063  1.0000
  Ca  Ca1       1.0  0.8123427  0.5224169949999999  0.5394948156758693  1.0000
  Ca  Ca2       1.0  0.790486  0.512639135  0.48306277414705756  1.0000
  Ca  Ca3       1.0  0.5404859999999999  0.759763605  0.4686421410496481  1.0000
  Ca  Ca4       1.0  0.5404097499999999  0.802542925  0.5244691314103958  1.0000
  Ca  Ca5       1.0  0.790486  0.012639135000000006  0.4545494713952053  1.0000
  Ca  Ca6       1.0  0.790486  0.012639135000000006  0.5115760803205063  1.0000
  Ca  Ca7       1.0  0.040508759999999984  0.7513145250000001  0.5271431706381599  1.0000
  Ca  Ca8       1.0  0.040485999999999994  0.7655146649999999  0.4689701044926148  1.0000
  Ca  Ca9       1.0  0.29048599999999997  0.012639135000000006  0.4545494713952053  1.0000
  Ca  Ca10      1.0  0.29048599999999997  0.012639135000000006  0.5115760803205063  1.0000
  Ca  Ca11      1.0  0.040485999999999994  0.259763605  0.44012883829779587  1.0000
  Ca  Ca12      1.0  0.040485999999999994  0.259763605  0.49715544380150034  1.0000
  Ca  Ca13      1.0  0.26861176999999997  0.522745945  0.5395100315153585  1.0000
  Ca  Ca14      1.0  0.29048599999999997  0.512639135  0.48306277414705756  1.0000
  Ca  Ca15      1.0  0.5404859999999999  0.265514665  0.44045680174076257  1.0000
  Ca  Ca16      1.0  0.5404859999999999  0.265514665  0.497483407244467  1.0000
  Si  Si1       1.0  0.95963295  0.256251405  0.46917039448500863  1.0000
  Si  Si2       1.0  0.9590944699999999  0.23954432500000003  0.5262775375263553  1.0000
  Si  Si3       1.0  0.6213390500000001  0.7562514049999999  0.44065708831155986  1.0000
  Si  Si4       1.0  0.6213390500000001  0.7562514049999999  0.4976836972368608  1.0000
  Si  Si5       1.0  0.6213390500000001  0.26902686499999995  0.4684418510572542  1.0000
  Si  Si6       1.0  0.6201179800000001  0.31801655500000003  0.527704363782709  1.0000
  Si  Si7       1.0  0.95963295  0.769026865  0.439928548305402  1.0000
  Si  Si8       1.0  0.95963295  0.769026865  0.49695515723070294  1.0000
  Si  Si9       1.0  0.8789035000000001  0.012639135000000006  0.48306277414705756  1.0000
  Si  Si10      1.0  0.8892849300000001  0.987360865  0.5408208690730745  1.0000
  Si  Si11      1.0  0.7020685  0.512639135  0.4545494713952053  1.0000
  Si  Si12      1.0  0.7020685  0.512639135  0.5115760803205063  1.0000
  Si  Si13      1.0  0.45963295  0.7562514049999999  0.44065708831155986  1.0000
  Si  Si14      1.0  0.45963295  0.7562514049999999  0.4976836972368608  1.0000
  Si  Si15      1.0  0.12200844999999999  0.23978070499999998  0.526301211552311  1.0000
  Si  Si16      1.0  0.12133905  0.256251405  0.46917039448500863  1.0000
  Si  Si17      1.0  0.12133905  0.769026865  0.439928548305402  1.0000
  Si  Si18      1.0  0.12133905  0.769026865  0.49695515723070294  1.0000
  Si  Si19      1.0  0.46065642999999995  0.317738515  0.5277295364679174  1.0000
  Si  Si20      1.0  0.45963295  0.26902686499999995  0.4684418510572542  1.0000
  Si  Si21      1.0  0.37890349999999995  0.512639135  0.4545494713952053  1.0000
  Si  Si22      1.0  0.37890349999999995  0.512639135  0.5115760803205063  1.0000
  Si  Si23      1.0  0.19170498  0.9872911349999999  0.5408523956629221  1.0000
  Si  Si24      1.0  0.2020685  0.012639135000000006  0.48306277414705756  1.0000
