data_image0
_chemical_formula_structural       COSb8Pt8Sb8Pt8
_chemical_formula_sum              "C1 O1 Sb16 Pt16"
_cell_length_a       7.3304288
_cell_length_b       12.013016962692483
_cell_length_c       99.62557530000001
_cell_angle_alpha    100.14568282207067
_cell_angle_beta     90.0
_cell_angle_gamma    72.23560477633471

_space_group_name_H-M_alt    "P 1"
_space_group_IT_number       1

loop_
  _space_group_symop_operation_xyz
  'x, y, z'

loop_
  _atom_site_type_symbol
  _atom_site_label
  _atom_site_symmetry_multiplicity
  _atom_site_fract_x
  _atom_site_fract_y
  _atom_site_fract_z
  _atom_site_occupancy
  C   C1        1.0  0.8731156750000001  0.31004205500000004  0.5432431684437496  1.0000
  O   O1        1.0  0.8372815149999999  0.34117817500000003  0.5549825065884016  1.0000
  Sb  Sb1       1.0  0.45054089500000005  0.875554765  0.47422339596392243  1.0000
  Sb  Sb2       1.0  0.7005408949999999  0.37555476500000007  0.46360306695207043  1.0000
  Sb  Sb3       1.0  0.200540895  0.37555476500000007  0.4848437220020827  1.0000
  Sb  Sb4       1.0  0.950540895  0.875554765  0.45298274091391016  1.0000
  Sb  Sb5       1.0  0.9088742349999998  0.625554765  0.4689132329448424  1.0000
  Sb  Sb6       1.0  0.15887423499999992  0.12555476500000004  0.4582929039329903  1.0000
  Sb  Sb7       1.0  0.6588742349999999  0.12555476500000004  0.47953355898300254  1.0000
  Sb  Sb8       1.0  0.408874235  0.625554765  0.4476725749211383  1.0000
  Pt  Pt1       1.0  0.679707565  0.750554765  0.45032765940437014  1.0000
  Pt  Pt2       1.0  0.9297075650000001  0.250554765  0.4821886404925427  1.0000
  Pt  Pt3       1.0  0.429707565  0.250554765  0.4609479854425304  1.0000
  Pt  Pt4       1.0  0.17970756499999996  0.750554765  0.4715683144543824  1.0000
  Pt  Pt5       1.0  0.8047075650000001  0.5005547650000001  0.44501749341159824  1.0000
  Pt  Pt6       1.0  0.054707564999999916  0.0005547650000000316  0.4768784774734625  1.0000
  Pt  Pt7       1.0  0.554707565  0.0005547650000000316  0.4556378224234502  1.0000
  Pt  Pt8       1.0  0.30470756499999996  0.5005547650000001  0.46625814846161046  1.0000
  Sb  Sb9       1.0  0.42859500500000003  0.875439415  0.5165268495593941  1.0000
  Sb  Sb10      1.0  0.7050339849999999  0.38320269500000004  0.5068038558276102  1.0000
  Sb  Sb11      1.0  0.2331801249999999  0.365908455  0.525994361536753  1.0000
  Sb  Sb12      1.0  0.9372745149999999  0.876587005  0.49478547536866735  1.0000
  Sb  Sb13      1.0  0.9077933549999997  0.6275991249999999  0.5119100295388936  1.0000
  Sb  Sb14      1.0  0.16109191499999992  0.13442290500000004  0.5010518051857236  1.0000
  Sb  Sb15      1.0  0.663821455  0.12891216500000002  0.52215434414795  1.0000
  Sb  Sb16      1.0  0.408874235  0.625554765  0.4901538879948546  1.0000
  Pt  Pt9       1.0  0.679707565  0.750554765  0.4928089695043946  1.0000
  Pt  Pt10      1.0  0.9530932150000001  0.25508762500000004  0.5243652601867905  1.0000
  Pt  Pt11      1.0  0.45383525499999994  0.250514395  0.5026257356323426  1.0000
  Pt  Pt12      1.0  0.16756326499999996  0.750289985  0.5114471744154417  1.0000
  Pt  Pt13      1.0  0.8047075650000001  0.5005547650000001  0.4874988064853145  1.0000
  Pt  Pt14      1.0  0.046906785000000076  0.9994452349999998  0.5160414449312769  1.0000
  Pt  Pt15      1.0  0.548222935  0.0013806750000000317  0.49904043575918067  1.0000
  Pt  Pt16      1.0  0.290483155  0.502493965  0.5079270311025751  1.0000
