data_image0
_chemical_formula_structural       COAu8Ca4In4
_chemical_formula_sum              "C1 O1 Au8 Ca4 In4"
_cell_length_a       5.06440434
_cell_length_b       7.1621493
_cell_length_c       100.38642603
_cell_angle_alpha    90.0
_cell_angle_beta     90.0
_cell_angle_gamma    90.0

_space_group_name_H-M_alt    "P 1"
_space_group_IT_number       1

loop_
  _space_group_symop_operation_xyz
  'x, y, z'

loop_
  _atom_site_type_symbol
  _atom_site_label
  _atom_site_symmetry_multiplicity
  _atom_site_fract_x
  _atom_site_fract_y
  _atom_site_fract_z
  _atom_site_occupancy
  C   C1        1.0  0.6134380150000002  0.272476635  0.5460139833394876  1.0000
  O   O1        1.0  0.543637345  0.344025915  0.5557124232954967  1.0000
  Au  Au1       1.0  0.752427735  0.8685084350000002  0.44428757670450314  1.0000
  Au  Au2       1.0  0.755379405  0.8814915650000001  0.49621282024310576  1.0000
  Au  Au3       1.0  0.25242773500000004  0.8685084350000002  0.4695121231697976  1.0000
  Au  Au4       1.0  0.24777376500000006  0.8586065050000002  0.5190853088240708  1.0000
  Au  Au5       1.0  0.25242773500000004  0.3685084350000001  0.4695121231697976  1.0000
  Au  Au6       1.0  0.24462059500000002  0.388392665  0.5190227358026241  1.0000
  Au  Au7       1.0  0.752427735  0.3685084350000001  0.44428757670450314  1.0000
  Au  Au8       1.0  0.7545470950000001  0.366780265  0.4957338847871573  1.0000
  Ca  Ca1       1.0  0.255408165  0.6227694250000001  0.4941770872649408  1.0000
  Ca  Ca2       1.0  0.25242773500000004  0.6185084350000001  0.44428757670450314  1.0000
  Ca  Ca3       1.0  0.7451410350000001  0.128408935  0.5218346926814141  1.0000
  Ca  Ca4       1.0  0.752427735  0.11850843500000001  0.4695121231697976  1.0000
  In  In1       1.0  0.25525231500000006  0.122970195  0.49484487083597395  1.0000
  In  In2       1.0  0.25242773500000004  0.11850843500000001  0.44428757670450314  1.0000
  In  In3       1.0  0.7494992450000001  0.6252085450000001  0.519925177284919  1.0000
  In  In4       1.0  0.752427735  0.6185084350000001  0.4695121231697976  1.0000
