data_image0
_chemical_formula_structural       COV6As2V6As2
_chemical_formula_sum              "C1 O1 V12 As4"
_cell_length_a       4.74658532
_cell_length_b       4.74658532
_cell_length_c       103.22609724
_cell_angle_alpha    90.0
_cell_angle_beta     90.0
_cell_angle_gamma    90.0

_space_group_name_H-M_alt    "P 1"
_space_group_IT_number       1

loop_
  _space_group_symop_operation_xyz
  'x, y, z'

loop_
  _atom_site_type_symbol
  _atom_site_label
  _atom_site_symmetry_multiplicity
  _atom_site_fract_x
  _atom_site_fract_y
  _atom_site_fract_z
  _atom_site_occupancy
  C   C1        1.0  0.630992565  0.589055455  0.5432556088392116  1.0000
  O   O1        1.0  0.636099655  0.513756075  0.5541502506531895  1.0000
  V   V1        1.0  0.374112225  0.0014816549999999709  0.4573453514461291  1.0000
  V   V2        1.0  0.874112225  0.0014816549999999709  0.4573453514461291  1.0000
  V   V3        1.0  0.12411222500000002  0.5014816549999999  0.4458497493468107  1.0000
  V   V4        1.0  0.12411222500000002  0.5014816549999999  0.4688409567642166  1.0000
  V   V5        1.0  0.624112225  0.25148165499999997  0.4803365620823041  1.0000
  V   V6        1.0  0.624112225  0.7514816549999999  0.4803365620823041  1.0000
  As  As1       1.0  0.624112225  0.5014816549999999  0.4573453514461291  1.0000
  As  As2       1.0  0.12411222500000002  0.0014816549999999709  0.4803365620823041  1.0000
  V   V7        1.0  0.37276426500000004  0.00011322499999997088  0.5031629170213403  1.0000
  V   V8        1.0  0.8758877749999999  0.9998867749999999  0.5031521534574606  1.0000
  V   V9        1.0  0.12411222500000002  0.5014816549999999  0.49183216418162246  1.0000
  V   V10       1.0  0.12442909500000002  0.48850932499999994  0.5161369319572714  1.0000
  V   V11       1.0  0.624164775  0.252818275  0.5255383771281473  1.0000
  V   V12       1.0  0.6246434150000001  0.7332872549999999  0.5252506127328177  1.0000
  As  As3       1.0  0.624353025  0.4990012549999999  0.5028902261217192  1.0000
  As  As4       1.0  0.12467602500000001  0.9880908349999998  0.5260440843794284  1.0000
