data_image0
_chemical_formula_structural       COV6As2V6As2
_chemical_formula_sum              "C1 O1 V12 As4"
_cell_length_a       4.74658532
_cell_length_b       4.74658532
_cell_length_c       103.22609724
_cell_angle_alpha    90.0
_cell_angle_beta     90.0
_cell_angle_gamma    90.0

_space_group_name_H-M_alt    "P 1"
_space_group_IT_number       1

loop_
  _space_group_symop_operation_xyz
  'x, y, z'

loop_
  _atom_site_type_symbol
  _atom_site_label
  _atom_site_symmetry_multiplicity
  _atom_site_fract_x
  _atom_site_fract_y
  _atom_site_fract_z
  _atom_site_occupancy
  C   C1        1.0  0.6242499349999999  0.589668325  0.5432800135465492  1.0000
  O   O1        1.0  0.6242475049999999  0.510535245  0.5541229039908919  1.0000
  V   V1        1.0  0.374251715  0.008346034999999974  0.45737269810842657  1.0000
  V   V2        1.0  0.8742517149999999  0.008346034999999974  0.45737269810842657  1.0000
  V   V3        1.0  0.12425171499999996  0.508346035  0.4458770960091082  1.0000
  V   V4        1.0  0.12425171499999996  0.508346035  0.4688683034265141  1.0000
  V   V5        1.0  0.6242517149999999  0.258346035  0.4803639087446015  1.0000
  V   V6        1.0  0.6242517149999999  0.7583460349999999  0.4803639087446015  1.0000
  As  As1       1.0  0.6242517149999999  0.508346035  0.45737269810842657  1.0000
  As  As2       1.0  0.12425171499999996  0.008346034999999974  0.4803639087446015  1.0000
  V   V7        1.0  0.3727539349999999  0.006055974999999974  0.5031862885037958  1.0000
  V   V8        1.0  0.875748685  0.006056104999999974  0.5031862885037958  1.0000
  V   V9        1.0  0.12425171499999996  0.508346035  0.4918595108439199  1.0000
  V   V10       1.0  0.12425131499999995  0.494619835  0.5161768929756827  1.0000
  V   V11       1.0  0.6242521249999999  0.257552725  0.5255659651981275  1.0000
  V   V12       1.0  0.624252175  0.737685525  0.5253073177881018  1.0000
  As  As3       1.0  0.6242513949999998  0.505241285  0.5029203731131361  1.0000
  As  As4       1.0  0.12425188499999996  0.993944025  0.526077231263649  1.0000
