data_image0
_chemical_formula_structural       COMo12As12
_chemical_formula_sum              "C1 O1 Mo12 As12"
_cell_length_a       7.298878421655056
_cell_length_b       6.944207954571312
_cell_length_c       107.94388007
_cell_angle_alpha    112.49025129871329
_cell_angle_beta     115.90621873749511
_cell_angle_gamma    76.87189062209902

_space_group_name_H-M_alt    "P 1"
_space_group_IT_number       1

loop_
  _space_group_symop_operation_xyz
  'x, y, z'

loop_
  _atom_site_type_symbol
  _atom_site_label
  _atom_site_symmetry_multiplicity
  _atom_site_fract_x
  _atom_site_fract_y
  _atom_site_fract_z
  _atom_site_occupancy
  C   C1        1.0  0.23567888000000004  0.9463481300000001  0.5405581928759556  1.0000
  O   O1        1.0  0.30515257000000007  0.9777449699999999  0.553138098438566  1.0000
  Mo  Mo1       1.0  0.53487079  0.9512214099999999  0.4792260593682226  1.0000
  Mo  Mo2       1.0  0.85809192  0.27083444999999995  0.508160092792336  1.0000
  Mo  Mo3       1.0  0.20153746000000003  0.6178880799999998  0.4499331538574773  1.0000
  Mo  Mo4       1.0  0.79846254  0.55591176  0.4468619015614341  1.0000
  Mo  Mo5       1.0  0.13179588000000006  0.8892450999999999  0.47615480707217933  1.0000
  Mo  Mo6       1.0  0.45787365  0.21990721999999988  0.5049636484717133  1.0000
  Mo  Mo7       1.0  0.78945336  0.5739301199999999  0.49000954462047547  1.0000
  Mo  Mo8       1.0  0.11527735000000003  0.8899037999999999  0.5186837241845575  1.0000
  Mo  Mo9       1.0  0.45612003  0.24059678999999987  0.4607166391097302  1.0000
  Mo  Mo10      1.0  0.52900886  0.9396813799999999  0.5217645587762348  1.0000
  Mo  Mo11      1.0  0.8772133  0.26653637999999985  0.46537132181992646  1.0000
  Mo  Mo12      1.0  0.21054664000000006  0.5998697199999999  0.4946642273306716  1.0000
  As  As1       1.0  0.73285907  0.9393996  0.46286598739009555  1.0000
  As  As2       1.0  0.06619240000000003  0.2727329299999999  0.49215889641598964  1.0000
  As  As3       1.0  0.42571522  0.6154789999999999  0.5212267128883544  1.0000
  As  As4       1.0  0.60047426  0.5677335699999999  0.4632219700244123  1.0000
  As  As5       1.0  0.9338076  0.9010669100000002  0.4925148790503064  1.0000
  As  As6       1.0  0.26433848000000004  0.23518136999999983  0.5234342228207959  1.0000
  As  As7       1.0  0.14190198000000004  0.4848781499999998  0.4668625850324937  1.0000
  As  As8       1.0  0.4752353100000001  0.81821148  0.49615549054323904  1.0000
  As  As9       1.0  0.80732931  0.16537749999999984  0.5260942167676126  1.0000
  As  As10      1.0  0.19143136000000005  0.02225502999999987  0.4592253758971629  1.0000
  As  As11      1.0  0.52476469  0.3555883599999999  0.48851828140790826  1.0000
  As  As12      1.0  0.85770977  0.6829289799999999  0.5187385394149744  1.0000
