data_image0
_chemical_formula_structural       COCo4As8Co4As8Co4As8
_chemical_formula_sum              "C1 O1 Co12 As24"
_cell_length_a       10.776535181290354
_cell_length_b       5.94214765
_cell_length_c       101.37054499999999
_cell_angle_alpha    90.0
_cell_angle_beta     73.0761487151238
_cell_angle_gamma    90.0

_space_group_name_H-M_alt    "P 1"
_space_group_IT_number       1

loop_
  _space_group_symop_operation_xyz
  'x, y, z'

loop_
  _atom_site_type_symbol
  _atom_site_label
  _atom_site_symmetry_multiplicity
  _atom_site_fract_x
  _atom_site_fract_y
  _atom_site_fract_z
  _atom_site_occupancy
  C   C1        1.0  0.445414155  0.054690090000000045  0.5420253678368869  1.0000
  O   O1        1.0  0.38447547500000007  0.09003782000000005  0.5534203313321705  1.0000
  Co  Co1       1.0  0.27137753500000006  0.47681872000000003  0.518871959781581  1.0000
  Co  Co2       1.0  0.7953121550000001  0.5096654100000001  0.5278813975595997  1.0000
  Co  Co3       1.0  0.540482015  0.9952293099999998  0.5251223579513064  1.0000
  Co  Co4       1.0  0.04670838500000002  0.007944350000000043  0.5071281807255031  1.0000
  As  As1       1.0  0.19045722500000006  0.8747611200000002  0.5202120321962406  1.0000
  As  As2       1.0  0.714108605  0.8485063800000001  0.533925497672889  1.0000
  As  As3       1.0  0.385289515  0.12406208000000005  0.5136855023001045  1.0000
  As  As4       1.0  0.900170735  0.17296754000000003  0.5282039458071464  1.0000
  As  As5       1.0  0.44390299499999997  0.62843299  0.5252714020536429  1.0000
  As  As6       1.0  0.956758315  0.6473342000000001  0.5106538959918919  1.0000
  As  As7       1.0  0.11798206500000005  0.23349904000000005  0.535035452578937  1.0000
  As  As8       1.0  0.629844965  0.36723504  0.5213646931488032  1.0000
  Co  Co5       1.0  0.29324168500000003  0.5047706900000001  0.48526268181528764  1.0000
  Co  Co6       1.0  0.793241685  0.5047706900000001  0.500735887074271  1.0000
  Co  Co7       1.0  0.543241685  0.0047706900000000435  0.49299928444477925  1.0000
  Co  Co8       1.0  0.043241685000000016  0.0047706900000000435  0.477526079185796  1.0000
  As  As9       1.0  0.19891528500000005  0.8685628  0.4881817453123695  1.0000
  As  As10      1.0  0.698915285  0.8685628  0.5036549505713528  1.0000
  As  As11      1.0  0.387568085  0.14097858000000002  0.4823436183182057  1.0000
  As  As12      1.0  0.8875680850000001  0.14097858000000002  0.497816823577189  1.0000
  As  As13      1.0  0.448915285  0.64097858  0.4959183479418612  1.0000
  As  As14      1.0  0.9489152850000001  0.64097858  0.48044514268287797  1.0000
  As  As15      1.0  0.14043412500000005  0.36916504  0.5051700280321325  1.0000
  As  As16      1.0  0.6375680850000001  0.3685628000000001  0.4900802209476974  1.0000
  Co  Co9       1.0  0.29324168500000003  0.5047706900000001  0.4543162712973211  1.0000
  Co  Co10      1.0  0.793241685  0.5047706900000001  0.4697894765563043  1.0000
  Co  Co11      1.0  0.543241685  0.0047706900000000435  0.4620528739268127  1.0000
  Co  Co12      1.0  0.043241685000000016  0.0047706900000000435  0.44657966866782944  1.0000
  As  As17      1.0  0.19891528500000005  0.8685628  0.45723533479440304  1.0000
  As  As18      1.0  0.698915285  0.8685628  0.47270854005338625  1.0000
  As  As19      1.0  0.387568085  0.14097858000000002  0.4513972078002392  1.0000
  As  As20      1.0  0.8875680850000001  0.14097858000000002  0.46687041305922244  1.0000
  As  As21      1.0  0.448915285  0.64097858  0.4649719374238946  1.0000
  As  As22      1.0  0.9489152850000001  0.64097858  0.4494987321649114  1.0000
  As  As23      1.0  0.13756808500000006  0.3685628000000001  0.47460701568871416  1.0000
  As  As24      1.0  0.6375680850000001  0.3685628000000001  0.4591338104297308  1.0000
