data_image0
_chemical_formula_structural       COCa7Ni4Sn13Ca7Ni4Sn13
_chemical_formula_sum              "C1 O1 Ca14 Ni8 Sn26"
_cell_length_a       11.43516615
_cell_length_b       11.43516615
_cell_length_c       102.69406504
_cell_angle_alpha    90.0
_cell_angle_beta     90.0
_cell_angle_gamma    90.0

_space_group_name_H-M_alt    "P 1"
_space_group_IT_number       1

loop_
  _space_group_symop_operation_xyz
  'x, y, z'

loop_
  _atom_site_type_symbol
  _atom_site_label
  _atom_site_symmetry_multiplicity
  _atom_site_fract_x
  _atom_site_fract_y
  _atom_site_fract_z
  _atom_site_occupancy
  C   C1        1.0  0.00012781500000001971  0.9997986799999999  0.5365728128540479  1.0000
  O   O1        1.0  0.999965755  0.00031135000000003475  0.5481267895561412  1.0000
  Ca  Ca1       1.0  0.500034245  0.5002116600000001  0.4518732104438586  1.0000
  Ca  Ca2       1.0  0.500034245  0.00021166000000003477  0.47461347921523533  1.0000
  Ca  Ca3       1.0  3.4245000000019714e-05  0.5002116600000001  0.47461347921523533  1.0000
  Ca  Ca4       1.0  0.170929295  0.16203203000000002  0.47461347921523533  1.0000
  Ca  Ca5       1.0  0.161854615  0.8293166099999999  0.47461347921523533  1.0000
  Ca  Ca6       1.0  0.838213875  0.17110671000000002  0.47461347921523533  1.0000
  Ca  Ca7       1.0  0.829139195  0.83839129  0.47461347921523533  1.0000
  Ni  Ni1       1.0  0.38036003500000004  0.77611049  0.4518732104438586  1.0000
  Ni  Ni2       1.0  0.775933075  0.6198858700000001  0.4518732104438586  1.0000
  Ni  Ni3       1.0  0.22413541499999998  0.38053745000000005  0.4518732104438586  1.0000
  Ni  Ni4       1.0  0.619708455  0.22431283  0.4518732104438586  1.0000
  Sn  Sn1       1.0  3.4245000000019714e-05  0.00021166000000003477  0.4518732104438586  1.0000
  Sn  Sn2       1.0  0.308979215  0.42473526000000006  0.47461347921523533  1.0000
  Sn  Sn3       1.0  0.424557845  0.6912666900000001  0.47461347921523533  1.0000
  Sn  Sn4       1.0  0.575510645  0.30915663  0.47461347921523533  1.0000
  Sn  Sn5       1.0  0.691089275  0.5756880600000001  0.47461347921523533  1.0000
  Sn  Sn6       1.0  0.389277425  0.21627602  0.4518732104438586  1.0000
  Sn  Sn7       1.0  0.21609860500000003  0.61096848  0.4518732104438586  1.0000
  Sn  Sn8       1.0  0.7839698850000001  0.38945484  0.4518732104438586  1.0000
  Sn  Sn9       1.0  0.610791065  0.7841473  0.4518732104438586  1.0000
  Sn  Sn10      1.0  0.018969585000000018  0.2855082400000001  0.4518732104438586  1.0000
  Sn  Sn11      1.0  0.28533082500000007  0.98127632  0.4518732104438586  1.0000
  Sn  Sn12      1.0  0.714737665  0.019147000000000032  0.4518732104438586  1.0000
  Sn  Sn13      1.0  0.9810989050000001  0.71491508  0.4518732104438586  1.0000
  Ca  Ca8       1.0  0.5000316650000001  0.5002031100000001  0.497798887329979  1.0000
  Ca  Ca9       1.0  0.5000338750000001  0.00020132000000003478  0.5174275709335499  1.0000
  Ca  Ca10      1.0  3.4305000000019717e-05  0.5002282800000001  0.517429229608555  1.0000
  Ca  Ca11      1.0  0.173322735  0.17158909000000003  0.5195251549039697  1.0000
  Ca  Ca12      1.0  0.17127633500000003  0.82706555  0.5195295260379083  1.0000
  Ca  Ca13      1.0  0.828699835  0.17349587000000002  0.5195236649617385  1.0000
  Ca  Ca14      1.0  0.8268435550000001  0.8289486800000001  0.5195268326807982  1.0000
  Ni  Ni5       1.0  0.384408335  0.77699678  0.49744033973606483  1.0000
  Ni  Ni6       1.0  0.776803165  0.6158367100000001  0.49743629014948804  1.0000
  Ni  Ni7       1.0  0.22330052500000003  0.38461357000000007  0.4974416768637082  1.0000
  Ni  Ni8       1.0  0.615674825  0.22346562  0.49744045434700573  1.0000
  Sn  Sn14      1.0  4.230500000001972e-05  0.0002462800000000348  0.4977621354216116  1.0000
  Sn  Sn15      1.0  0.304681865  0.43697563000000006  0.5218313880922149  1.0000
  Sn  Sn16      1.0  0.43675803500000004  0.6955743900000001  0.5218289303242609  1.0000
  Sn  Sn17      1.0  0.563332955  0.30484530000000004  0.5218278892748816  1.0000
  Sn  Sn18      1.0  0.6953941050000001  0.56346914  0.5218284495950368  1.0000
  Sn  Sn19      1.0  0.389352475  0.22794896000000003  0.4986088396653599  1.0000
  Sn  Sn20      1.0  0.22777155500000001  0.6109777500000001  0.49861420409411933  1.0000
  Sn  Sn21      1.0  0.7723548650000001  0.3896143100000001  0.49861140249334296  1.0000
  Sn  Sn22      1.0  0.610667355  0.77252392  0.49861843514801923  1.0000
  Sn  Sn23      1.0  0.016291315000000018  0.28544646  0.4976334750895908  1.0000
  Sn  Sn24      1.0  0.285269815  0.98405099  0.4976372158633548  1.0000
  Sn  Sn25      1.0  0.7148040950000001  0.016396380000000033  0.4976324053874761  1.0000
  Sn  Sn26      1.0  0.983815125  0.7149710100000001  0.4976329688912687  1.0000
