data_image0
_chemical_formula_structural       COCa2As2Au2Ca2As2Au2Ca2As2Au2Ca2As2Au2
_chemical_formula_sum              "C1 O1 Ca8 As8 Au8"
_cell_length_a       8.99822482
_cell_length_b       8.998224822329474
_cell_length_c       102.42084676
_cell_angle_alpha    90.0
_cell_angle_beta     90.0
_cell_angle_gamma    120.0000000649613

_space_group_name_H-M_alt    "P 1"
_space_group_IT_number       1

loop_
  _space_group_symop_operation_xyz
  'x, y, z'

loop_
  _atom_site_type_symbol
  _atom_site_label
  _atom_site_symmetry_multiplicity
  _atom_site_fract_x
  _atom_site_fract_y
  _atom_site_fract_z
  _atom_site_occupancy
  C   C1        1.0  0.28788658500000003  0.07975549000000004  0.533698380658494  1.0000
  O   O1        1.0  0.35899811500000006  0.07632876000000004  0.5433975118025358  1.0000
  Ca  Ca1       1.0  0.08333333500000005  0.08752630000000004  0.4763865749981541  1.0000
  Ca  Ca2       1.0  0.11247512500000004  0.09415390000000003  0.5147567066046852  1.0000
  As  As1       1.0  0.2500000050000001  0.42085963000000004  0.45660248819746424  1.0000
  As  As2       1.0  0.4200276050000001  0.25762293  0.49759198858005227  1.0000
  Au  Au1       1.0  0.41666666500000005  0.25419297  0.45660248819746424  1.0000
  Au  Au2       1.0  0.244214615  0.42028655  0.49500161536161047  1.0000
  Ca  Ca3       1.0  0.08333333500000005  0.5875263000000001  0.4763865749981541  1.0000
  Ca  Ca4       1.0  0.08973679500000006  0.5976131200000001  0.5141937654506776  1.0000
  As  As3       1.0  0.2500000050000001  0.92085963  0.45660248819746424  1.0000
  As  As4       1.0  0.4182626750000001  0.75566175  0.5007143891298305  1.0000
  Au  Au3       1.0  0.41666666500000005  0.7541929700000001  0.45660248819746424  1.0000
  Au  Au4       1.0  0.24713717500000013  0.91732089  0.4938308627447312  1.0000
  Ca  Ca5       1.0  0.5833333350000001  0.08752630000000004  0.4763865749981541  1.0000
  Ca  Ca6       1.0  0.559911475  0.08844393000000005  0.5141045882837418  1.0000
  As  As5       1.0  0.7500000050000001  0.42085963000000004  0.45660248819746424  1.0000
  As  As6       1.0  0.9148312650000002  0.25115312000000006  0.5024937350766917  1.0000
  Au  Au5       1.0  0.916666665  0.25419297  0.45660248819746424  1.0000
  Au  Au6       1.0  0.7573746050000001  0.42211786000000007  0.49543230068671895  1.0000
  Ca  Ca7       1.0  0.5833333350000001  0.5875263000000001  0.4763865749981541  1.0000
  Ca  Ca8       1.0  0.572437755  0.5715763300000001  0.5136490161601649  1.0000
  As  As7       1.0  0.7500000050000001  0.92085963  0.45660248819746424  1.0000
  As  As8       1.0  0.9159204150000002  0.7560488300000001  0.5008520104030699  1.0000
  Au  Au7       1.0  0.916666665  0.7541929700000001  0.45660248819746424  1.0000
  Au  Au8       1.0  0.751666495  0.92367124  0.4966194535201926  1.0000
