data_image0
_chemical_formula_structural       COIn2Ni2In2Ni2In2Ni2In2Ni2
_chemical_formula_sum              "C1 O1 In8 Ni8"
_cell_length_a       6.37415884
_cell_length_b       4.50721094
_cell_length_c       101.55047658000001
_cell_angle_alpha    90.0
_cell_angle_beta     90.0
_cell_angle_gamma    90.0

_space_group_name_H-M_alt    "P 1"
_space_group_IT_number       1

loop_
  _space_group_symop_operation_xyz
  'x, y, z'

loop_
  _atom_site_type_symbol
  _atom_site_label
  _atom_site_symmetry_multiplicity
  _atom_site_fract_x
  _atom_site_fract_y
  _atom_site_fract_z
  _atom_site_occupancy
  C   C1        1.0  0.2561650200000001  0.7500000149999999  0.5372999525720005  1.0000
  O   O1        1.0  0.2561650200000001  0.7499999949999999  0.5488280076477869  1.0000
  In  In1       1.0  0.006165010000000038  0.749999935  0.45117199235221295  1.0000
  In  In2       1.0  0.006165010000000038  0.249999935  0.4733639652589332  1.0000
  Ni  Ni1       1.0  0.25616501  0.749999935  0.4733639652589332  1.0000
  Ni  Ni2       1.0  0.25616501  0.249999935  0.45117199235221295  1.0000
  In  In3       1.0  0.011159240000000039  0.7499999549999999  0.49577054875081633  1.0000
  In  In4       1.0  0.99383499  0.250000045  0.5195248174963188  1.0000
  Ni  Ni3       1.0  0.25616504000000007  0.7500000649999999  0.5197962745965772  1.0000
  Ni  Ni4       1.0  0.25616496000000005  0.249999945  0.4977532298038151  1.0000
  In  In5       1.0  0.50616501  0.749999935  0.45117199235221295  1.0000
  In  In6       1.0  0.50616501  0.249999935  0.4733639652589332  1.0000
  Ni  Ni5       1.0  0.75616501  0.749999935  0.4733639652589332  1.0000
  Ni  Ni6       1.0  0.75616501  0.249999935  0.45117199235221295  1.0000
  In  In7       1.0  0.5011707900000001  0.7499999549999999  0.4957705425370638  1.0000
  In  In8       1.0  0.5184949400000002  0.250000045  0.5195248050688138  1.0000
  Ni  Ni7       1.0  0.7561649200000001  0.750000045  0.515818192939134  1.0000
  Ni  Ni8       1.0  0.7561650400000002  0.249999945  0.49490115156444014  1.0000
