data_image0
_chemical_formula_structural       COAl18Ni12
_chemical_formula_sum              "C1 O1 Al18 Ni12"
_cell_length_a       6.412091144328792
_cell_length_b       8.612680811730314
_cell_length_c       100.95125592
_cell_angle_alpha    89.90788564829555
_cell_angle_beta     85.34593850508392
_cell_angle_gamma    89.77768094196463

_space_group_name_H-M_alt    "P 1"
_space_group_IT_number       1

loop_
  _space_group_symop_operation_xyz
  'x, y, z'

loop_
  _atom_site_type_symbol
  _atom_site_label
  _atom_site_symmetry_multiplicity
  _atom_site_fract_x
  _atom_site_fract_y
  _atom_site_fract_z
  _atom_site_occupancy
  C   C1        1.0  0.429547615  0.8139397249999999  0.5357580301251289  1.0000
  O   O1        1.0  0.3604051649999999  0.8044752749999999  0.546844693386352  1.0000
  Al  Al1       1.0  0.058093185  0.0032251449999999627  0.48534599363096564  1.0000
  Al  Al2       1.0  0.891426515  0.669891815  0.4597963241395847  1.0000
  Al  Al3       1.0  0.474759855  0.33655847499999997  0.472571157352295  1.0000
  Al  Al4       1.0  0.46347184500000005  0.6763421049999999  0.4723239550921967  1.0000
  Al  Al5       1.0  0.046805175000000004  0.34300876499999994  0.48509878830490694  1.0000
  Al  Al6       1.0  0.8801385150000001  0.009675434999999961  0.45954911881352595  1.0000
  Al  Al7       1.0  0.48604785500000003  0.9967748550000001  0.47281836267835364  1.0000
  Al  Al8       1.0  0.06938119500000002  0.663441525  0.4855931989570243  1.0000
  Al  Al9       1.0  0.9027145250000002  0.330108185  0.46004352639968293  1.0000
  Al  Al10      1.0  0.759534505  0.026089804999999962  0.5230227907258197  1.0000
  Al  Al11      1.0  0.6358633549999999  0.6762464349999999  0.49774142650039416  1.0000
  Al  Al12      1.0  0.211373985  0.34639591499999994  0.5113840522281172  1.0000
  Al  Al13      1.0  0.22313333500000002  0.6750573849999999  0.5105881656838105  1.0000
  Al  Al14      1.0  0.777454065  0.32924787499999997  0.5230603855329998  1.0000
  Al  Al15      1.0  0.6358360949999999  0.007754254999999963  0.4973394545561942  1.0000
  Al  Al16      1.0  0.24690263500000004  0.992606875  0.5099734406112588  1.0000
  Al  Al17      1.0  0.8247383850000001  0.636758665  0.521176165805756  1.0000
  Al  Al18      1.0  0.651204915  0.328328275  0.4981729726992068  1.0000
  Ni  Ni1       1.0  0.171513155  0.843175645  0.46593013982635817  1.0000
  Ni  Ni2       1.0  0.7548464850000001  0.5098423049999999  0.4787049761050289  1.0000
  Ni  Ni3       1.0  0.588179815  0.17650897499999996  0.453155306613648  1.0000
  Ni  Ni4       1.0  0.7780065549999999  0.8299413149999999  0.47921217487823164  1.0000
  Ni  Ni5       1.0  0.611339885  0.496607985  0.4536625053868507  1.0000
  Ni  Ni6       1.0  0.19467321500000004  0.16327464499999997  0.46643734166552137  1.0000
  Ni  Ni7       1.0  0.9244617150000001  0.8446036749999999  0.5057542712433502  1.0000
  Ni  Ni8       1.0  0.512898225  0.506222145  0.5158926819891666  1.0000
  Ni  Ni9       1.0  0.3381798150000001  0.17650897499999996  0.49147981238369964  1.0000
  Ni  Ni10      1.0  0.523191535  0.824016035  0.5187539742601562  1.0000
  Ni  Ni11      1.0  0.361339885  0.496607985  0.4919870111569023  1.0000
  Ni  Ni12      1.0  0.9531948250000001  0.16249555499999996  0.5050694307210021  1.0000
