data_image0
_chemical_formula_structural       CONi12Si12
_chemical_formula_sum              "C1 O1 Ni12 Si12"
_cell_length_a       5.783079099803505
_cell_length_b       6.5353118604112765
_cell_length_c       101.85420097
_cell_angle_alpha    88.56445273225353
_cell_angle_beta     89.46627388967319
_cell_angle_gamma    71.93472781148199

_space_group_name_H-M_alt    "P 1"
_space_group_IT_number       1

loop_
  _space_group_symop_operation_xyz
  'x, y, z'

loop_
  _atom_site_type_symbol
  _atom_site_label
  _atom_site_symmetry_multiplicity
  _atom_site_fract_x
  _atom_site_fract_y
  _atom_site_fract_z
  _atom_site_occupancy
  C   C1        1.0  0.16851305499999986  0.22085029000000006  0.5365198605207862  1.0000
  O   O1        1.0  0.11355693499999991  0.24853054000000002  0.5474952176638683  1.0000
  Ni  Ni1       1.0  0.22835819499999996  0.40185556  0.49159767279455047  1.0000
  Ni  Ni2       1.0  0.2753313449999999  0.17766873000000002  0.5197572982069015  1.0000
  Ni  Ni3       1.0  0.773500435  0.78343463  0.5040926393932387  1.0000
  Ni  Ni4       1.0  0.8681426349999998  0.35639622  0.5061829956672438  1.0000
  Ni  Ni5       1.0  0.3292468249999999  0.9717015400000001  0.49402476897210196  1.0000
  Ni  Ni6       1.0  0.4131545349999999  0.73653437  0.518628952291022  1.0000
  Ni  Ni7       1.0  0.6033581949999999  0.27685556000000006  0.45250478233613145  1.0000
  Ni  Ni8       1.0  0.6866915249999999  0.02685556000000002  0.478566711393365  1.0000
  Ni  Ni9       1.0  0.14502485499999995  0.65185556  0.46553574686474825  1.0000
  Ni  Ni10      1.0  0.24591349499999993  0.22170154000000006  0.46796284304229974  1.0000
  Ni  Ni11      1.0  0.7042468249999998  0.84670154  0.454931878513683  1.0000
  Ni  Ni12      1.0  0.7875801549999997  0.5967015400000001  0.48099380444348516  1.0000
  Si  Si1       1.0  0.5899118149999998  0.36383328000000004  0.5240125812253191  1.0000
  Si  Si2       1.0  0.024579274999999904  0.97314444  0.5133278937962358  1.0000
  Si  Si3       1.0  0.49917252499999987  0.59227774  0.49778708438697644  1.0000
  Si  Si4       1.0  0.14708765499999987  0.5458746400000001  0.512617425859907  1.0000
  Si  Si5       1.0  0.5914337249999999  0.16589516000000004  0.5013891189509714  1.0000
  Si  Si6       1.0  0.6630330449999997  0.94457156  0.5250748069899928  1.0000
  Si  Si7       1.0  0.9571842949999999  0.21411979000000006  0.4850739982241176  1.0000
  Si  Si8       1.0  0.4155176249999999  0.8391197900000001  0.4720430368229322  1.0000
  Si  Si9       1.0  0.873850955  0.4641197900000001  0.45901207229431545  1.0000
  Si  Si10      1.0  0.517087395  0.40943732  0.47448651761273253  1.0000
  Si  Si11      1.0  0.975420725  0.034437320000000014  0.4614555530841159  1.0000
  Si  Si12      1.0  0.0587540549999999  0.7844373200000001  0.48751747901391806  1.0000
