data_image0
_chemical_formula_structural       COZn2Pd6Zn2Pd6Zn2Pd6Zn2Pd6
_chemical_formula_sum              "C1 O1 Zn8 Pd24"
_cell_length_a       7.96823152
_cell_length_b       7.96823152
_cell_length_c       101.1519936
_cell_angle_alpha    90.0
_cell_angle_beta     90.0
_cell_angle_gamma    90.0

_space_group_name_H-M_alt    "P 1"
_space_group_IT_number       1

loop_
  _space_group_symop_operation_xyz
  'x, y, z'

loop_
  _atom_site_type_symbol
  _atom_site_label
  _atom_site_symmetry_multiplicity
  _atom_site_fract_x
  _atom_site_fract_y
  _atom_site_fract_z
  _atom_site_occupancy
  C   C1        1.0  0.25131699  0.3763213850000001  0.5337330174913203  1.0000
  O   O1        1.0  0.25132009000000005  0.376317425  0.5452595669044363  1.0000
  Zn  Zn1       1.0  0.9986775800000001  0.12367962500000003  0.5113018775943782  1.0000
  Zn  Zn2       1.0  0.25131886000000003  0.37632037500000004  0.4739886904032673  1.0000
  Pd  Pd1       1.0  0.25131886000000003  0.126320375  0.4547404330955636  1.0000
  Pd  Pd2       1.0  0.0013188599999999836  0.37632037500000004  0.4547404330955636  1.0000
  Pd  Pd3       1.0  0.0013188599999999836  0.126320375  0.4739886904032673  1.0000
  Pd  Pd4       1.0  0.004980809999999984  0.376324205  0.4935790308195647  1.0000
  Pd  Pd5       1.0  0.25132391  0.12998965500000004  0.4935799516561944  1.0000
  Pd  Pd6       1.0  0.25130928  0.376336535  0.5148473819526879  1.0000
  Zn  Zn3       1.0  0.9986811400000002  0.6289629750000001  0.511303420534684  1.0000
  Zn  Zn4       1.0  0.25131886000000003  0.876320375  0.4739886904032673  1.0000
  Pd  Pd7       1.0  0.25131886000000003  0.626320375  0.4547404330955636  1.0000
  Pd  Pd8       1.0  0.0013188599999999836  0.876320375  0.4547404330955636  1.0000
  Pd  Pd9       1.0  0.0013188599999999836  0.626320375  0.4739886904032673  1.0000
  Pd  Pd10      1.0  0.0030749899999999836  0.8763194150000001  0.493219713591308  1.0000
  Pd  Pd11      1.0  0.25131263  0.6226537050000001  0.4935797699526453  1.0000
  Pd  Pd12      1.0  0.25132206  0.876316615  0.5126626616321671  1.0000
  Zn  Zn5       1.0  0.50395626  0.12368057500000003  0.5113026998799304  1.0000
  Zn  Zn6       1.0  0.7513188600000001  0.37632037500000004  0.4739886904032673  1.0000
  Pd  Pd13      1.0  0.7513188600000001  0.126320375  0.4547404330955636  1.0000
  Pd  Pd14      1.0  0.50131886  0.37632037500000004  0.4547404330955636  1.0000
  Pd  Pd15      1.0  0.50131886  0.126320375  0.4739886904032673  1.0000
  Pd  Pd16      1.0  0.49765550000000003  0.3763226950000001  0.4935791386098057  1.0000
  Pd  Pd17      1.0  0.7513175899999999  0.12808474500000003  0.4932197197507504  1.0000
  Pd  Pd18      1.0  0.75131861  0.37631976500000003  0.5126633699680361  1.0000
  Zn  Zn7       1.0  0.50395684  0.628961175  0.5113040703558507  1.0000
  Zn  Zn8       1.0  0.7513188600000001  0.876320375  0.4739886904032673  1.0000
  Pd  Pd19      1.0  0.7513188600000001  0.626320375  0.4547404330955636  1.0000
  Pd  Pd20      1.0  0.50131886  0.876320375  0.4547404330955636  1.0000
  Pd  Pd21      1.0  0.50131886  0.626320375  0.4739886904032673  1.0000
  Pd  Pd22      1.0  0.4995624  0.8763196550000002  0.4932196673954905  1.0000
  Pd  Pd23      1.0  0.7513160200000001  0.624558215  0.49322024946279147  1.0000
  Pd  Pd24      1.0  0.7513166400000001  0.876319405  0.5126234229047499  1.0000
