data_image0
_chemical_formula_structural       COAl4Na4Se8
_chemical_formula_sum              "C1 O1 Al4 Na4 Se8"
_cell_length_a       6.370626757651157
_cell_length_b       6.370626759768894
_cell_length_c       109.75028183
_cell_angle_alpha    87.07296311839606
_cell_angle_beta     87.0729631174222
_cell_angle_gamma    75.20990852379389

_space_group_name_H-M_alt    "P 1"
_space_group_IT_number       1

loop_
  _space_group_symop_operation_xyz
  'x, y, z'

loop_
  _atom_site_type_symbol
  _atom_site_label
  _atom_site_symmetry_multiplicity
  _atom_site_fract_x
  _atom_site_fract_y
  _atom_site_fract_z
  _atom_site_occupancy
  C   C1        1.0  0.99332529  0.13220086499999997  0.5385430745463504  1.0000
  O   O1        1.0  0.9488790600000001  0.19258535500000004  0.5483724881303745  1.0000
  Al  Al1       1.0  0.5511209400000001  0.481545845  0.45531531080136006  1.0000
  Al  Al2       1.0  0.9273788900000001  0.8467165449999999  0.5003417284018233  1.0000
  Al  Al3       1.0  0.1380482300000001  0.018454154999999996  0.5217256699086029  1.0000
  Al  Al4       1.0  0.7386209400000002  0.669045845  0.47795208742689305  1.0000
  Na  Na1       1.0  0.05112093999999989  0.981545845  0.45531531080136006  1.0000
  Na  Na2       1.0  0.4346883200000001  0.324100885  0.5044957543849373  1.0000
  Na  Na3       1.0  0.6279787900000001  0.632166385  0.5242316480062718  1.0000
  Na  Na4       1.0  0.23862094000000006  0.169045845  0.477952087426893  1.0000
  Se  Se1       1.0  0.5816669100000001  0.849179975  0.4590031097330946  1.0000
  Se  Se2       1.0  0.94666492  0.214041215  0.5047157367692422  1.0000
  Se  Se3       1.0  0.18348681000000014  0.450999875  0.45162751186962546  1.0000
  Se  Se4       1.0  0.5584868100000001  0.8259998749999999  0.49690106512069143  1.0000
  Se  Se5       1.0  0.4436158500000001  0.079031025  0.5295784075607273  1.0000
  Se  Se6       1.0  0.10625507000000012  0.699591815  0.48163988635862753  1.0000
  Se  Se7       1.0  0.08603958000000007  0.6621006250000001  0.5193852952249582  1.0000
  Se  Se8       1.0  0.7080749700000001  0.301411715  0.47426428849515845  1.0000
