data_image0
_chemical_formula_structural       COZn4Cu2Au2Zn4Cu2Au2
_chemical_formula_sum              "C1 O1 Zn8 Cu4 Au4"
_cell_length_a       4.74926446
_cell_length_b       5.62264233
_cell_length_c       101.86856428
_cell_angle_alpha    90.0
_cell_angle_beta     90.0
_cell_angle_gamma    90.0

_space_group_name_H-M_alt    "P 1"
_space_group_IT_number       1

loop_
  _space_group_symop_operation_xyz
  'x, y, z'

loop_
  _atom_site_type_symbol
  _atom_site_label
  _atom_site_symmetry_multiplicity
  _atom_site_fract_x
  _atom_site_fract_y
  _atom_site_fract_z
  _atom_site_occupancy
  C   C1        1.0  0.9795999750000001  0.11987041500000002  0.5393364438432936  1.0000
  O   O1        1.0  0.09212465500000003  0.12004695500000002  0.5494725639171969  1.0000
  Zn  Zn1       1.0  0.00012246500000001603  0.8693976250000001  0.4505274360828031  1.0000
  Zn  Zn2       1.0  0.00012246500000001603  0.37016074499999996  0.4505274360828031  1.0000
  Zn  Zn3       1.0  0.362483245  0.36939762500000006  0.4728731517661682  1.0000
  Zn  Zn4       1.0  0.362483245  0.870160745  0.4728731517661682  1.0000
  Cu  Cu1       1.0  0.867327385  0.619779185  0.4728731517661682  1.0000
  Cu  Cu2       1.0  0.49527832499999996  0.11977918500000002  0.4505274360828031  1.0000
  Au  Au1       1.0  0.503377405  0.619779185  0.4505274360828031  1.0000
  Au  Au2       1.0  0.859228305  0.11977918500000002  0.4728731517661682  1.0000
  Zn  Zn5       1.0  0.020395144999999948  0.8802633249999998  0.4957810472327394  1.0000
  Zn  Zn6       1.0  0.020400025000000044  0.35924872500000005  0.4957796363242229  1.0000
  Zn  Zn7       1.0  0.377820015  0.382501225  0.517441981126778  1.0000
  Zn  Zn8       1.0  0.37784090499999995  0.8570072150000001  0.5174487197009343  1.0000
  Cu  Cu3       1.0  0.895152945  0.619770105  0.5165626128413889  1.0000
  Cu  Cu4       1.0  0.5291155150000001  0.11973667500000003  0.49675794652457916  1.0000
  Au  Au3       1.0  0.5260386950000001  0.6197644050000001  0.4943101203573192  1.0000
  Au  Au4       1.0  0.851975325  0.11976588500000003  0.5199325631403673  1.0000
