data_image0
_chemical_formula_structural       CONa36Zn6Se24
_chemical_formula_sum              "C1 O1 Na36 Zn6 Se24"
_cell_length_a       25.113735372748078
_cell_length_b       7.32244664
_cell_length_c       107.96839901999999
_cell_angle_alpha    90.0
_cell_angle_beta     100.8933946544119
_cell_angle_gamma    90.0

_space_group_name_H-M_alt    "P 1"
_space_group_IT_number       1

loop_
  _space_group_symop_operation_xyz
  'x, y, z'

loop_
  _atom_site_type_symbol
  _atom_site_label
  _atom_site_symmetry_multiplicity
  _atom_site_fract_x
  _atom_site_fract_y
  _atom_site_fract_z
  _atom_site_occupancy
  C   C1        1.0  0.56558159  0.47528999  0.5474195428738224  1.0000
  O   O1        1.0  0.5341963  0.43153965000000005  0.5533598304127624  1.0000
  Na  Na1       1.0  0.4460285500000001  0.10740935999999998  0.5148134145267841  1.0000
  Na  Na2       1.0  0.09880119999999998  0.09890460999999998  0.45644866337877626  1.0000
  Na  Na3       1.0  0.76546787  0.09890460999999998  0.4857538411328637  1.0000
  Na  Na4       1.0  0.61726607  0.09890460999999998  0.45969535953567014  1.0000
  Na  Na5       1.0  0.28393273  0.09890460999999998  0.4890005372897575  1.0000
  Na  Na6       1.0  0.9572214000000001  0.09190786999999999  0.5173004184638857  1.0000
  Na  Na7       1.0  0.61726607  0.09890460999999998  0.4987830819314604  1.0000
  Na  Na8       1.0  0.2857498  0.061243749999999986  0.5262297568876354  1.0000
  Na  Na9       1.0  0.9505994000000001  0.09890460999999998  0.469477904177373  1.0000
  Na  Na10      1.0  0.9011988000000001  0.59890461  0.4477625028463784  1.0000
  Na  Na11      1.0  0.56786547  0.59890461  0.4770676806004658  1.0000
  Na  Na12      1.0  0.23976533999999997  0.60259051  0.5063117254068986  1.0000
  Na  Na13      1.0  0.71606727  0.59890461  0.5031261621976594  1.0000
  Na  Na14      1.0  0.37495357  0.6585215499999999  0.5327731450088786  1.0000
  Na  Na15      1.0  0.04940059999999997  0.59890461  0.47382098444357196  1.0000
  Na  Na16      1.0  0.71606727  0.59890461  0.46403843980186904  1.0000
  Na  Na17      1.0  0.38273393  0.59890461  0.49334361755595646  1.0000
  Na  Na18      1.0  0.04298423999999997  0.5857427000000001  0.5214004263373769  1.0000
  Na  Na19      1.0  0.6740532000000001  0.93875625  0.5256783611908227  1.0000
  Na  Na20      1.0  0.35377199000000004  0.92607484  0.467656610751247  1.0000
  Na  Na21      1.0  0.02043864999999997  0.92607484  0.49696178850533435  1.0000
  Na  Na22      1.0  0.8231140100000001  0.92607484  0.46226598521473433  1.0000
  Na  Na23      1.0  0.48978067  0.92607484  0.49157116296882175  1.0000
  Na  Na24      1.0  0.15935029999999997  0.92805317  0.5195177748998222  1.0000
  Na  Na25      1.0  0.82282086  0.86674748  0.5155655846932495  1.0000
  Na  Na26      1.0  0.48978067  0.92607484  0.45569933112583805  1.0000
  Na  Na27      1.0  0.15644733999999996  0.92607484  0.48500451239654685  1.0000
  Na  Na28      1.0  0.6440851  0.45106607000000004  0.5251307212457412  1.0000
  Na  Na29      1.0  0.31289468  0.42607484  0.46585973322799507  1.0000
  Na  Na30      1.0  0.9795613500000001  0.42607484  0.495164914498704  1.0000
  Na  Na31      1.0  0.51021933  0.42607484  0.5005555400352166  1.0000
  Na  Na32      1.0  0.17882072  0.4323081  0.5266119538589851  1.0000
  Na  Na33      1.0  0.84355266  0.42607484  0.47125035876450766  1.0000
  Na  Na34      1.0  0.51021933  0.42607484  0.44851183158269514  1.0000
  Na  Na35      1.0  0.17688598999999997  0.42607484  0.4778170093367826  1.0000
  Na  Na36      1.0  0.84804051  0.43516886000000005  0.5047456683671491  1.0000
  Zn  Zn1       1.0  0.54568275  0.82328744  0.5174777616846762  1.0000
  Zn  Zn2       1.0  0.22222221999999997  0.8075000800000001  0.4618739768694803  1.0000
  Zn  Zn3       1.0  0.8888888900000002  0.8075000800000001  0.49117915462356776  1.0000
  Zn  Zn4       1.0  0.77289528  0.36205002000000003  0.527811680923463  1.0000
  Zn  Zn5       1.0  0.44444444  0.30750007999999995  0.4716423671097618  1.0000
  Zn  Zn6       1.0  0.11111110999999996  0.30750007999999995  0.5009475483804706  1.0000
  Se  Se1       1.0  0.5667539700000002  0.14183622999999998  0.5223067265063016  1.0000
  Se  Se2       1.0  0.22222221999999997  0.15532712999999998  0.4618739768694803  1.0000
  Se  Se3       1.0  0.8888888900000002  0.15532712999999998  0.49117915462356776  1.0000
  Se  Se4       1.0  0.7567725000000001  0.6635325200000001  0.5327752409152754  1.0000
  Se  Se5       1.0  0.44444444  0.6553271299999999  0.4716423671097618  1.0000
  Se  Se6       1.0  0.11111110999999996  0.6553271299999999  0.5009475483804706  1.0000
  Se  Se7       1.0  0.45613293  0.7010073399999999  0.5177066198933974  1.0000
  Se  Se8       1.0  0.12433323999999997  0.7011019199999999  0.45757099312129546  1.0000
  Se  Se9       1.0  0.7909999100000001  0.7011019199999999  0.4868761743920043  1.0000
  Se  Se10      1.0  0.60450005  0.7011019199999999  0.45408370378983104  1.0000
  Se  Se11      1.0  0.2711667099999999  0.7011019199999999  0.48338888154391846  1.0000
  Se  Se12      1.0  0.9345411200000001  0.7057909499999999  0.5135184116367882  1.0000
  Se  Se13      1.0  0.60450005  0.7011019199999999  0.5032724079347802  1.0000
  Se  Se14      1.0  0.26462835  0.7065122199999999  0.5325401864195219  1.0000
  Se  Se15      1.0  0.93783338  0.7011019199999999  0.47396723018069287  1.0000
  Se  Se16      1.0  0.87566676  0.20110192  0.4466401695872377  1.0000
  Se  Se17      1.0  0.54233343  0.20110192  0.4759453508579466  1.0000
  Se  Se18      1.0  0.21174789999999996  0.20995342999999997  0.5062089556610256  1.0000
  Se  Se19      1.0  0.7368493700000001  0.17017537  0.5106993120344365  1.0000
  Se  Se20      1.0  0.39549995  0.20110192  0.4501274624353236  1.0000
  Se  Se21      1.0  0.062166619999999964  0.20110192  0.47943264018941106  1.0000
  Se  Se22      1.0  0.72883329  0.20110192  0.4595491137985491  1.0000
  Se  Se23      1.0  0.39549995  0.20110192  0.4888542915526366  1.0000
  Se  Se24      1.0  0.07113945999999996  0.20644522  0.5199802387562508  1.0000
