data_image0
_chemical_formula_structural       COCa6Ge12Ca6Ge12
_chemical_formula_sum              "C1 O1 Ca12 Ge24"
_cell_length_a       16.507781854265772
_cell_length_b       7.04000264
_cell_length_c       98.45183193
_cell_angle_alpha    90.0
_cell_angle_beta     82.928373867593
_cell_angle_gamma    77.68812706485627

_space_group_name_H-M_alt    "P 1"
_space_group_IT_number       1

loop_
  _space_group_symop_operation_xyz
  'x, y, z'

loop_
  _atom_site_type_symbol
  _atom_site_label
  _atom_site_symmetry_multiplicity
  _atom_site_fract_x
  _atom_site_fract_y
  _atom_site_fract_z
  _atom_site_occupancy
  C   C1        1.0  0.68501307  0.87728442  0.5395592877877611  1.0000
  O   O1        1.0  0.66608266  0.89383594  0.5512722223109174  1.0000
  Ca  Ca1       1.0  0.07365894999999999  0.48334588  0.5241809527434556  1.0000
  Ca  Ca2       1.0  0.06360227999999998  0.96039917  0.5043355869187475  1.0000
  Ca  Ca3       1.0  0.39585829999999994  0.13384538999999998  0.4968931798986053  1.0000
  Ca  Ca4       1.0  0.40182253  0.6550175500000001  0.5173223479554304  1.0000
  Ca  Ca5       1.0  0.7291916400000001  0.30051205  0.4900124065030026  1.0000
  Ca  Ca6       1.0  0.72827222  0.8145550000000001  0.5132051193648867  1.0000
  Ge  Ge1       1.0  0.26946697  0.4319496  0.5143884334563913  1.0000
  Ge  Ge2       1.0  0.26449273999999995  0.8529449000000001  0.5008404780636283  1.0000
  Ge  Ge3       1.0  0.19336645000000002  0.23129001999999999  0.5006926931262926  1.0000
  Ge  Ge4       1.0  0.19397398  0.7637578600000001  0.5240403868364585  1.0000
  Ge  Ge5       1.0  0.59790652  0.03282128000000002  0.49272243569404495  1.0000
  Ge  Ge6       1.0  0.60092691  0.5902158  0.5083414638447662  1.0000
  Ge  Ge7       1.0  0.5271434200000001  0.40153616  0.494183150707563  1.0000
  Ge  Ge8       1.0  0.52491846  0.9309852000000002  0.515645452171499  1.0000
  Ge  Ge9       1.0  0.9374750300000001  0.27288685  0.5207721861499183  1.0000
  Ge  Ge10      1.0  0.93271558  0.6870099900000002  0.5077620196181539  1.0000
  Ge  Ge11      1.0  0.8642889900000001  0.5912326400000001  0.5309524581097911  1.0000
  Ge  Ge12      1.0  0.8585043300000001  0.07297082999999999  0.5080526217133408  1.0000
  Ca  Ca7       1.0  0.06252497  0.46717872000000005  0.4831316359973239  1.0000
  Ca  Ca8       1.0  0.06252497  0.9671787199999999  0.462489321590364  1.0000
  Ca  Ca9       1.0  0.39585829999999994  0.13384538999999998  0.4556085481947613  1.0000
  Ca  Ca10      1.0  0.39585829999999994  0.6338453900000001  0.47625086549164536  1.0000
  Ca  Ca11      1.0  0.7291916400000001  0.30051205  0.4487277776890827  1.0000
  Ca  Ca12      1.0  0.7291916400000001  0.8005120500000001  0.4693700920960427  1.0000
  Ge  Ge13      1.0  0.26457318  0.36615461000000005  0.4789608917927636  1.0000
  Ge  Ge14      1.0  0.26457318  0.8661546099999999  0.4583185773858036  1.0000
  Ge  Ge15      1.0  0.19381009  0.23486949  0.45977929239932164  1.0000
  Ge  Ge16      1.0  0.19381009  0.7348694900000001  0.4804216068062816  1.0000
  Ge  Ge17      1.0  0.59790652  0.03282128000000002  0.451437806880125  1.0000
  Ge  Ge18      1.0  0.59790652  0.53282128  0.472080121287085  1.0000
  Ge  Ge19      1.0  0.5271434200000001  0.40153616  0.452898521893643  1.0000
  Ge  Ge20      1.0  0.5271434200000001  0.9015361600000003  0.473540836300603  1.0000
  Ge  Ge21      1.0  0.9312398500000001  0.19948795  0.4858416651883663  1.0000
  Ge  Ge22      1.0  0.9312398500000001  0.6994879500000002  0.4651993507814064  1.0000
  Ge  Ge23      1.0  0.8604767600000002  0.5682028299999999  0.4873023773119603  1.0000
  Ge  Ge24      1.0  0.8604767600000002  0.06820282999999992  0.4666600629050003  1.0000
