data_image0
_chemical_formula_structural       CONa14In6Se16
_chemical_formula_sum              "C1 O1 Na14 In6 Se16"
_cell_length_a       6.904651393181849
_cell_length_b       13.862836904229031
_cell_length_c       102.15228356
_cell_angle_alpha    91.48159610349968
_cell_angle_beta     90.18044879553418
_cell_angle_gamma    89.9966568373538

_space_group_name_H-M_alt    "P 1"
_space_group_IT_number       1

loop_
  _space_group_symop_operation_xyz
  'x, y, z'

loop_
  _atom_site_type_symbol
  _atom_site_label
  _atom_site_symmetry_multiplicity
  _atom_site_fract_x
  _atom_site_fract_y
  _atom_site_fract_z
  _atom_site_occupancy
  C   C1        1.0  0.9798500750000001  0.67058907  0.547502970732838  1.0000
  O   O1        1.0  0.059993785000000056  0.6444287499999999  0.5566386985981576  1.0000
  Na  Na1       1.0  0.3344345450000001  0.51900268  0.51986372932283  1.0000
  Na  Na2       1.0  0.8508663350000001  0.4833894899999999  0.44336130140184243  1.0000
  Na  Na3       1.0  0.7927975049999999  0.72043937  0.5238510836120426  1.0000
  Na  Na4       1.0  0.44286383500000004  0.24534029  0.5447319118716103  1.0000
  Na  Na5       1.0  0.37342297500000005  0.7656290599999999  0.4943273418884278  1.0000
  Na  Na6       1.0  0.838809475  0.23437094  0.4704822967273977  1.0000
  Na  Na7       1.0  0.8505632550000001  0.9803215599999999  0.49710018852144344  1.0000
  Na  Na8       1.0  0.36166919500000005  0.019678440000000005  0.4677094500943821  1.0000
  Na  Na9       1.0  0.623664545  0.63451128  0.4694058409345637  1.0000
  Na  Na10      1.0  0.5885679050000001  0.36548871999999993  0.4954037945337762  1.0000
  Na  Na11      1.0  0.6279392149999999  0.8751780799999999  0.44452697267236785  1.0000
  Na  Na12      1.0  0.5723008350000001  0.11024697999999998  0.5186247405240862  1.0000
  Na  Na13      1.0  0.959749205  0.8217103499999999  0.46925756918564543  1.0000
  Na  Na14      1.0  0.252483245  0.17828965  0.4955520694301801  1.0000
  In  In1       1.0  0.9749494350000001  0.30797357  0.5182773179224611  1.0000
  In  In2       1.0  0.23173673500000005  0.69540146  0.4463555264304633  1.0000
  In  In3       1.0  0.9709457349999999  0.56449649  0.49473154512923284  1.0000
  In  In4       1.0  0.2412867150000001  0.43550351  0.47007809033910714  1.0000
  In  In5       1.0  0.020149924999999902  0.08332209  0.5396355977063703  1.0000
  In  In6       1.0  0.26326384500000005  0.9038445899999998  0.5227147846765963  1.0000
  Se  Se1       1.0  0.8506828250000001  0.49175245  0.5170685890497194  1.0000
  Se  Se2       1.0  0.363915295  0.50969722  0.44756427418811817  1.0000
  Se  Se3       1.0  0.8777532050000001  0.2532345  0.5435223426202289  1.0000
  Se  Se4       1.0  0.36132723500000014  0.72767923  0.5255022293475562  1.0000
  Se  Se5       1.0  0.851284885  0.023622410000000007  0.46473145664870197  1.0000
  Se  Se6       1.0  0.3609475650000001  0.97637759  0.500078178819638  1.0000
  Se  Se7       1.0  0.352931655  0.30795992  0.5192667079702289  1.0000
  Se  Se8       1.0  0.8558768350000001  0.69330474  0.4464610332933209  1.0000
  Se  Se9       1.0  0.8728209950000002  0.94165887  0.5263289290151372  1.0000
  Se  Se10      1.0  0.37229524500000005  0.032041200000000006  0.5434418204976048  1.0000
  Se  Se11      1.0  0.8334770750000001  0.19628180999999997  0.4994589362191096  1.0000
  Se  Se12      1.0  0.378755375  0.80371819  0.465350702396716  1.0000
  Se  Se13      1.0  0.35499184500000003  0.54677688  0.49093834348568605  1.0000
  Se  Se14      1.0  0.8572406050000002  0.4532231199999999  0.4738712951301395  1.0000
  Se  Se15      1.0  0.845933535  0.7420285899999999  0.49444529076163324  1.0000
  Se  Se16      1.0  0.366298915  0.25797141  0.47036434785419223  1.0000
