data_image0
_chemical_formula_structural       COAs12Nb6
_chemical_formula_sum              "C1 O1 As12 Nb6"
_cell_length_a       8.641317491065648
_cell_length_b       5.053150567274173
_cell_length_c       102.58954336
_cell_angle_alpha    92.25289528210074
_cell_angle_beta     96.51640253397268
_cell_angle_gamma    73.25267700443824

_space_group_name_H-M_alt    "P 1"
_space_group_IT_number       1

loop_
  _space_group_symop_operation_xyz
  'x, y, z'

loop_
  _atom_site_type_symbol
  _atom_site_label
  _atom_site_symmetry_multiplicity
  _atom_site_fract_x
  _atom_site_fract_y
  _atom_site_fract_z
  _atom_site_occupancy
  C   C1        1.0  0.841443  0.6933573299999999  0.5398910413619468  1.0000
  O   O1        1.0  0.84679829  0.68759155  0.5512743568147525  1.0000
  As  As1       1.0  0.06480821999999999  0.75645068  0.46680556303877335  1.0000
  As  As2       1.0  0.31480822  0.42311734999999995  0.49327799953103957  1.0000
  As  As3       1.0  0.53870602  0.98777644  0.5204444130915044  1.0000
  As  As4       1.0  0.09267966999999998  0.20891057  0.4758073343565737  1.0000
  As  As5       1.0  0.34305549999999996  0.8961624800000001  0.502588735961987  1.0000
  As  As6       1.0  0.84267967  0.5422439  0.449334894687615  1.0000
  As  As7       1.0  0.9352234499999998  0.8431000100000001  0.4963179957819475  1.0000
  As  As8       1.0  0.16405274999999997  0.38537584999999996  0.5255433730601893  1.0000
  As  As9       1.0  0.68256145  0.17650429  0.47099306004021163  1.0000
  As  As10      1.0  0.47492644  0.7888569500000001  0.47161983735513546  1.0000
  As  As11      1.0  0.71780324  0.4585283  0.4977764216649012  1.0000
  As  As12      1.0  0.95017048  0.17307641  0.5247019212190855  1.0000
  Nb  Nb1       1.0  0.34593615999999994  0.34555689  0.4674148145411408  1.0000
  Nb  Nb2       1.0  0.59593616  0.012223559999999951  0.493887251033407  1.0000
  Nb  Nb3       1.0  0.83822048  0.7176935799999998  0.518802418855391  1.0000
  Nb  Nb4       1.0  0.04982951999999999  0.29168353999999996  0.5008820197927535  1.0000
  Nb  Nb5       1.0  0.56155173  0.95313769  0.44872564318524755  1.0000
  Nb  Nb6       1.0  0.81155173  0.6198043499999999  0.4751980796775137  1.0000
