data_image0
_chemical_formula_structural       COIn5Cu5Pt10In5Cu5Pt10
_chemical_formula_sum              "C1 O1 In10 Cu10 Pt20"
_cell_length_a       5.631999015276201
_cell_length_b       9.177951661311091
_cell_length_c       111.81374658
_cell_angle_alpha    105.27161973567264
_cell_angle_beta     87.11640694630317
_cell_angle_gamma    70.9785786785813

_space_group_name_H-M_alt    "P 1"
_space_group_IT_number       1

loop_
  _space_group_symop_operation_xyz
  'x, y, z'

loop_
  _atom_site_type_symbol
  _atom_site_label
  _atom_site_symmetry_multiplicity
  _atom_site_fract_x
  _atom_site_fract_y
  _atom_site_fract_z
  _atom_site_occupancy
  C   C1        1.0  0.530467255  0.9367693999999999  0.562598509246563  1.0000
  O   O1        1.0  0.543777135  0.9279234700000001  0.5727964845973147  1.0000
  In  In1       1.0  0.593199875  0.7486126500000001  0.5205762792963659  1.0000
  In  In2       1.0  0.39403501500000004  0.14678848  0.5082279467343958  1.0000
  In  In3       1.0  0.802583745  0.34884599999999993  0.5350023387704259  1.0000
  In  In4       1.0  0.19403501500000003  0.5467884800000001  0.49576265104474376  1.0000
  In  In5       1.0  0.005964985000000024  0.9485703399999998  0.5455633945646269  1.0000
  Cu  Cu1       1.0  0.913451705  0.6361361600000001  0.5381087032322193  1.0000
  Cu  Cu2       1.0  0.696337265  0.05486404000000002  0.527541480855624  1.0000
  Cu  Cu3       1.0  0.09403501500000001  0.24678848  0.48953000133012325  1.0000
  Cu  Cu4       1.0  0.494035015  0.44678848000000004  0.5144605964490163  1.0000
  Cu  Cu5       1.0  0.294035015  0.84678848  0.5019952970197753  1.0000
  Pt  Pt1       1.0  0.9940350149999999  0.4467884800000001  0.5144605964490162  1.0000
  Pt  Pt2       1.0  0.794035015  0.84678848  0.5019952970197753  1.0000
  Pt  Pt3       1.0  0.20625656500000003  0.05263967000000002  0.5276432500328705  1.0000
  Pt  Pt4       1.0  0.594035015  0.24678847999999995  0.4895300013301233  1.0000
  Pt  Pt5       1.0  0.397818025  0.6352521000000001  0.5379876377753158  1.0000
  Pt  Pt6       1.0  0.08838011500000002  0.7526685  0.5205192655212392  1.0000
  Pt  Pt7       1.0  0.894035015  0.14678848  0.5082279467343958  1.0000
  Pt  Pt8       1.0  0.30812538500000003  0.3460347899999999  0.5326096636659464  1.0000
  Pt  Pt9       1.0  0.694035015  0.5467884800000001  0.49576265104474376  1.0000
  Pt  Pt10      1.0  0.502051825  0.95321152  0.5463295353983889  1.0000
  In  In6       1.0  0.594035015  0.7467884800000001  0.45836676023619893  1.0000
  In  In7       1.0  0.39403501500000004  0.14678848  0.4459014608069578  1.0000
  In  In8       1.0  0.794035015  0.34678848000000007  0.47083205592585087  1.0000
  In  In9       1.0  0.19403501500000003  0.5467884800000001  0.43343616511730587  1.0000
  In  In10      1.0  0.9940350149999999  0.94678848  0.48329735161550275  1.0000
  Cu  Cu6       1.0  0.894035015  0.6467884799999999  0.4770647056404713  1.0000
  Cu  Cu7       1.0  0.694035015  0.04678848000000003  0.46459940621123025  1.0000
  Cu  Cu8       1.0  0.09403501500000001  0.24678848  0.4272035154026853  1.0000
  Cu  Cu9       1.0  0.494035015  0.44678848000000004  0.45213411052157826  1.0000
  Cu  Cu10      1.0  0.294035015  0.84678848  0.4396688148319263  1.0000
  Pt  Pt11      1.0  0.9940350149999999  0.4467884800000001  0.4521341105215782  1.0000
  Pt  Pt12      1.0  0.794035015  0.84678848  0.4396688148319263  1.0000
  Pt  Pt13      1.0  0.19403501500000003  0.04678848000000002  0.46459940621123036  1.0000
  Pt  Pt14      1.0  0.594035015  0.24678847999999995  0.4272035154026853  1.0000
  Pt  Pt15      1.0  0.39403501500000004  0.6467884799999999  0.4770647056404713  1.0000
  Pt  Pt16      1.0  0.09403501500000001  0.7467884800000001  0.4583667602361988  1.0000
  Pt  Pt17      1.0  0.894035015  0.14678848  0.4459014608069578  1.0000
  Pt  Pt18      1.0  0.294035015  0.34678848  0.4708320559258508  1.0000
  Pt  Pt19      1.0  0.694035015  0.5467884800000001  0.43343616511730587  1.0000
  Pt  Pt20      1.0  0.494035015  0.9467884799999998  0.48329735161550275  1.0000
