data_image0
_chemical_formula_structural       COSb16Sn16Ti16
_chemical_formula_sum              "C1 O1 Sb16 Sn16 Ti16"
_cell_length_a       21.93584827291363
_cell_length_b       5.671687528193939
_cell_length_c       101.25918435
_cell_angle_alpha    94.0369786980056
_cell_angle_beta     102.99799261923899
_cell_angle_gamma    89.33634809508094

_space_group_name_H-M_alt    "P 1"
_space_group_IT_number       1

loop_
  _space_group_symop_operation_xyz
  'x, y, z'

loop_
  _atom_site_type_symbol
  _atom_site_label
  _atom_site_symmetry_multiplicity
  _atom_site_fract_x
  _atom_site_fract_y
  _atom_site_fract_z
  _atom_site_occupancy
  C   C1        1.0  0.42257906500000014  0.45111994999999994  0.5381605277776398  1.0000
  O   O1        1.0  0.42133473500000007  0.48577967  0.5496488181827074  1.0000
  Sb  Sb1       1.0  0.567008335  0.08520173  0.4683538417817024  1.0000
  Sb  Sb2       1.0  0.6779793450000001  0.06300752999999999  0.4546509317681538  1.0000
  Sb  Sb3       1.0  0.9279793450000001  0.31300753  0.4546509317681538  1.0000
  Sb  Sb4       1.0  0.817008335  0.33520173  0.4683538417817024  1.0000
  Sb  Sb5       1.0  0.13843690500000005  0.37091602  0.49040417580147155  1.0000
  Sb  Sb6       1.0  0.24940791500000004  0.34872180999999997  0.4767012657879229  1.0000
  Sb  Sb7       1.0  0.4994079150000001  0.59872181  0.476701265787923  1.0000
  Sb  Sb8       1.0  0.3884369050000001  0.62091602  0.49040417580147155  1.0000
  Sb  Sb9       1.0  0.693577065  0.65362729  0.5153281645340051  1.0000
  Sb  Sb10      1.0  0.8208364850000001  0.6344361000000001  0.4987516028947388  1.0000
  Sb  Sb11      1.0  0.07083648500000005  0.8844361000000001  0.4987516028947389  1.0000
  Sb  Sb12      1.0  0.9527367750000002  0.9130330800000003  0.516345377333149  1.0000
  Sb  Sb13      1.0  0.27366073500000004  0.93699247  0.5334724520326298  1.0000
  Sb  Sb14      1.0  0.38723896500000005  0.9140240800000001  0.5203792183316875  1.0000
  Sb  Sb15      1.0  0.6523529050000001  0.16883853000000001  0.5206330075381772  1.0000
  Sb  Sb16      1.0  0.528633745  0.13382668  0.5307883605171713  1.0000
  Sn  Sn1       1.0  0.670032245  0.59702712  0.47617771499467365  1.0000
  Sn  Sn2       1.0  0.7178125750000001  0.12261071000000001  0.4909277265947209  1.0000
  Sn  Sn3       1.0  0.967812575  0.37261070999999996  0.4909277265947209  1.0000
  Sn  Sn4       1.0  0.9200322450000001  0.84702712  0.47617771499467354  1.0000
  Sn  Sn5       1.0  0.09860367500000004  0.31131284000000004  0.45412738097490446  1.0000
  Sn  Sn6       1.0  0.14638400500000004  0.8368964200000001  0.46887739257495176  1.0000
  Sn  Sn7       1.0  0.3963840050000001  0.08689641999999999  0.4688773925749518  1.0000
  Sn  Sn8       1.0  0.348603675  0.5613128399999999  0.4541273809749044  1.0000
  Sn  Sn9       1.0  0.8066084149999999  0.18886930000000002  0.5201187456688228  1.0000
  Sn  Sn10      1.0  0.8435644350000001  0.71237858  0.5303999081541029  1.0000
  Sn  Sn11      1.0  0.09853590500000002  0.92888277  0.5332301559014678  1.0000
  Sn  Sn12      1.0  0.06335386500000004  0.41312085  0.5203726274867172  1.0000
  Sn  Sn13      1.0  0.24146081500000002  0.8827414100000001  0.49822805210148957  1.0000
  Sn  Sn14      1.0  0.290988435  0.39304124999999995  0.5157271097692301  1.0000
  Sn  Sn15      1.0  0.533269285  0.65741959  0.5129027274108315  1.0000
  Sn  Sn16      1.0  0.49146081500000005  0.13274141  0.49822805210148957  1.0000
  Ti  Ti1       1.0  0.03218742500000003  0.59216591  0.4726535917325637  1.0000
  Ti  Ti2       1.0  0.7842288249999999  0.84175763  0.47240151583706164  1.0000
  Ti  Ti3       1.0  0.4628002550000001  0.8060433500000003  0.45035118181729256  1.0000
  Ti  Ti4       1.0  0.710758855  0.55645163  0.45060325771279464  1.0000
  Ti  Ti5       1.0  0.460758855  0.30645163000000003  0.4506032577127946  1.0000
  Ti  Ti6       1.0  0.21280025500000005  0.55604335  0.4503511818172925  1.0000
  Ti  Ti7       1.0  0.03422882500000003  0.09175762999999999  0.4724015158370616  1.0000
  Ti  Ti8       1.0  0.282187425  0.8421659100000002  0.47265359173256366  1.0000
  Ti  Ti9       1.0  0.173857845  0.14444218  0.5157117578853717  1.0000
  Ti  Ti10      1.0  0.925872565  0.40947939  0.5160708771295137  1.0000
  Ti  Ti11      1.0  0.605657395  0.37747192  0.4944518498568308  1.0000
  Ti  Ti12      1.0  0.8536159950000001  0.1278802  0.49470392575233285  1.0000
  Ti  Ti13      1.0  0.6036159950000001  0.8778802  0.49470392575233285  1.0000
  Ti  Ti14      1.0  0.35565739500000004  0.12747192  0.4944518498568307  1.0000
  Ti  Ti15      1.0  0.17522323500000003  0.6642525  0.5153135535413849  1.0000
  Ti  Ti16      1.0  0.42683287500000006  0.40395334999999993  0.5176581223859436  1.0000
