data_image0
_chemical_formula_structural       COAl16Ca4
_chemical_formula_sum              "C1 O1 Al16 Ca4"
_cell_length_a       6.20121948
_cell_length_b       6.452416586555089
_cell_length_c       107.20731691
_cell_angle_alpha    90.0
_cell_angle_beta     90.0
_cell_angle_gamma    118.72032660798698

_space_group_name_H-M_alt    "P 1"
_space_group_IT_number       1

loop_
  _space_group_symop_operation_xyz
  'x, y, z'

loop_
  _atom_site_type_symbol
  _atom_site_label
  _atom_site_symmetry_multiplicity
  _atom_site_fract_x
  _atom_site_fract_y
  _atom_site_fract_z
  _atom_site_occupancy
  C   C1        1.0  0.34645434999999997  0.11015011000000001  0.5506756452638345  1.0000
  O   O1        1.0  0.27366664  0.10995341000000002  0.560674769337125  1.0000
  Al  Al1       1.0  0.9895206499999999  0.60695115  0.5387483176549436  1.0000
  Al  Al2       1.0  0.5018789  0.6016122100000001  0.5116314073333191  1.0000
  Al  Al3       1.0  0.8817187499999999  0.89004659  0.5259105419403671  1.0000
  Al  Al4       1.0  0.40277591  0.88340831  0.4971684804312679  1.0000
  Al  Al5       1.0  0.6298346  0.33752569000000004  0.4971684804312679  1.0000
  Al  Al6       1.0  0.10285759000000005  0.33182617000000003  0.5259159734214118  1.0000
  Al  Al7       1.0  0.49424173999999993  0.61365264  0.5387643518034587  1.0000
  Al  Al8       1.0  0.010479350000000038  0.6197917800000001  0.5116014387462136  1.0000
  Al  Al9       1.0  0.016305260000000005  0.610467  0.48270766712152097  1.0000
  Al  Al10      1.0  0.5163052599999999  0.610467  0.4537860439726219  1.0000
  Al  Al11      1.0  0.90277591  0.88340831  0.46824685728236887  1.0000
  Al  Al12      1.0  0.40277591  0.88340831  0.4393252306628749  1.0000
  Al  Al13      1.0  0.6298346  0.33752569000000004  0.4393252306628749  1.0000
  Al  Al14      1.0  0.12983460000000002  0.33752569000000004  0.46824685728236887  1.0000
  Al  Al15      1.0  0.5163052599999999  0.610467  0.48270766712152097  1.0000
  Al  Al16      1.0  0.016305260000000005  0.610467  0.4537860439726219  1.0000
  Ca  Ca1       1.0  0.49146823999999995  0.11016328000000002  0.5277515849552297  1.0000
  Ca  Ca2       1.0  0.016305260000000023  0.11046700000000001  0.4971684804312679  1.0000
  Ca  Ca3       1.0  0.51630526  0.11046700000000001  0.46824685728236887  1.0000
  Ca  Ca4       1.0  0.016305260000000023  0.11046700000000001  0.4393252306628749  1.0000
