data_image0
_chemical_formula_structural       COCa8Zn16
_chemical_formula_sum              "C1 O1 Ca8 Zn16"
_cell_length_a       8.813496377063888
_cell_length_b       5.854468263848358
_cell_length_c       102.97264024
_cell_angle_alpha    94.72494592569994
_cell_angle_beta     95.68486577708866
_cell_angle_gamma    72.50453657948724

_space_group_name_H-M_alt    "P 1"
_space_group_IT_number       1

loop_
  _space_group_symop_operation_xyz
  'x, y, z'

loop_
  _atom_site_type_symbol
  _atom_site_label
  _atom_site_symmetry_multiplicity
  _atom_site_fract_x
  _atom_site_fract_y
  _atom_site_fract_z
  _atom_site_occupancy
  C   C1        1.0  0.8826639500000001  0.93848581  0.5555714593372997  1.0000
  O   O1        1.0  0.8847954  0.9443719700000001  0.5668885467952323  1.0000
  Ca  Ca1       1.0  0.045045290000000016  0.5697577  0.4774758660877963  1.0000
  Ca  Ca2       1.0  0.62837862  0.40309104  0.45079188252271096  1.0000
  Ca  Ca3       1.0  0.45803711  0.73712575  0.50317864656755  1.0000
  Ca  Ca4       1.0  0.86562971  0.9244182300000001  0.5300288980209279  1.0000
  Ca  Ca5       1.0  0.9070893  0.3493302300000001  0.5063531480454246  1.0000
  Ca  Ca6       1.0  0.48630828000000004  0.18723173  0.48016272954598277  1.0000
  Ca  Ca7       1.0  0.32542331  0.5083456900000001  0.5326840641112529  1.0000
  Ca  Ca8       1.0  0.06964161  0.020565060000000003  0.45347874598089744  1.0000
  Zn  Zn1       1.0  0.85111746  0.14610161  0.4777246931472751  1.0000
  Zn  Zn2       1.0  0.4344508  0.9794349400000001  0.45104071278426766  1.0000
  Zn  Zn3       1.0  0.26783127  0.31410700999999996  0.5041414216953057  1.0000
  Zn  Zn4       1.0  0.6870421  0.5064049300000001  0.5295534246946942  1.0000
  Zn  Zn5       1.0  0.6802361100000001  0.6108878200000001  0.47991390248650384  1.0000
  Zn  Zn6       1.0  0.26356944  0.44422114999999995  0.4532299189214185  1.0000
  Zn  Zn7       1.0  0.09310815000000001  0.7673331700000001  0.5072167804412148  1.0000
  Zn  Zn8       1.0  0.50385709  0.94674555  0.5321163965618181  1.0000
  Zn  Zn9       1.0  0.37162138  0.7281172699999998  0.4711591785009185  1.0000
  Zn  Zn10      1.0  0.95495471  0.56145061  0.4444751981379109  1.0000
  Zn  Zn11      1.0  0.7882880500000001  0.8947839399999999  0.49784316206600376  1.0000
  Zn  Zn12      1.0  0.20103971  0.05539285000000002  0.5239107616704365  1.0000
  Zn  Zn13      1.0  0.15973219  0.028872150000000023  0.48647941393078276  1.0000
  Zn  Zn14      1.0  0.7430655200000001  0.86220549  0.45979543356777525  1.0000
  Zn  Zn15      1.0  0.57434269  0.20332898999999996  0.5129636871073284  1.0000
  Zn  Zn16      1.0  0.32639886  0.6955388200000001  0.4331114532047677  1.0000
