data_image0
_chemical_formula_structural       COPt18W6
_chemical_formula_sum              "C1 O1 Pt18 W6"
_cell_length_a       4.906855884961608
_cell_length_b       7.418823300111856
_cell_length_c       101.03605428
_cell_angle_alpha    85.7177577992402
_cell_angle_beta     89.35591438341942
_cell_angle_gamma    88.6526639992811

_space_group_name_H-M_alt    "P 1"
_space_group_IT_number       1

loop_
  _space_group_symop_operation_xyz
  'x, y, z'

loop_
  _atom_site_type_symbol
  _atom_site_label
  _atom_site_symmetry_multiplicity
  _atom_site_fract_x
  _atom_site_fract_y
  _atom_site_fract_z
  _atom_site_occupancy
  C   C1        1.0  0.10618244499999997  0.13644419  0.548647439234927  1.0000
  O   O1        1.0  0.13762555499999996  0.10625324  0.5602569280869777  1.0000
  Pt  Pt1       1.0  0.239687195  0.56944444  0.4525421536927061  1.0000
  Pt  Pt2       1.0  0.5730205249999999  0.125  0.46960760016132497  1.0000
  Pt  Pt3       1.0  0.906353855  0.68055556  0.4866730466299437  1.0000
  Pt  Pt4       1.0  0.5730205249999999  0.29166667  0.44400943353017697  1.0000
  Pt  Pt5       1.0  0.906353855  0.84722222  0.46107487692701554  1.0000
  Pt  Pt6       1.0  0.23968719499999996  0.40277778  0.4781403233956342  1.0000
  Pt  Pt7       1.0  0.07302052499999996  0.20833333  0.45680851530986083  1.0000
  Pt  Pt8       1.0  0.40635385499999993  0.7638888900000002  0.47387396177847957  1.0000
  Pt  Pt9       1.0  0.7396871949999999  0.65277778  0.43974307191302225  1.0000
  Pt  Pt10      1.0  0.239687195  0.23611111  0.5037384900267822  1.0000
  Pt  Pt11      1.0  0.585307335  0.79520564  0.5223965316156951  1.0000
  Pt  Pt12      1.0  0.926979475  0.33524141  0.5364393095862412  1.0000
  Pt  Pt13      1.0  0.5730205249999999  0.95833333  0.4952057667924729  1.0000
  Pt  Pt14      1.0  0.901697015  0.51521126  0.5117476467705555  1.0000
  Pt  Pt15      1.0  0.22512561499999997  0.042412099999999994  0.5310500802491898  1.0000
  Pt  Pt16      1.0  0.07551843499999997  0.88005409  0.5078587792839567  1.0000
  Pt  Pt17      1.0  0.423822365  0.43321992  0.5258245337875387  1.0000
  Pt  Pt18      1.0  0.7396871949999999  0.31944444  0.4909394051753182  1.0000
  W   W1        1.0  0.07302052499999996  0.04166667  0.482406685012789  1.0000
  W   W2        1.0  0.406353855  0.9305555600000001  0.4482757951473316  1.0000
  W   W3        1.0  0.7396871949999999  0.48611111  0.46534123854417025  1.0000
  W   W4        1.0  0.08292477499999996  0.69539887  0.5307644323441801  1.0000
  W   W5        1.0  0.40635385499999993  0.5972222200000001  0.49947212840962757  1.0000
  W   W6        1.0  0.7316143749999999  0.14942458000000003  0.5166780565984107  1.0000
