data_image0
_chemical_formula_structural       COPt12V6
_chemical_formula_sum              "C1 O1 Pt12 V6"
_cell_length_a       6.210333849336714
_cell_length_b       4.841608098584658
_cell_length_c       102.63408429
_cell_angle_alpha    92.50895876983255
_cell_angle_beta     95.43176429266354
_cell_angle_gamma    73.54265649304534

_space_group_name_H-M_alt    "P 1"
_space_group_IT_number       1

loop_
  _space_group_symop_operation_xyz
  'x, y, z'

loop_
  _atom_site_type_symbol
  _atom_site_label
  _atom_site_symmetry_multiplicity
  _atom_site_fract_x
  _atom_site_fract_y
  _atom_site_fract_z
  _atom_site_occupancy
  C   C1        1.0  0.6339784000000002  0.24411047000000005  0.5434604873007264  1.0000
  O   O1        1.0  0.58454492  0.40446589000000005  0.5524912792441673  1.0000
  Pt  Pt1       1.0  0.71006763  0.2210522400000001  0.48264585566859025  1.0000
  Pt  Pt2       1.0  0.3291152500000001  0.50676652  0.4675046469535714  1.0000
  Pt  Pt3       1.0  0.9481628699999999  0.7924808100000001  0.45236343823855263  1.0000
  Pt  Pt4       1.0  0.5276002200000001  0.9190045299999999  0.4626499262911978  1.0000
  Pt  Pt5       1.0  0.14664784000000003  0.20471882000000005  0.44750872075583265  1.0000
  Pt  Pt6       1.0  0.9085525999999999  0.6332902400000001  0.47779113500621656  1.0000
  Pt  Pt7       1.0  0.84857974  0.34040850000000006  0.5283044613996  1.0000
  Pt  Pt8       1.0  0.4614851600000001  0.65489453  0.5141290438703164  1.0000
  Pt  Pt9       1.0  0.09102001000000004  0.93533795  0.49778706120395544  1.0000
  Pt  Pt10      1.0  0.6635979500000001  0.06466205000000003  0.5079161945557216  1.0000
  Pt  Pt11      1.0  0.2895049800000001  0.3475759600000001  0.49293234372123534  1.0000
  Pt  Pt12      1.0  0.05183713000000004  0.75413947  0.5231219311623433  1.0000
  V   V1        1.0  0.73788154  0.3557426699999999  0.45750668385470206  1.0000
  V   V2        1.0  0.49978631  0.7843141000000001  0.48778909810508597  1.0000
  V   V3        1.0  0.11883392000000002  0.07002838000000004  0.4726478893900672  1.0000
  V   V4        1.0  0.88073869  0.4985998099999999  0.5029303068201048  1.0000
  V   V5        1.0  0.6741314999999999  0.9020594799999999  0.5309998156608078  1.0000
  V   V6        1.0  0.25279471000000003  0.22460675000000008  0.5174586659068884  1.0000
