data_image0
_chemical_formula_structural       COCa6Al24Ca6Al24
_chemical_formula_sum              "C1 O1 Ca12 Al48"
_cell_length_a       11.31722563
_cell_length_b       9.804988923189319
_cell_length_c       107.20731691
_cell_angle_alpha    71.56505119555686
_cell_angle_beta     90.0
_cell_angle_gamma    90.0

_space_group_name_H-M_alt    "P 1"
_space_group_IT_number       1

loop_
  _space_group_symop_operation_xyz
  'x, y, z'

loop_
  _atom_site_type_symbol
  _atom_site_label
  _atom_site_symmetry_multiplicity
  _atom_site_fract_x
  _atom_site_fract_y
  _atom_site_fract_z
  _atom_site_occupancy
  C   C1        1.0  0.5774714599999999  0.40864278  0.5542572836001831  1.0000
  O   O1        1.0  0.5804720600000001  0.4357291499999999  0.5640383779596173  1.0000
  Ca  Ca1       1.0  0.05676467000000002  0.68527315  0.4648832486598766  1.0000
  Ca  Ca2       1.0  0.05676467000000002  0.35193980999999996  0.44560216424688054  1.0000
  Ca  Ca3       1.0  0.05676467000000002  0.018606479999999967  0.4841643296022776  1.0000
  Ca  Ca4       1.0  0.55676467  0.68527315  0.43596162204038263  1.0000
  Ca  Ca5       1.0  0.55676467  0.35193980999999996  0.47452378739577966  1.0000
  Ca  Ca6       1.0  0.55676467  0.018606479999999967  0.45524270645337855  1.0000
  Al  Al1       1.0  0.80676467  0.51860648  0.4552427064533786  1.0000
  Al  Al2       1.0  0.80676467  0.18527314999999994  0.43596162204038263  1.0000
  Al  Al3       1.0  0.80676467  0.85193981  0.47452378739577966  1.0000
  Al  Al4       1.0  0.6702940199999999  0.68527315  0.4648832486598766  1.0000
  Al  Al5       1.0  0.6702940199999999  0.35193980999999996  0.44560216424688054  1.0000
  Al  Al6       1.0  0.6702940199999999  0.018606479999999967  0.4841643296022776  1.0000
  Al  Al7       1.0  0.94323533  0.68527315  0.43596162204038263  1.0000
  Al  Al8       1.0  0.94323533  0.35193980999999996  0.47452378739577966  1.0000
  Al  Al9       1.0  0.94323533  0.018606479999999967  0.45524270645337855  1.0000
  Al  Al10      1.0  0.80676467  0.85193981  0.44560216424688065  1.0000
  Al  Al11      1.0  0.80676467  0.51860648  0.4841643296022777  1.0000
  Al  Al12      1.0  0.80676467  0.18527314999999994  0.46488324865987657  1.0000
  Al  Al13      1.0  0.30676467  0.85193981  0.44560216424688065  1.0000
  Al  Al14      1.0  0.30676467  0.51860648  0.4841643296022777  1.0000
  Al  Al15      1.0  0.30676467  0.18527314999999994  0.46488324865987657  1.0000
  Al  Al16      1.0  0.17029402000000002  0.68527315  0.43596162204038263  1.0000
  Al  Al17      1.0  0.17029402000000002  0.35193980999999996  0.47452378739577966  1.0000
  Al  Al18      1.0  0.17029402000000002  0.018606479999999967  0.45524270645337855  1.0000
  Al  Al19      1.0  0.44323533000000004  0.68527315  0.4648832486598766  1.0000
  Al  Al20      1.0  0.44323533000000004  0.35193980999999996  0.44560216424688054  1.0000
  Al  Al21      1.0  0.44323533000000004  0.018606479999999967  0.4841643296022776  1.0000
  Al  Al22      1.0  0.30676467  0.51860648  0.4552427064533786  1.0000
  Al  Al23      1.0  0.30676467  0.18527314999999994  0.43596162204038263  1.0000
  Al  Al24      1.0  0.30676467  0.85193981  0.47452378739577966  1.0000
  Ca  Ca7       1.0  0.05719456000000001  0.68454729  0.5218865623995065  1.0000
  Ca  Ca8       1.0  0.05676467000000002  0.35193980999999996  0.5034454140152735  1.0000
  Ca  Ca9       1.0  0.05686405000000002  0.022597829999999965  0.539563971666372  1.0000
  Ca  Ca10      1.0  0.55676467  0.68527315  0.49380487180877564  1.0000
  Ca  Ca11      1.0  0.55931761  0.3521192199999999  0.5321413964356639  1.0000
  Ca  Ca12      1.0  0.55676467  0.018606479999999967  0.5130859527511767  1.0000
  Al  Al25      1.0  0.80676467  0.51860648  0.5130859527511767  1.0000
  Al  Al26      1.0  0.80676467  0.18527314999999994  0.49380487180877564  1.0000
  Al  Al27      1.0  0.8299306900000001  0.82755821  0.533530449992146  1.0000
  Al  Al28      1.0  0.66994433  0.6885170599999999  0.5230207979360152  1.0000
  Al  Al29      1.0  0.6702940199999999  0.35193980999999996  0.5034454140152735  1.0000
  Al  Al30      1.0  0.67246282  0.9813935199999999  0.5411477221270856  1.0000
  Al  Al31      1.0  0.94323533  0.68527315  0.49380487180877564  1.0000
  Al  Al32      1.0  0.9404454699999999  0.34278164  0.5336719044997605  1.0000
  Al  Al33      1.0  0.94323533  0.018606479999999967  0.5130859527511767  1.0000
  Al  Al34      1.0  0.80676467  0.85193981  0.5034454140152737  1.0000
  Al  Al35      1.0  0.8194113599999999  0.53266072  0.5396156037069477  1.0000
  Al  Al36      1.0  0.80315762  0.18144190999999998  0.5234198399983465  1.0000
  Al  Al37      1.0  0.30676467  0.85193981  0.5034454140152737  1.0000
  Al  Al38      1.0  0.29563487  0.53125533  0.5398391690196962  1.0000
  Al  Al39      1.0  0.3107625  0.18142244999999996  0.5234518562364531  1.0000
  Al  Al40      1.0  0.17029402000000002  0.68527315  0.49380487180877564  1.0000
  Al  Al41      1.0  0.17348972000000001  0.34269021  0.5337198681215092  1.0000
  Al  Al42      1.0  0.17029402000000002  0.018606479999999967  0.5130859527511767  1.0000
  Al  Al43      1.0  0.44370474000000004  0.68726557  0.5231573311400379  1.0000
  Al  Al44      1.0  0.44323533000000004  0.35193980999999996  0.5034454140152735  1.0000
  Al  Al45      1.0  0.44157715  0.9804588499999999  0.5410994496223894  1.0000
  Al  Al46      1.0  0.30676467  0.51860648  0.5130859527511767  1.0000
  Al  Al47      1.0  0.30676467  0.18527314999999994  0.49380487180877564  1.0000
  Al  Al48      1.0  0.2833618  0.8266767599999999  0.5335791354976375  1.0000
