data_image0
_chemical_formula_structural       COCa6Ge12Ca6Ge12
_chemical_formula_sum              "C1 O1 Ca12 Ge24"
_cell_length_a       8.197632626768765
_cell_length_b       13.173426975950656
_cell_length_c       114.38707786
_cell_angle_alpha    60.160009940469415
_cell_angle_beta     100.64277458596578
_cell_angle_gamma    71.87188851001139

_space_group_name_H-M_alt    "P 1"
_space_group_IT_number       1

loop_
  _space_group_symop_operation_xyz
  'x, y, z'

loop_
  _atom_site_type_symbol
  _atom_site_label
  _atom_site_symmetry_multiplicity
  _atom_site_fract_x
  _atom_site_fract_y
  _atom_site_fract_z
  _atom_site_occupancy
  C   C1        1.0  0.6323335499999999  0.58610344  0.5491319608371985  1.0000
  O   O1        1.0  0.5367027300000001  0.58229256  0.5557961568207738  1.0000
  Ca  Ca1       1.0  0.4108302600000002  0.6602266699999999  0.4885911158910197  1.0000
  Ca  Ca2       1.0  0.41083026000000006  0.9935599999999999  0.4562542201835322  1.0000
  Ca  Ca3       1.0  0.41495088000000013  0.31483168  0.5203866725405728  1.0000
  Ca  Ca4       1.0  0.24079787000000016  0.7182815699999999  0.5308198231194461  1.0000
  Ca  Ca5       1.0  0.24416360000000012  0.04911554999999998  0.4993700824203247  1.0000
  Ca  Ca6       1.0  0.24416360000000006  0.38244888999999993  0.4670331867128372  1.0000
  Ge  Ge1       1.0  0.40285870000000024  0.7610846499999999  0.5083645101256382  1.0000
  Ge  Ge2       1.0  0.4108302600000001  0.09811815999999998  0.4765407388867136  1.0000
  Ge  Ge3       1.0  0.41083026000000017  0.4314515  0.44420384317922623  1.0000
  Ge  Ge4       1.0  0.24416360000000006  0.48700705  0.4873197054160187  1.0000
  Ge  Ge5       1.0  0.24416360000000006  0.82034038  0.4549828058281036  1.0000
  Ge  Ge6       1.0  0.2560055700000001  0.13410555  0.5210205326347305  1.0000
  Ge  Ge7       1.0  0.0814802700000001  0.99968804  0.5241043395237516  1.0000
  Ge  Ge8       1.0  0.07749693000000007  0.34032138  0.49119644276944857  1.0000
  Ge  Ge9       1.0  0.07749693000000019  0.6736547099999999  0.4588595470619611  1.0000
  Ge  Ge10      1.0  0.07749693000000019  0.8403213799999999  0.4911964427694486  1.0000
  Ge  Ge11      1.0  0.07749693000000012  0.17365471  0.458859547061961  1.0000
  Ge  Ge12      1.0  0.1707544900000002  0.50565957  0.526873304035764  1.0000
  Ca  Ca7       1.0  0.91083026  0.6602266699999999  0.4885911158910197  1.0000
  Ca  Ca8       1.0  0.91083026  0.9935599999999999  0.4562542201835322  1.0000
  Ca  Ca9       1.0  0.91471914  0.3176688899999999  0.5206125173096553  1.0000
  Ca  Ca10      1.0  0.76883052  0.65465356  0.5303689872753622  1.0000
  Ca  Ca11      1.0  0.7441636000000001  0.04911554999999998  0.49937008242032466  1.0000
  Ca  Ca12      1.0  0.7441636  0.38244888999999993  0.4670331867128372  1.0000
  Ge  Ge13      1.0  0.9225030699999998  0.7583300199999999  0.508639139631012  1.0000
  Ge  Ge14      1.0  0.9108302600000001  0.09811815999999998  0.4765407388867137  1.0000
  Ge  Ge15      1.0  0.91083026  0.4314515  0.4442038431792262  1.0000
  Ge  Ge16      1.0  0.7441635999999999  0.48700705  0.4873197054160187  1.0000
  Ge  Ge17      1.0  0.7441635999999998  0.82034038  0.45498280582810363  1.0000
  Ge  Ge18      1.0  0.75782348  0.13501705999999997  0.5209804206542146  1.0000
  Ge  Ge19      1.0  0.5806586600000001  0.0003119599999999835  0.5234760284411193  1.0000
  Ge  Ge20      1.0  0.5774969300000001  0.34032138  0.4911964427694485  1.0000
  Ge  Ge21      1.0  0.57749693  0.6736547099999999  0.4588595470619611  1.0000
  Ge  Ge22      1.0  0.5774969299999999  0.8403213799999999  0.49119644276944857  1.0000
  Ge  Ge23      1.0  0.57749693  0.17365471  0.4588595470619611  1.0000
  Ge  Ge24      1.0  0.5102089900000002  0.5076315399999999  0.5264970888151995  1.0000
