data_image0
_chemical_formula_structural       COCa3Se3Ca3Se3Ca3Se3Ca3Se3
_chemical_formula_sum              "C1 O1 Ca12 Se12"
_cell_length_a       8.542042
_cell_length_b       8.54204200676051
_cell_length_c       101.38546642
_cell_angle_alpha    90.0
_cell_angle_beta     90.0
_cell_angle_gamma    119.9999999738194

_space_group_name_H-M_alt    "P 1"
_space_group_IT_number       1

loop_
  _space_group_symop_operation_xyz
  'x, y, z'

loop_
  _atom_site_type_symbol
  _atom_site_label
  _atom_site_symmetry_multiplicity
  _atom_site_fract_x
  _atom_site_fract_y
  _atom_site_fract_z
  _atom_site_occupancy
  C   C1        1.0  0.4166020249999999  0.250245745  0.5455709087030478  1.0000
  O   O1        1.0  0.4161827149999999  0.25038113500000003  0.5574153952166288  1.0000
  Ca  Ca1       1.0  0.2500000049999999  0.41666666500000005  0.45978270254228565  1.0000
  Ca  Ca2       1.0  0.10997312499999998  0.09684490500000002  0.529340346265919  1.0000
  Ca  Ca3       1.0  0.41666666499999994  0.250000005  0.4941788949644571  1.0000
  Se  Se1       1.0  0.08333333499999997  0.08333333500000002  0.47698079720554276  1.0000
  Se  Se2       1.0  0.41666666499999994  0.250000005  0.44258460478337125  1.0000
  Se  Se3       1.0  0.24975043499999997  0.4169037850000001  0.5128301933440048  1.0000
  Ca  Ca4       1.0  0.25000000499999986  0.9166666649999999  0.45978270254228565  1.0000
  Ca  Ca5       1.0  0.08335736499999993  0.583012915  0.5288757097674427  1.0000
  Ca  Ca6       1.0  0.41666666499999994  0.750000005  0.4941788949644571  1.0000
  Se  Se4       1.0  0.08333333499999997  0.583333335  0.47698079720554276  1.0000
  Se  Se5       1.0  0.41666666499999994  0.750000005  0.44258460478337125  1.0000
  Se  Se6       1.0  0.24982107499999998  0.9162801949999999  0.5128705761941219  1.0000
  Ca  Ca7       1.0  0.7500000049999999  0.41666666500000005  0.45978270254228565  1.0000
  Ca  Ca8       1.0  0.570169665  0.09680691500000002  0.5293541312280938  1.0000
  Ca  Ca9       1.0  0.9166666649999998  0.250000005  0.4941788949644571  1.0000
  Se  Se7       1.0  0.583333335  0.08333333500000002  0.47698079720554276  1.0000
  Se  Se8       1.0  0.9166666649999998  0.250000005  0.44258460478337125  1.0000
  Se  Se9       1.0  0.7505390849999999  0.416930215  0.5128440587932708  1.0000
  Ca  Ca10      1.0  0.7500000049999999  0.9166666649999999  0.45978270254228565  1.0000
  Ca  Ca11      1.0  0.5698919049999999  0.556571575  0.5293352198573491  1.0000
  Ca  Ca12      1.0  0.9166666649999999  0.750000005  0.4941788949644571  1.0000
  Se  Se10      1.0  0.583333335  0.583333335  0.47698079720554276  1.0000
  Se  Se11      1.0  0.9166666649999999  0.750000005  0.44258460478337125  1.0000
  Se  Se12      1.0  0.7500009749999998  0.9166329150000001  0.5172298127684545  1.0000
