data_image0
_chemical_formula_structural       COCa2Al16Cu8
_chemical_formula_sum              "C1 O1 Ca2 Al16 Cu8"
_cell_length_a       8.95226806
_cell_length_b       5.17295326
_cell_length_c       105.80907223
_cell_angle_alpha    90.0
_cell_angle_beta     90.0
_cell_angle_gamma    90.0

_space_group_name_H-M_alt    "P 1"
_space_group_IT_number       1

loop_
  _space_group_symop_operation_xyz
  'x, y, z'

loop_
  _atom_site_type_symbol
  _atom_site_label
  _atom_site_symmetry_multiplicity
  _atom_site_fract_x
  _atom_site_fract_y
  _atom_site_fract_z
  _atom_site_occupancy
  C   C1        1.0  0.955790215  0.20058093  0.54065330710017  1.0000
  O   O1        1.0  0.910521605  0.23979227  0.5506813295764933  1.0000
  Ca  Ca1       1.0  0.04420978500000004  0.12803039  0.5170861113865234  1.0000
  Ca  Ca2       1.0  0.546831095  0.625  0.4730100330940463  1.0000
  Al  Al1       1.0  0.046831095000000045  0.125  0.4602087545466626  1.0000
  Al  Al2       1.0  0.19813260500000004  0.625  0.4730100330940463  1.0000
  Al  Al3       1.0  0.895529585  0.625  0.4730100330940463  1.0000
  Al  Al4       1.0  0.046831095000000045  0.125  0.48581131502574026  1.0000
  Al  Al5       1.0  0.046831095000000045  0.625  0.49670139914889616  1.0000
  Al  Al6       1.0  0.7668169950000001  0.125  0.4730100330940463  1.0000
  Al  Al7       1.0  0.3268451950000001  0.125  0.4730100330940463  1.0000
  Al  Al8       1.0  0.046831095000000045  0.625  0.44931867042350676  1.0000
  Al  Al9       1.0  0.5458271550000001  0.62463375  0.5028952113812384  1.0000
  Al  Al10      1.0  0.693870465  0.12910850000000001  0.5154383448995691  1.0000
  Al  Al11      1.0  0.39658098500000005  0.12971063  0.5154576286990834  1.0000
  Al  Al12      1.0  0.5451814650000001  0.71938737  0.5292814055025958  1.0000
  Al  Al13      1.0  0.546831095  0.125  0.45439752166077196  1.0000
  Al  Al14      1.0  0.2731970550000001  0.62386092  0.5165435624655831  1.0000
  Al  Al15      1.0  0.8178224150000002  0.62475945  0.5165070863702578  1.0000
  Al  Al16      1.0  0.546831095  0.125  0.4916225479116309  1.0000
  Cu  Cu1       1.0  0.796831095  0.375  0.45185809434998425  1.0000
  Cu  Cu2       1.0  0.796831095  0.375  0.4941619718381084  1.0000
  Cu  Cu3       1.0  0.796831095  0.875  0.4941619718381084  1.0000
  Cu  Cu4       1.0  0.796831095  0.875  0.45185809434998425  1.0000
  Cu  Cu5       1.0  0.2968310950000001  0.875  0.4941619718381084  1.0000
  Cu  Cu6       1.0  0.2968310950000001  0.875  0.45185809434998425  1.0000
  Cu  Cu7       1.0  0.2968310950000001  0.375  0.45185809434998425  1.0000
  Cu  Cu8       1.0  0.2968310950000001  0.375  0.4941619718381084  1.0000
