data_image0
_chemical_formula_structural       COAl12Ca18Si12
_chemical_formula_sum              "C1 O1 Al12 Ca18 Si12"
_cell_length_a       10.031737823902082
_cell_length_b       9.851046396174365
_cell_length_c       104.17119866
_cell_angle_alpha    86.98704000223348
_cell_angle_beta     81.90919671443679
_cell_angle_gamma    107.31344472009961

_space_group_name_H-M_alt    "P 1"
_space_group_IT_number       1

loop_
  _space_group_symop_operation_xyz
  'x, y, z'

loop_
  _atom_site_type_symbol
  _atom_site_label
  _atom_site_symmetry_multiplicity
  _atom_site_fract_x
  _atom_site_fract_y
  _atom_site_fract_z
  _atom_site_occupancy
  C   C1        1.0  0.36272195499999993  0.32668899999999995  0.5547719353350151  1.0000
  O   O1        1.0  0.4284821949999999  0.3387870199999999  0.5631707696390186  1.0000
  Al  Al1       1.0  0.19688585499999994  0.8069029199999999  0.5207533649584527  1.0000
  Al  Al2       1.0  0.8197145949999999  0.8071157899999999  0.5027618503492205  1.0000
  Al  Al3       1.0  0.877898385  0.8103758599999998  0.530986732284752  1.0000
  Al  Al4       1.0  0.10286134499999995  0.5275823199999999  0.523179164117195  1.0000
  Al  Al5       1.0  0.735840955  0.5326202299999999  0.505263030626286  1.0000
  Al  Al6       1.0  0.794393445  0.52207255  0.5329021245136045  1.0000
  Al  Al7       1.0  0.04193681499999995  0.8071157900000001  0.46631415787775976  1.0000
  Al  Al8       1.0  0.6530479249999999  0.80711579  0.44809031000188326  1.0000
  Al  Al9       1.0  0.4308257049999999  0.80711579  0.48453800247334394  1.0000
  Al  Al10      1.0  0.958063175  0.5326202299999999  0.4688153381548253  1.0000
  Al  Al11      1.0  0.5691742849999999  0.5326202299999999  0.4505914935592412  1.0000
  Al  Al12      1.0  0.3469520649999999  0.5326202299999999  0.4870391860307019  1.0000
  Ca  Ca1       1.0  0.03357127499999995  0.6649564599999999  0.549372515073037  1.0000
  Ca  Ca2       1.0  0.47222221499999995  0.66986801  0.5131243627855453  1.0000
  Ca  Ca3       1.0  0.08333332499999996  0.66986801  0.4949005181899611  1.0000
  Ca  Ca4       1.0  0.21199140499999997  0.2873220799999999  0.5356068534918971  1.0000
  Ca  Ca5       1.0  0.846651275  0.27176486  0.5164996819300185  1.0000
  Ca  Ca6       1.0  0.46932756499999995  0.29675823999999995  0.4983002656716037  1.0000
  Ca  Ca7       1.0  0.08622798499999995  0.04297777999999996  0.5097246153039027  1.0000
  Ca  Ca8       1.0  0.697339095  0.042977779999999945  0.49150077070831855  1.0000
  Ca  Ca9       1.0  0.46266473499999994  0.04155380999999995  0.5277827887340858  1.0000
  Ca  Ca10      1.0  0.694444445  0.66986801  0.47667667031408467  1.0000
  Ca  Ca11      1.0  0.3055555549999999  0.66986801  0.4584528257185005  1.0000
  Ca  Ca12      1.0  0.916666665  0.66986801  0.44022897784262405  1.0000
  Ca  Ca13      1.0  0.08043867499999996  0.29675823999999995  0.48007641779572724  1.0000
  Ca  Ca14      1.0  0.691549785  0.29675823999999995  0.4618525732001431  1.0000
  Ca  Ca15      1.0  0.30266089499999993  0.29675823999999995  0.4436287253242666  1.0000
  Ca  Ca16      1.0  0.9195613149999999  0.0429777799999999  0.4550530782368579  1.0000
  Ca  Ca17      1.0  0.5306724249999999  0.042977779999999945  0.43682923036098137  1.0000
  Ca  Ca18      1.0  0.3084502049999999  0.04297777999999994  0.473276922832442  1.0000
  Si  Si1       1.0  0.12242233499999997  0.95713621  0.5372715100139926  1.0000
  Si  Si2       1.0  0.731085905  0.9374204499999997  0.5201724153414636  1.0000
  Si  Si3       1.0  0.36595444499999996  0.9584461899999999  0.5013829368138971  1.0000
  Si  Si4       1.0  0.18960110499999996  0.38128982999999994  0.5066419441616095  1.0000
  Si  Si5       1.0  0.9371703349999999  0.3761245499999999  0.5420575090449573  1.0000
  Si  Si6       1.0  0.565817795  0.38725683999999994  0.525007740128574  1.0000
  Si  Si7       1.0  0.977065555  0.9584461900000001  0.48315909221831294  1.0000
  Si  Si8       1.0  0.5881766649999999  0.9584461900000001  0.4649352443424364  1.0000
  Si  Si9       1.0  0.19928777499999994  0.9584461900000001  0.4467113997468523  1.0000
  Si  Si10      1.0  0.02293444499999995  0.38128983  0.4519704038142723  1.0000
  Si  Si11      1.0  0.8007122149999999  0.38128982999999994  0.48841809628573285  1.0000
  Si  Si12      1.0  0.41182333499999996  0.38128982999999994  0.4701942484098564  1.0000
