data_image0
_chemical_formula_structural       COCr12Nb6
_chemical_formula_sum              "C1 O1 Cr12 Nb6"
_cell_length_a       4.932273720053368
_cell_length_b       4.93227372
_cell_length_c       106.24466164
_cell_angle_alpha    90.0
_cell_angle_beta     90.0
_cell_angle_gamma    119.99999999964207

_space_group_name_H-M_alt    "P 1"
_space_group_IT_number       1

loop_
  _space_group_symop_operation_xyz
  'x, y, z'

loop_
  _atom_site_type_symbol
  _atom_site_label
  _atom_site_symmetry_multiplicity
  _atom_site_fract_x
  _atom_site_fract_y
  _atom_site_fract_z
  _atom_site_occupancy
  C   C1        1.0  0.6156238849999999  0.13520534999999986  0.5550660370235081  1.0000
  O   O1        1.0  0.570543355  0.9085900399999999  0.5616433289070255  1.0000
  Cr  Cr1       1.0  0.9239876149999999  0.5914099599999999  0.45257097579362915  1.0000
  Cr  Cr2       1.0  0.2573209549999999  0.25807661999999987  0.49047579401443125  1.0000
  Cr  Cr3       1.0  0.5832425149999999  0.9227882799999997  0.5283371130444563  1.0000
  Cr  Cr4       1.0  0.42398761499999993  0.5914099599999999  0.45257097579362915  1.0000
  Cr  Cr5       1.0  0.7573209549999999  0.2580766199999999  0.49047579401443125  1.0000
  Cr  Cr6       1.0  0.08325878499999995  0.9275862099999999  0.5287796271634774  1.0000
  Cr  Cr7       1.0  0.42398761499999993  0.09140995999999957  0.45257097579362915  1.0000
  Cr  Cr8       1.0  0.7573209549999999  0.75807662  0.49047579401443125  1.0000
  Cr  Cr9       1.0  0.07601238499999996  0.4139087299999999  0.5282683283072876  1.0000
  Cr  Cr10      1.0  0.590654285  0.42474328999999983  0.471523386609747  1.0000
  Cr  Cr11      1.0  0.9239876149999999  0.09140995999999979  0.5094282048305491  1.0000
  Cr  Cr12      1.0  0.25440162499999996  0.7590561399999999  0.5456349682943896  1.0000
  Nb  Nb1       1.0  0.2573209549999999  0.75807662  0.5046901021265197  1.0000
  Nb  Nb2       1.0  0.5848166949999999  0.42851323999999985  0.5417993364887775  1.0000
  Nb  Nb3       1.0  0.9239876149999999  0.09140995999999979  0.4667852839057176  1.0000
  Nb  Nb4       1.0  0.9239876149999999  0.09140995999999979  0.4383566710929745  1.0000
  Nb  Nb5       1.0  0.2573209549999999  0.75807662  0.47626148931377654  1.0000
  Nb  Nb6       1.0  0.590654285  0.42474328999999983  0.5141663075345786  1.0000
