data_image0
_chemical_formula_structural       COGa26Nb10Ga26Nb10
_chemical_formula_sum              "C1 O1 Ga52 Nb20"
_cell_length_a       20.633695884820597
_cell_length_b       7.6649775
_cell_length_c       100.5389452
_cell_angle_alpha    90.0
_cell_angle_beta     90.0
_cell_angle_gamma    95.32871833157355

_space_group_name_H-M_alt    "P 1"
_space_group_IT_number       1

loop_
  _space_group_symop_operation_xyz
  'x, y, z'

loop_
  _atom_site_type_symbol
  _atom_site_label
  _atom_site_symmetry_multiplicity
  _atom_site_fract_x
  _atom_site_fract_y
  _atom_site_fract_z
  _atom_site_occupancy
  C   C1        1.0  0.369123905  0.33415468  0.5330177742557518  1.0000
  O   O1        1.0  0.360162565  0.32568114  0.5445401686953312  1.0000
  Ga  Ga1       1.0  0.285534905  0.07339175999999999  0.5134043971853441  1.0000
  Ga  Ga2       1.0  0.047959485  0.010807979999999983  0.5140248084106407  1.0000
  Ga  Ga3       1.0  0.484200145  0.12320469999999997  0.5129860602770533  1.0000
  Ga  Ga4       1.0  0.8511308250000003  0.46667055  0.513012629498874  1.0000
  Ga  Ga5       1.0  0.715945955  0.18162806  0.5108060384646498  1.0000
  Ga  Ga6       1.0  0.13545647500000002  0.28633819  0.5139871188137101  1.0000
  Ga  Ga7       1.0  0.269657775  0.32103610000000005  0.4952507964030172  1.0000
  Ga  Ga8       1.0  0.057596085  0.26749987000000003  0.4931155902186854  1.0000
  Ga  Ga9       1.0  0.49632425500000005  0.37739377999999996  0.4941415503765251  1.0000
  Ga  Ga10      1.0  0.8391509050000002  0.21217534  0.49435612714202887  1.0000
  Ga  Ga11      1.0  0.9498590950000001  0.49178778999999995  0.4928088124517928  1.0000
  Ga  Ga12      1.0  0.38534108499999997  0.10198333999999999  0.4928823934314871  1.0000
  Ga  Ga13      1.0  0.620984685  0.40860007  0.5107108455021894  1.0000
  Ga  Ga14      1.0  0.277714165  0.07256723999999999  0.474444355870777  1.0000
  Ga  Ga15      1.0  0.058284024999999996  0.017709699999999984  0.474444355870777  1.0000
  Ga  Ga16      1.0  0.49668694500000005  0.12731044  0.474444355870777  1.0000
  Ga  Ga17      1.0  0.8393112450000002  0.46296651  0.474444355870777  1.0000
  Ga  Ga18      1.0  0.711641865  0.18104915999999993  0.474444355870777  1.0000
  Ga  Ga19      1.0  0.16799909500000001  0.29513847000000004  0.474444355870777  1.0000
  Ga  Ga20      1.0  0.27722030500000006  0.32244377  0.4554598313046688  1.0000
  Ga  Ga21      1.0  0.058777885  0.26783316999999995  0.4554598313046688  1.0000
  Ga  Ga22      1.0  0.49790886500000003  0.37761592  0.4554598313046688  1.0000
  Ga  Ga23      1.0  0.8380893250000001  0.21266103  0.4554598313046688  1.0000
  Ga  Ga24      1.0  0.9442132750000001  0.48919202  0.4554598313046688  1.0000
  Ga  Ga25      1.0  0.39178491500000007  0.10108491999999998  0.4554598313046688  1.0000
  Ga  Ga26      1.0  0.6243563249999999  0.40922778  0.474444355870777  1.0000
  Nb  Nb1       1.0  0.9508252850000002  0.24077304000000002  0.5109811183064843  1.0000
  Nb  Nb2       1.0  0.382948565  0.34741131  0.5120470279790589  1.0000
  Nb  Nb3       1.0  0.599942075  0.15325282  0.4932591587872641  1.0000
  Nb  Nb4       1.0  0.736115385  0.43758379  0.49318987894145555  1.0000
  Nb  Nb5       1.0  0.167713525  0.04481636999999997  0.4941443570486369  1.0000
  Nb  Nb6       1.0  0.9520405150000001  0.24114882  0.474444355870777  1.0000
  Nb  Nb7       1.0  0.383957675  0.34912811999999993  0.474444355870777  1.0000
  Nb  Nb8       1.0  0.600168155  0.15318074  0.4554598313046688  1.0000
  Nb  Nb9       1.0  0.735830035  0.4370962  0.4554598313046688  1.0000
  Nb  Nb10      1.0  0.16799909500000001  0.045138469999999986  0.4554598313046688  1.0000
  Ga  Ga27      1.0  0.286327165  0.5753677  0.5136016175391087  1.0000
  Ga  Ga28      1.0  0.048307405  0.51957689  0.5140019176302998  1.0000
  Ga  Ga29      1.0  0.483788595  0.6242203800000001  0.5130835161948418  1.0000
  Ga  Ga30      1.0  0.851309025  0.96476185  0.5131419399301226  1.0000
  Ga  Ga31      1.0  0.715694945  0.6828704299999999  0.510795085153356  1.0000
  Ga  Ga32      1.0  0.196007035  0.8011617900000001  0.5140233230614386  1.0000
  Ga  Ga33      1.0  0.27744952500000003  0.8223944900000001  0.4930742009176074  1.0000
  Ga  Ga34      1.0  0.06544782499999999  0.7689915500000001  0.49522798459829853  1.0000
  Ga  Ga35      1.0  0.496179935  0.8770037199999998  0.49415295627888445  1.0000
  Ga  Ga36      1.0  0.8389442550000002  0.7133915200000001  0.49412259318967433  1.0000
  Ga  Ga37      1.0  0.9498833850000001  0.9891521099999999  0.4928105651031008  1.0000
  Ga  Ga38      1.0  0.38547314499999996  0.5970454599999999  0.49289577676192525  1.0000
  Ga  Ga39      1.0  0.6182321749999999  0.90806299  0.5109541633191242  1.0000
  Ga  Ga40      1.0  0.277714165  0.5725672399999999  0.474444355870777  1.0000
  Ga  Ga41      1.0  0.058284024999999996  0.5177096999999999  0.474444355870777  1.0000
  Ga  Ga42      1.0  0.49668694500000005  0.6273104400000001  0.474444355870777  1.0000
  Ga  Ga43      1.0  0.8393112450000002  0.9629665100000001  0.474444355870777  1.0000
  Ga  Ga44      1.0  0.711641865  0.6810491599999999  0.474444355870777  1.0000
  Ga  Ga45      1.0  0.16799909500000001  0.7951384699999999  0.474444355870777  1.0000
  Ga  Ga46      1.0  0.27722030500000006  0.82244377  0.4554598313046688  1.0000
  Ga  Ga47      1.0  0.058777885  0.76783317  0.4554598313046688  1.0000
  Ga  Ga48      1.0  0.49790886500000003  0.8776159200000001  0.4554598313046688  1.0000
  Ga  Ga49      1.0  0.8380893250000001  0.7126610299999999  0.4554598313046688  1.0000
  Ga  Ga50      1.0  0.9442132750000001  0.9891920200000001  0.4554598313046688  1.0000
  Ga  Ga51      1.0  0.39178491500000007  0.6010849200000001  0.4554598313046688  1.0000
  Ga  Ga52      1.0  0.6243563249999999  0.9092277799999999  0.474444355870777  1.0000
  Nb  Nb11      1.0  0.9512277250000001  0.7406905600000001  0.5111388994495342  1.0000
  Nb  Nb12      1.0  0.38446449499999996  0.84976101  0.5108675240240524  1.0000
  Nb  Nb13      1.0  0.599883975  0.6530383300000001  0.49321879920679856  1.0000
  Nb  Nb14      1.0  0.735332445  0.9368239299999999  0.4932194644245394  1.0000
  Nb  Nb15      1.0  0.16765242500000002  0.5447774900000001  0.49413452458367363  1.0000
  Nb  Nb16      1.0  0.9520405150000001  0.74114882  0.474444355870777  1.0000
  Nb  Nb17      1.0  0.383957675  0.8491281199999999  0.474444355870777  1.0000
  Nb  Nb18      1.0  0.600168155  0.65318074  0.4554598313046688  1.0000
  Nb  Nb19      1.0  0.735830035  0.9370962  0.4554598313046688  1.0000
  Nb  Nb20      1.0  0.16799909500000001  0.54513847  0.4554598313046688  1.0000
