data_image0
_chemical_formula_structural       CONb4Au8Nb4Au8
_chemical_formula_sum              "C1 O1 Nb8 Au16"
_cell_length_a       8.18830483
_cell_length_b       5.48630144438769
_cell_length_c       108.40411012
_cell_angle_alpha    119.01492746279816
_cell_angle_beta     90.0
_cell_angle_gamma    90.0

_space_group_name_H-M_alt    "P 1"
_space_group_IT_number       1

loop_
  _space_group_symop_operation_xyz
  'x, y, z'

loop_
  _atom_site_type_symbol
  _atom_site_label
  _atom_site_symmetry_multiplicity
  _atom_site_fract_x
  _atom_site_fract_y
  _atom_site_fract_z
  _atom_site_occupancy
  C   C1        1.0  0.08333334  0.21352498  0.5482217202403236  1.0000
  O   O1        1.0  0.08333339000000001  0.30644510999999997  0.5604636325610256  1.0000
  Nb  Nb1       1.0  0.08333336000000001  0.60987812  0.4521887984630316  1.0000
  Nb  Nb2       1.0  0.08333336000000001  0.10987812000000001  0.4774936569684661  1.0000
  Nb  Nb3       1.0  0.58333336  0.35987811999999997  0.46484122594440874  1.0000
  Nb  Nb4       1.0  0.58333336  0.8598781199999999  0.43953636743897434  1.0000
  Au  Au1       1.0  0.25000003  0.60987812  0.477493656968466  1.0000
  Au  Au2       1.0  0.25000003  0.10987812000000001  0.45218879846303167  1.0000
  Au  Au3       1.0  0.75000003  0.35987811999999997  0.43953636743897434  1.0000
  Au  Au4       1.0  0.75000003  0.8598781199999999  0.46484122594440874  1.0000
  Au  Au5       1.0  0.41666668999999995  0.35987811999999997  0.43953636743897434  1.0000
  Au  Au6       1.0  0.41666668999999995  0.8598781199999999  0.46484122594440874  1.0000
  Au  Au7       1.0  0.91666669  0.10987812000000001  0.45218879846303167  1.0000
  Au  Au8       1.0  0.91666669  0.60987812  0.477493656968466  1.0000
  Nb  Nb5       1.0  0.08333331000000001  0.60954011  0.5034564833081691  1.0000
  Nb  Nb6       1.0  0.08333342  0.09272933000000001  0.5261577198089351  1.0000
  Nb  Nb7       1.0  0.58333338  0.34358979  0.5137674719229991  1.0000
  Nb  Nb8       1.0  0.58333336  0.8598781199999999  0.49014608444984314  1.0000
  Au  Au9       1.0  0.25494857  0.61190726  0.528180537098113  1.0000
  Au  Au10      1.0  0.2500818  0.11118047  0.5026760839867394  1.0000
  Au  Au11      1.0  0.75000003  0.35987811999999997  0.49014608444984314  1.0000
  Au  Au12      1.0  0.74823249  0.9072706700000001  0.5174413340920209  1.0000
  Au  Au13      1.0  0.41666668999999995  0.35987811999999997  0.49014608444984314  1.0000
  Au  Au14      1.0  0.41843453  0.9072704899999999  0.5174413057505788  1.0000
  Au  Au15      1.0  0.91658491  0.11118045  0.5026760804440591  1.0000
  Au  Au16      1.0  0.91171771  0.6119065499999999  0.5281805654395552  1.0000
