data_image0
_chemical_formula_structural       COCa20Au8
_chemical_formula_sum              "C1 O1 Ca20 Au8"
_cell_length_a       6.97454226
_cell_length_b       7.9389517094245665
_cell_length_c       121.30069994
_cell_angle_alpha    97.72423365982459
_cell_angle_beta     90.0
_cell_angle_gamma    90.0

_space_group_name_H-M_alt    "P 1"
_space_group_IT_number       1

loop_
  _space_group_symop_operation_xyz
  'x, y, z'

loop_
  _atom_site_type_symbol
  _atom_site_label
  _atom_site_symmetry_multiplicity
  _atom_site_fract_x
  _atom_site_fract_y
  _atom_site_fract_z
  _atom_site_occupancy
  C   C1        1.0  0.57546187  0.87156129  0.5683847367952563  1.0000
  O   O1        1.0  0.5803321300000001  0.9218994899999999  0.5779996505044337  1.0000
  Ca  Ca1       1.0  0.07996177999999998  0.8160158000000001  0.5077823558590334  1.0000
  Ca  Ca2       1.0  0.57996178  0.6822105999999999  0.5166212378273598  1.0000
  Ca  Ca3       1.0  0.4200382200000001  0.1822106  0.5166212378273598  1.0000
  Ca  Ca4       1.0  0.9200382200000001  0.31601579999999996  0.5077823558590334  1.0000
  Ca  Ca5       1.0  0.41805323000000005  0.24259574  0.5475906699790499  1.0000
  Ca  Ca6       1.0  0.08025863  0.7491132  0.47695831996343335  1.0000
  Ca  Ca7       1.0  0.39132164  0.42012589000000006  0.48980072267080094  1.0000
  Ca  Ca8       1.0  0.8913216400000001  0.07810051000000001  0.5346028752448095  1.0000
  Ca  Ca9       1.0  0.10867836  0.5781005100000001  0.5346028752448095  1.0000
  Ca  Ca10      1.0  0.6086783600000001  0.9201258899999999  0.48980072267080094  1.0000
  Ca  Ca11      1.0  0.57996178  0.8160158000000001  0.4372954020995068  1.0000
  Ca  Ca12      1.0  0.07996177999999998  0.6822105999999999  0.44613428829705026  1.0000
  Ca  Ca13      1.0  0.9200382200000001  0.1822106  0.44613428829705026  1.0000
  Ca  Ca14      1.0  0.4200382200000001  0.31601579999999996  0.4372954020995068  1.0000
  Ca  Ca15      1.0  0.9197413700000001  0.2491132  0.4769583199634333  1.0000
  Ca  Ca16      1.0  0.58067924  0.74832191  0.5479343446223609  1.0000
  Ca  Ca17      1.0  0.9123678300000001  0.42090006999999996  0.5592584076255084  1.0000
  Ca  Ca18      1.0  0.39132164  0.07810051000000001  0.46411592148528275  1.0000
  Ca  Ca19      1.0  0.6086783600000001  0.5781005100000001  0.46411592148528275  1.0000
  Ca  Ca20      1.0  0.08943241000000002  0.9109300100000001  0.5595158231560118  1.0000
  Au  Au1       1.0  0.7933790500000001  0.5804681  0.49248730325509316  1.0000
  Au  Au2       1.0  0.29337905  0.9177582999999999  0.5319162946605173  1.0000
  Au  Au3       1.0  0.7066209500000001  0.41775829999999997  0.5319162946605173  1.0000
  Au  Au4       1.0  0.20662095000000003  0.08046810000000001  0.49248730325509316  1.0000
  Au  Au5       1.0  0.29337905  0.5804681  0.4220003494955665  1.0000
  Au  Au6       1.0  0.7933790500000001  0.9177582999999999  0.46142934090099064  1.0000
  Au  Au7       1.0  0.20662095000000003  0.41775829999999997  0.46142934090099064  1.0000
  Au  Au8       1.0  0.7066209500000001  0.08046810000000001  0.4220003494955665  1.0000
