data_image0
_chemical_formula_structural       COMn40Ge16
_chemical_formula_sum              "C1 O1 Mn40 Ge16"
_cell_length_a       7.849847428400418
_cell_length_b       12.41135190902242
_cell_length_c       101.39938971000001
_cell_angle_alpha    106.19833958891388
_cell_angle_beta     83.2310810053027
_cell_angle_gamma    73.80166039151541

_space_group_name_H-M_alt    "P 1"
_space_group_IT_number       1

loop_
  _space_group_symop_operation_xyz
  'x, y, z'

loop_
  _atom_site_type_symbol
  _atom_site_label
  _atom_site_symmetry_multiplicity
  _atom_site_fract_x
  _atom_site_fract_y
  _atom_site_fract_z
  _atom_site_occupancy
  C   C1        1.0  0.2912777600000003  0.674338445  0.5361975999853683  1.0000
  O   O1        1.0  0.2632835900000001  0.713844725  0.5486765295499433  1.0000
  Mn  Mn1       1.0  0.7597626200000004  0.237138725  0.4661437030969838  1.0000
  Mn  Mn2       1.0  0.24900500000000025  0.23366422499999995  0.5048353601604757  1.0000
  Mn  Mn3       1.0  0.08854676000000018  0.115832015  0.4628518133806713  1.0000
  Mn  Mn4       1.0  0.5683938700000003  0.121326405  0.5016953868081757  1.0000
  Mn  Mn5       1.0  0.5097626200000003  0.237138725  0.4854974868079863  1.0000
  Mn  Mn6       1.0  0.9463523500000002  0.19706295499999996  0.5179686767632816  1.0000
  Mn  Mn7       1.0  0.7155637300000002  0.302703205  0.5072460550730967  1.0000
  Mn  Mn8       1.0  0.24023738000000022  0.27618920499999994  0.4676552521844454  1.0000
  Mn  Mn9       1.0  0.8857634200000002  0.5016821349999999  0.4963948716167789  1.0000
  Mn  Mn10      1.0  0.37500000000000017  0.506663965  0.457222587333516  1.0000
  Mn  Mn11      1.0  0.04313567000000023  0.11809245499999999  0.4989327503061324  1.0000
  Mn  Mn12      1.0  0.5522851900000003  0.115832015  0.46004461982361716  1.0000
  Mn  Mn13      1.0  0.19771481000000024  0.397495915  0.4931081222654201  1.0000
  Mn  Mn14      1.0  0.6977148100000002  0.397495915  0.4544005548434149  1.0000
  Mn  Mn15      1.0  0.6614532400000004  0.397495915  0.49030092870836584  1.0000
  Mn  Mn16      1.0  0.16145324000000022  0.397495915  0.45159336128636074  1.0000
  Mn  Mn17      1.0  0.6175135200000004  0.49748556499999996  0.5154748318026274  1.0000
  Mn  Mn18      1.0  0.12500000000000022  0.506663965  0.47657637104451855  1.0000
  Mn  Mn19      1.0  0.9902373800000003  0.27618920499999994  0.487009035895448  1.0000
  Mn  Mn20      1.0  0.5432562000000002  0.22279405499999996  0.5202496301031148  1.0000
  Mn  Mn21      1.0  0.5282230700000001  0.741511945  0.5208524958208044  1.0000
  Mn  Mn22      1.0  0.009762620000000211  0.737138725  0.48549748680798643  1.0000
  Mn  Mn23      1.0  0.8225586700000005  0.609491225  0.5181911771506394  1.0000
  Mn  Mn24      1.0  0.3385467600000002  0.615832015  0.4822055970916738  1.0000
  Mn  Mn25      1.0  0.7449200400000003  0.733352695  0.5040697461531063  1.0000
  Mn  Mn26      1.0  0.2597626200000002  0.737138725  0.46614370309698383  1.0000
  Mn  Mn27      1.0  0.4902373800000003  0.7761892049999999  0.48700903589544803  1.0000
  Mn  Mn28      1.0  0.9063638700000005  0.783900655  0.5232676746180356  1.0000
  Mn  Mn29      1.0  0.6250000000000003  0.006663964999999989  0.4765763710445186  1.0000
  Mn  Mn30      1.0  0.10650439000000031  0.993599865  0.5155993060496405  1.0000
  Mn  Mn31      1.0  0.8022851900000004  0.615832015  0.47939840353461954  1.0000
  Mn  Mn32      1.0  0.32498267000000014  0.617794505  0.5173800523337979  1.0000
  Mn  Mn33      1.0  0.42839738000000027  0.8897639549999999  0.5117108584008254  1.0000
  Mn  Mn34      1.0  0.9477148100000004  0.8974959149999999  0.4737543385544175  1.0000
  Mn  Mn35      1.0  0.9313317200000003  0.863801325  0.509007029531815  1.0000
  Mn  Mn36      1.0  0.4114532400000003  0.8974959149999999  0.47094714499736334  1.0000
  Mn  Mn37      1.0  0.8750000000000003  0.006663964999999989  0.457222587333516  1.0000
  Mn  Mn38      1.0  0.36969448000000027  0.006400134999999988  0.4960057243135505  1.0000
  Mn  Mn39      1.0  0.24856466000000027  0.7811446549999999  0.5078752264536063  1.0000
  Mn  Mn40      1.0  0.7402373800000005  0.7761892049999999  0.4676552521844454  1.0000
  Ge  Ge1       1.0  0.29879894000000023  0.12307376499999997  0.47968913452522355  1.0000
  Ge  Ge2       1.0  0.7747122800000003  0.06512115499999999  0.5238528153664512  1.0000
  Ge  Ge3       1.0  0.8347912600000004  0.12307376499999997  0.48247548483137237  1.0000
  Ge  Ge4       1.0  0.3000542000000002  0.12171702499999999  0.5221015859249071  1.0000
  Ge  Ge5       1.0  0.9562327800000003  0.392749035  0.5141310815682428  1.0000
  Ge  Ge6       1.0  0.4512010600000002  0.39025416499999993  0.47346360446720814  1.0000
  Ge  Ge7       1.0  0.9152087400000004  0.39025416499999993  0.4706772541610594  1.0000
  Ge  Ge8       1.0  0.38143196000000024  0.395836985  0.5117544431217426  1.0000
  Ge  Ge9       1.0  0.5557502100000004  0.608728005  0.49717492509509953  1.0000
  Ge  Ge10      1.0  0.048798940000000186  0.623073765  0.46033535081422106  1.0000
  Ge  Ge11      1.0  0.09508395000000026  0.621461125  0.5021853100373388  1.0000
  Ge  Ge12      1.0  0.5847912600000003  0.623073765  0.4631217011203698  1.0000
  Ge  Ge13      1.0  0.7012010600000006  0.8902541649999999  0.4928173881782107  1.0000
  Ge  Ge14      1.0  0.20120106000000024  0.8902541649999999  0.45410982075620554  1.0000
  Ge  Ge15      1.0  0.6652087400000003  0.8902541649999999  0.4513234704500568  1.0000
  Ge  Ge16      1.0  0.16520874000000021  0.8902541649999999  0.490031037872062  1.0000
