data_image0
_chemical_formula_structural       COPt10Pb40
_chemical_formula_sum              "C1 O1 Pt10 Pb40"
_cell_length_a       9.71024018
_cell_length_b       14.182288050862564
_cell_length_c       104.56997153
_cell_angle_alpha    79.47509302206063
_cell_angle_beta     90.0
_cell_angle_gamma    69.98068711898044

_space_group_name_H-M_alt    "P 1"
_space_group_IT_number       1

loop_
  _space_group_symop_operation_xyz
  'x, y, z'

loop_
  _atom_site_type_symbol
  _atom_site_label
  _atom_site_symmetry_multiplicity
  _atom_site_fract_x
  _atom_site_fract_y
  _atom_site_fract_z
  _atom_site_occupancy
  C   C1        1.0  0.52532176  0.9988859  0.5534641731154388  1.0000
  O   O1        1.0  0.54839055  0.99215767  0.5646657527620681  1.0000
  Pt  Pt1       1.0  0.90761322  0.20824937999999998  0.49159620524303776  1.0000
  Pt  Pt2       1.0  0.70664831  0.6103898400000001  0.5127581180808665  1.0000
  Pt  Pt3       1.0  0.10761322000000004  0.80824938  0.46955675309267814  1.0000
  Pt  Pt4       1.0  0.48120729  0.014430749999999989  0.5355047423832079  1.0000
  Pt  Pt5       1.0  0.3076132200000001  0.40824938  0.4475173009423185  1.0000
  Pt  Pt6       1.0  0.80761322  0.40824938  0.4475173009423185  1.0000
  Pt  Pt7       1.0  0.6076132200000002  0.80824938  0.46955675309267814  1.0000
  Pt  Pt8       1.0  0.00727157000000009  0.023175179999999986  0.5329320210617295  1.0000
  Pt  Pt9       1.0  0.40761322000000005  0.20824937999999998  0.49159620524303776  1.0000
  Pt  Pt10      1.0  0.20524030000000007  0.61199786  0.5129377517286089  1.0000
  Pb  Pb1       1.0  0.82018566  0.21805850999999998  0.5186890467591879  1.0000
  Pb  Pb2       1.0  0.6279996000000001  0.60471149  0.5398281223178403  1.0000
  Pb  Pb3       1.0  0.031968109999999994  0.80865643  0.49712849314657626  1.0000
  Pb  Pb4       1.0  0.43196811  0.008656429999999988  0.45304959215177465  1.0000
  Pb  Pb5       1.0  0.2319681100000001  0.40865642999999996  0.4750890443021343  1.0000
  Pb  Pb6       1.0  0.12249801000000009  0.27847979  0.5037792589474243  1.0000
  Pb  Pb7       1.0  0.92722879  0.6664044600000001  0.5266254641014375  1.0000
  Pb  Pb8       1.0  0.32249801000000006  0.8784797900000001  0.4817398101029823  1.0000
  Pb  Pb9       1.0  0.7224980100000001  0.07847978999999998  0.437660905802263  1.0000
  Pb  Pb10      1.0  0.52249801  0.47847979  0.45970035795262265  1.0000
  Pb  Pb11      1.0  0.6323751500000001  0.60784233  0.48606391403358157  1.0000
  Pb  Pb12      1.0  0.43237515000000015  0.00784233000000012  0.5081033661839413  1.0000
  Pb  Pb13      1.0  0.8323751500000003  0.20784233  0.46402446188322194  1.0000
  Pb  Pb14      1.0  0.21872126  0.41754815999999995  0.5302985072204518  1.0000
  Pb  Pb15      1.0  0.03237514999999997  0.80784233  0.44198501303877996  1.0000
  Pb  Pb16      1.0  0.8875627200000001  0.41499948999999997  0.5301420116903924  1.0000
  Pb  Pb17      1.0  0.6832583300000001  0.80784233  0.44198501303877996  1.0000
  Pb  Pb18      1.0  0.08325833000000005  0.00784233000000012  0.5081033661839413  1.0000
  Pb  Pb19      1.0  0.48325832999999996  0.20784233  0.46402446188322194  1.0000
  Pb  Pb20      1.0  0.2832583300000001  0.60784233  0.48606391403358157  1.0000
  Pb  Pb21      1.0  0.9927284300000001  0.53801897  0.5014526003830932  1.0000
  Pb  Pb22      1.0  0.77351736  0.9613286400000001  0.5266559347444845  1.0000
  Pb  Pb23      1.0  0.1927284300000001  0.13801897  0.47941314823273357  1.0000
  Pb  Pb24      1.0  0.59272843  0.33801897  0.435334247237932  1.0000
  Pb  Pb25      1.0  0.39272842999999996  0.73801897  0.45737369608237394  1.0000
  Pb  Pb26      1.0  0.5236260299999999  0.47508073999999995  0.5183018709068404  1.0000
  Pb  Pb27      1.0  0.3004057399999999  0.88369302  0.5375947369142912  1.0000
  Pb  Pb28      1.0  0.72290506  0.0776657  0.4927146798344296  1.0000
  Pb  Pb29      1.0  0.12290506000000012  0.27766569999999996  0.4486357755337103  1.0000
  Pb  Pb30      1.0  0.9229050600000002  0.6776656999999999  0.47067522768406994  1.0000
  Pb  Pb31      1.0  0.8828512900000003  0.40865642999999996  0.4750890443021343  1.0000
  Pb  Pb32      1.0  0.6828512900000002  0.80865643  0.49712849314657626  1.0000
  Pb  Pb33      1.0  0.08285129000000009  0.008656429999999988  0.45304959215177465  1.0000
  Pb  Pb34      1.0  0.47228304000000004  0.21224225  0.5190042527841368  1.0000
  Pb  Pb35      1.0  0.2914881500000001  0.60924104  0.5398584772537692  1.0000
  Pb  Pb36      1.0  0.5923213800000001  0.33883306  0.4904777306516459  1.0000
  Pb  Pb37      1.0  0.3937504300000001  0.73831151  0.512930121670656  1.0000
  Pb  Pb38      1.0  0.7923213800000001  0.9388330600000001  0.4684382785012863  1.0000
  Pb  Pb39      1.0  0.17453647000000008  0.14693274  0.5355714458837784  1.0000
  Pb  Pb40      1.0  0.99232138  0.53883306  0.44639882635092665  1.0000
