data_image0
_chemical_formula_structural       COAg8Al28Ca12
_chemical_formula_sum              "C1 O1 Ag8 Al28 Ca12"
_cell_length_a       9.850901060623308
_cell_length_b       9.6195572
_cell_length_c       104.12452227
_cell_angle_alpha    90.0
_cell_angle_beta     90.0
_cell_angle_gamma    109.95913100052765

_space_group_name_H-M_alt    "P 1"
_space_group_IT_number       1

loop_
  _space_group_symop_operation_xyz
  'x, y, z'

loop_
  _atom_site_type_symbol
  _atom_site_label
  _atom_site_symmetry_multiplicity
  _atom_site_fract_x
  _atom_site_fract_y
  _atom_site_fract_z
  _atom_site_occupancy
  C   C1        1.0  0.427803145  0.09145688500000007  0.5499072076091173  1.0000
  O   O1        1.0  0.365898565  0.059073465000000054  0.5599478138682292  1.0000
  Ag  Ag1       1.0  0.37959459500000003  0.6976977450000001  0.4812721632318716  1.0000
  Ag  Ag2       1.0  0.8795945950000001  0.6976977450000001  0.45396149698896315  1.0000
  Ag  Ag3       1.0  0.7082523949999999  0.6836711450000001  0.4812721632318716  1.0000
  Ag  Ag4       1.0  0.20825239499999998  0.683671145  0.45396149698896315  1.0000
  Ag  Ag5       1.0  0.387101395  0.687790145  0.5347933619539531  1.0000
  Ag  Ag6       1.0  0.8799082050000002  0.7013145650000002  0.5080019250259973  1.0000
  Ag  Ag7       1.0  0.6999475450000001  0.6884243050000001  0.5351686564050617  1.0000
  Ag  Ag8       1.0  0.20678187500000003  0.6803707550000001  0.5078873840871929  1.0000
  Al  Al1       1.0  0.8748799550000002  0.9382036149999999  0.46787081112343576  1.0000
  Al  Al2       1.0  0.37487995500000004  0.9382036149999999  0.4405601416032473  1.0000
  Al  Al3       1.0  0.629529755  0.9382036149999999  0.4812721632318716  1.0000
  Al  Al4       1.0  0.12952975500000002  0.9382036150000002  0.45396149698896315  1.0000
  Al  Al5       1.0  0.543923495  0.19068444500000004  0.4812721632318716  1.0000
  Al  Al6       1.0  0.043923495  0.19068444500000004  0.45396149698896315  1.0000
  Al  Al7       1.0  0.712967045  0.4431652750000001  0.46736285237467906  1.0000
  Al  Al8       1.0  0.21296704499999997  0.4431652750000001  0.4400521861317706  1.0000
  Al  Al9       1.0  0.8748799550000002  0.9382036149999999  0.4400521861317706  1.0000
  Al  Al10      1.0  0.37487995500000004  0.9382036149999999  0.46736285237467906  1.0000
  Al  Al11      1.0  0.458317235  0.4431652750000001  0.4812721632318716  1.0000
  Al  Al12      1.0  0.9583172350000001  0.4431652750000002  0.45396149698896315  1.0000
  Al  Al13      1.0  0.712967045  0.4431652750000001  0.4405601416032473  1.0000
  Al  Al14      1.0  0.21296704499999997  0.4431652750000001  0.46787081112343576  1.0000
  Al  Al15      1.0  0.878918245  0.9409265350000001  0.5241547798941203  1.0000
  Al  Al16      1.0  0.37487995500000004  0.9382036149999999  0.4951814773663442  1.0000
  Al  Al17      1.0  0.6219066649999999  0.9341491150000001  0.5346383433288776  1.0000
  Al  Al18      1.0  0.129772905  0.940088405  0.5090590870933207  1.0000
  Al  Al19      1.0  0.5389586749999999  0.18853845500000008  0.5345615369929172  1.0000
  Al  Al20      1.0  0.042607294999999996  0.18966317500000007  0.5093801556682216  1.0000
  Al  Al21      1.0  0.716123005  0.448777145  0.5224481788969763  1.0000
  Al  Al22      1.0  0.21296704499999997  0.4431652750000001  0.4946735186175875  1.0000
  Al  Al23      1.0  0.8748799550000002  0.9382036149999999  0.4946735186175875  1.0000
  Al  Al24      1.0  0.36918443500000003  0.9295438750000001  0.5224393662908405  1.0000
  Al  Al25      1.0  0.462821145  0.44200260500000005  0.5343014422139091  1.0000
  Al  Al26      1.0  0.9563512950000002  0.44001508500000025  0.5090753096297178  1.0000
  Al  Al27      1.0  0.712967045  0.4431652750000001  0.4951814773663442  1.0000
  Al  Al28      1.0  0.20277507500000003  0.43754415500000005  0.5240120281283852  1.0000
  Ca  Ca1       1.0  0.543923495  0.690684445  0.45396149698896315  1.0000
  Ca  Ca2       1.0  0.043923495  0.6906844449999999  0.4812721632318716  1.0000
  Ca  Ca3       1.0  0.9006332650000001  0.26081375500000015  0.4812721632318716  1.0000
  Ca  Ca4       1.0  0.400633265  0.26081375500000004  0.45396149698896315  1.0000
  Ca  Ca5       1.0  0.6872137250000001  0.12055513500000012  0.45396149698896315  1.0000
  Ca  Ca6       1.0  0.18721372500000003  0.12055513500000008  0.4812721632318716  1.0000
  Ca  Ca7       1.0  0.543885015  0.688248135  0.5079785186916642  1.0000
  Ca  Ca8       1.0  0.041682765000000004  0.688029595  0.5335852680298143  1.0000
  Ca  Ca9       1.0  0.8850745350000002  0.2557382550000002  0.5364781133248022  1.0000
  Ca  Ca10      1.0  0.396449955  0.2582906850000001  0.5083540065022977  1.0000
  Ca  Ca11      1.0  0.6876911050000001  0.11941680500000013  0.5084981511120669  1.0000
  Ca  Ca12      1.0  0.19657345499999995  0.12224923500000004  0.5368461551550933  1.0000
