data_image0
_chemical_formula_structural       CONa16Sn8Se24
_chemical_formula_sum              "C1 O1 Na16 Sn8 Se24"
_cell_length_a       7.668856850580768
_cell_length_b       16.70549986
_cell_length_c       104.37479175
_cell_angle_alpha    90.0
_cell_angle_beta     79.99960145817518
_cell_angle_gamma    90.0

_space_group_name_H-M_alt    "P 1"
_space_group_IT_number       1

loop_
  _space_group_symop_operation_xyz
  'x, y, z'

loop_
  _atom_site_type_symbol
  _atom_site_label
  _atom_site_symmetry_multiplicity
  _atom_site_fract_x
  _atom_site_fract_y
  _atom_site_fract_z
  _atom_site_occupancy
  C   C1        1.0  0.7156906700000001  0.92376779  0.5602351146960564  1.0000
  O   O1        1.0  0.7847566400000002  0.97352204  0.5650782270544342  1.0000
  Na  Na1       1.0  0.7693088800000001  0.9742504799999999  0.4396184936831634  1.0000
  Na  Na2       1.0  0.2693088800000001  0.9742504799999999  0.4945084913239585  1.0000
  Na  Na3       1.0  0.01996405000000004  0.66617776  0.44648551877647413  1.0000
  Na  Na4       1.0  0.51996405  0.66617776  0.5013755164172691  1.0000
  Na  Na5       1.0  0.5193088800000001  0.5257495199999999  0.46706349085686105  1.0000
  Na  Na6       1.0  0.045630720000000034  0.52541734  0.5187516847401076  1.0000
  Na  Na7       1.0  0.21041052000000005  0.025749520000000015  0.4493254503516135  1.0000
  Na  Na8       1.0  0.7104105200000003  0.025749520000000015  0.5042154446990087  1.0000
  Na  Na9       1.0  0.7097553500000001  0.16617776  0.46990342243200045  1.0000
  Na  Na10      1.0  0.19522007000000002  0.17773945000000002  0.5231488641797707  1.0000
  Na  Na11      1.0  0.4997088500000001  0.47127781  0.5315597099466506  1.0000
  Na  Na12      1.0  0.9604105200000003  0.47425048  0.4767704475253111  1.0000
  Na  Na13      1.0  0.9597553500000002  0.33382224  0.4424584252583028  1.0000
  Na  Na14      1.0  0.45975535000000006  0.33382224  0.49734842289909786  1.0000
  Na  Na15      1.0  0.21457052000000007  0.80165057  0.5230217620015757  1.0000
  Na  Na16      1.0  0.7699640500000001  0.83382224  0.4739305159501717  1.0000
  Sn  Sn1       1.0  0.44590896000000013  0.33403089  0.4540221710892112  1.0000
  Sn  Sn2       1.0  0.9459089600000001  0.33403089  0.5089121687300063  1.0000
  Sn  Sn3       1.0  0.6218360400000001  0.20561499000000003  0.5337878464027211  1.0000
  Sn  Sn4       1.0  0.19590896000000008  0.16596911000000003  0.4814671715563086  1.0000
  Sn  Sn5       1.0  0.5338104500000002  0.66596911  0.4349217729455657  1.0000
  Sn  Sn6       1.0  0.033810440000000046  0.66596911  0.48981176729296094  1.0000
  Sn  Sn7       1.0  0.28381044000000005  0.8340308899999999  0.46236677011926336  1.0000
  Sn  Sn8       1.0  0.7296700600000001  0.82154254  0.520437072203761  1.0000
  Se  Se1       1.0  0.9250508400000002  0.14428816000000003  0.44133353491854915  1.0000
  Se  Se2       1.0  0.4250508400000001  0.14428816000000003  0.49622353255934415  1.0000
  Se  Se3       1.0  0.6750508400000002  0.35571183999999995  0.4687785320922468  1.0000
  Se  Se4       1.0  0.18368033000000003  0.35986056  0.5225631429068597  1.0000
  Se  Se5       1.0  0.3779804200000001  0.64680422  0.5292374184839098  1.0000
  Se  Se6       1.0  0.8046685600000001  0.64428816  0.4750554062899255  1.0000
  Se  Se7       1.0  0.7496834500000003  0.55408352  0.43758808965723955  1.0000
  Se  Se8       1.0  0.24968345000000006  0.55408352  0.4924780872980346  1.0000
  Se  Se9       1.0  0.3564054000000001  0.18256762000000004  0.4570704694824275  1.0000
  Se  Se10      1.0  0.8564054000000001  0.18256762000000004  0.5119604671232226  1.0000
  Se  Se11      1.0  0.6432441600000001  0.33037139  0.5452539165825812  1.0000
  Se  Se12      1.0  0.10640540000000005  0.31743238  0.484515469949525  1.0000
  Se  Se13      1.0  0.49968345000000014  0.94591648  0.46503309012433697  1.0000
  Se  Se14      1.0  0.9493087200000002  0.92905504  0.5231863595364091  1.0000
  Se  Se15      1.0  0.23003595000000007  0.44591648  0.45135585108413767  1.0000
  Se  Se16      1.0  0.7300359500000001  0.44591648  0.5062458487249326  1.0000
  Se  Se17      1.0  0.3733140000000001  0.68256762  0.459318471726047  1.0000
  Se  Se18      1.0  0.8921396500000002  0.68162538  0.5143187850862943  1.0000
  Se  Se19      1.0  0.05466856000000004  0.85571184  0.4476104091162278  1.0000
  Se  Se20      1.0  0.5546685600000001  0.85571184  0.502500403463623  1.0000
  Se  Se21      1.0  0.4338428900000001  0.08748368000000001  0.5364828980275852  1.0000
  Se  Se22      1.0  0.9800359500000001  0.05408352000000002  0.47880085155123514  1.0000
  Se  Se23      1.0  0.5044504200000001  0.7545243899999999  0.5399258511047459  1.0000
  Se  Se24      1.0  0.12331400000000006  0.81743238  0.48676346889974464  1.0000
