data_image0
_chemical_formula_structural       COCo9W3Co9W3
_chemical_formula_sum              "C1 O1 Co18 W6"
_cell_length_a       5.10213913
_cell_length_b       5.102139132307193
_cell_length_c       107.49291242000001
_cell_angle_alpha    90.0
_cell_angle_beta     90.0
_cell_angle_gamma    59.99999995012366

_space_group_name_H-M_alt    "P 1"
_space_group_IT_number       1

loop_
  _space_group_symop_operation_xyz
  'x, y, z'

loop_
  _atom_site_type_symbol
  _atom_site_label
  _atom_site_symmetry_multiplicity
  _atom_site_fract_x
  _atom_site_fract_y
  _atom_site_fract_z
  _atom_site_occupancy
  C   C1        1.0  0.3154290900000002  0.880035205  0.5515338936744627  1.0000
  O   O1        1.0  0.41735211000000005  0.791098175  0.5615368181842083  1.0000
  Co  Co1       1.0  0.9162941099999997  0.42091272500000004  0.4578406430700326  1.0000
  Co  Co2       1.0  0.24962745000000006  0.754246065  0.4384631818157917  1.0000
  Co  Co3       1.0  0.5829607800000001  0.08757939500000002  0.47721810083633065  1.0000
  Co  Co4       1.0  0.41629411  0.9209127250000001  0.4578406430700326  1.0000
  Co  Co5       1.0  0.7496274500000001  0.254246065  0.4384631818157917  1.0000
  Co  Co6       1.0  0.08296078000000004  0.587579395  0.47721810083633065  1.0000
  Co  Co7       1.0  0.9162941099999999  0.9209127250000001  0.4578406430700326  1.0000
  Co  Co8       1.0  0.24962745000000006  0.254246065  0.4384631818157917  1.0000
  Co  Co9       1.0  0.5829607800000001  0.587579395  0.47721810083633065  1.0000
  W   W1        1.0  0.7496274500000001  0.754246065  0.4384631818157917  1.0000
  W   W2        1.0  0.08296078000000005  0.08757939500000002  0.47721810083633065  1.0000
  W   W3        1.0  0.41629411  0.42091272500000004  0.4578406430700326  1.0000
  Co  Co10      1.0  0.91553224  0.423966885  0.5157815422639025  1.0000
  Co  Co11      1.0  0.24962745000000006  0.754246065  0.4965955620905715  1.0000
  Co  Co12      1.0  0.5906253400000001  0.08068097500000002  0.5349539438761205  1.0000
  Co  Co13      1.0  0.41349467999999995  0.9208142950000001  0.5159434281506063  1.0000
  Co  Co14      1.0  0.7496274500000001  0.254246065  0.4965955620905715  1.0000
  Co  Co15      1.0  0.0842732300000001  0.579324975  0.5347200319716966  1.0000
  Co  Co16      1.0  0.9170392199999999  0.917181735  0.5158296793617501  1.0000
  Co  Co17      1.0  0.24962745000000006  0.254246065  0.4965955620905715  1.0000
  Co  Co18      1.0  0.5927216500000002  0.574826485  0.5351832516961186  1.0000
  W   W4        1.0  0.7496274500000001  0.754246065  0.4965955620905715  1.0000
  W   W5        1.0  0.08684064000000008  0.07908727500000001  0.5353769790121573  1.0000
  W   W6        1.0  0.4216276300000001  0.41571488500000003  0.5169072688095234  1.0000
