data_image0
_chemical_formula_structural       COAg4Al14Ca6
_chemical_formula_sum              "C1 O1 Ag4 Al14 Ca6"
_cell_length_a       5.68742038
_cell_length_b       9.619557201743707
_cell_length_c       104.05845929
_cell_angle_alpha    94.87498220789415
_cell_angle_beta     90.0
_cell_angle_gamma    107.19457366722796

_space_group_name_H-M_alt    "P 1"
_space_group_IT_number       1

loop_
  _space_group_symop_operation_xyz
  'x, y, z'

loop_
  _atom_site_type_symbol
  _atom_site_label
  _atom_site_symmetry_multiplicity
  _atom_site_fract_x
  _atom_site_fract_y
  _atom_site_fract_z
  _atom_site_occupancy
  C   C1        1.0  0.29959174000000005  0.059217749999999965  0.5454123321820599  1.0000
  O   O1        1.0  0.47946122000000013  0.06273875999999998  0.5519533551530532  1.0000
  Ag  Ag1       1.0  0.11987013999999999  0.5895983299999998  0.5273060327020015  1.0000
  Ag  Ag2       1.0  0.6001027800000001  0.5508027199999999  0.5175514224713761  1.0000
  Ag  Ag3       1.0  0.5533837400000001  0.45697414999999997  0.4826767752029274  1.0000
  Ag  Ag4       1.0  0.022894890000000008  0.39599643  0.46730961697234635  1.0000
  Al  Al1       1.0  0.6921627100000001  0.7345320799999999  0.4948039591505943  1.0000
  Al  Al2       1.0  0.4794087400000001  0.80877082  0.5178131161511703  1.0000
  Al  Al3       1.0  0.35486538  0.07088787999999997  0.5221222852859184  1.0000
  Al  Al4       1.0  0.4555444900000001  0.26129564  0.5019397473283269  1.0000
  Al  Al5       1.0  0.97710511  0.808302  0.517987017828299  1.0000
  Al  Al6       1.0  0.2324626800000001  0.33045929  0.5255292486444764  1.0000
  Al  Al7       1.0  0.74872605  0.33054765999999997  0.5249934402040947  1.0000
  Al  Al8       1.0  0.12073413999999998  0.5916749399999999  0.44804664484694684  1.0000
  Al  Al9       1.0  0.91043397  0.6617749999999999  0.4709904790726953  1.0000
  Al  Al10      1.0  0.78813932  0.9264852899999999  0.47499319608763685  1.0000
  Al  Al11      1.0  0.88411592  0.11843849999999997  0.4551824330246795  1.0000
  Al  Al12      1.0  0.40113436  0.6617749999999999  0.4709904790726953  1.0000
  Al  Al13      1.0  0.6658446600000001  0.19119558999999997  0.4789959163755905  1.0000
  Al  Al14      1.0  0.17514427000000002  0.19119558999999997  0.4789959163755905  1.0000
  Ca  Ca1       1.0  0.07385360000000006  0.49791386000000004  0.49837185323946065  1.0000
  Ca  Ca2       1.0  0.8691532700000001  0.08851320999999998  0.5050717220320756  1.0000
  Ca  Ca3       1.0  0.8583214699999999  0.05434393999999997  0.5398230913010315  1.0000
  Ca  Ca4       1.0  0.50242503  0.35505672  0.45161453893581316  1.0000
  Ca  Ca5       1.0  0.2977247  0.94565606  0.4583144044554161  1.0000
  Ca  Ca6       1.0  0.2785539300000001  0.90731452  0.49167198771985765  1.0000
