data_image0
_chemical_formula_structural       COCa2Al4Si4Ca2Al4Si4
_chemical_formula_sum              "C1 O1 Ca4 Al8 Si8"
_cell_length_a       7.24724615
_cell_length_b       8.289684539959069
_cell_length_c       99.28939661
_cell_angle_alpha    104.61803010257711
_cell_angle_beta     90.0
_cell_angle_gamma    64.07945233015886

_space_group_name_H-M_alt    "P 1"
_space_group_IT_number       1

loop_
  _space_group_symop_operation_xyz
  'x, y, z'

loop_
  _atom_site_type_symbol
  _atom_site_label
  _atom_site_symmetry_multiplicity
  _atom_site_fract_x
  _atom_site_fract_y
  _atom_site_fract_z
  _atom_site_occupancy
  C   C1        1.0  0.3746562400000002  0.86200053  0.5355302732025574  1.0000
  O   O1        1.0  0.24173717000000017  0.9473175099999999  0.5455093070826572  1.0000
  Ca  Ca1       1.0  0.01737142000000004  0.057327500000000024  0.48335899795050496  1.0000
  Ca  Ca2       1.0  0.51737142  0.057327500000000024  0.46228827149385493  1.0000
  Al  Al1       1.0  0.6656712700000003  0.42739446  0.4700858530202688  1.0000
  Al  Al2       1.0  0.16567127000000012  0.42739446  0.4911565794769188  1.0000
  Al  Al3       1.0  0.8690715700000002  0.68726054  0.47556141937399293  1.0000
  Al  Al4       1.0  0.3690715700000002  0.68726054  0.4544906929173429  1.0000
  Si  Si1       1.0  0.48262858000000014  0.7934798399999999  0.47779953639064304  1.0000
  Si  Si2       1.0  0.9826285800000002  0.7934798399999999  0.45672880993399306  1.0000
  Si  Si3       1.0  0.05211426000000004  0.32117516  0.4678477330537169  1.0000
  Si  Si4       1.0  0.5521142600000002  0.32117516  0.4889184624602687  1.0000
  Ca  Ca3       1.0  0.019181850000000042  0.05344150000000003  0.526014651190003  1.0000
  Ca  Ca4       1.0  0.5207321900000002  0.052682490000000026  0.5044297922548957  1.0000
  Al  Al5       1.0  0.6676293700000001  0.39683253  0.5137986006066106  1.0000
  Al  Al6       1.0  0.2341585200000001  0.46968158  0.5273268353418945  1.0000
  Al  Al7       1.0  0.9084610000000002  0.6811941499999999  0.5181551895743083  1.0000
  Al  Al8       1.0  0.3690715700000002  0.68726054  0.49663214583064297  1.0000
  Si  Si5       1.0  0.53315228  0.75605991  0.5190585527406789  1.0000
  Si  Si6       1.0  0.9826285800000002  0.7934798399999999  0.49887026284729313  1.0000
  Si  Si7       1.0  0.05503026000000006  0.31398125000000005  0.5102427565726566  1.0000
  Si  Si8       1.0  0.5686399800000002  0.28844309  0.5326507708452006  1.0000
