data_image0
_chemical_formula_structural       COIn6Mn6Rh12
_chemical_formula_sum              "C1 O1 In6 Mn6 Rh12"
_cell_length_a       6.24690989
_cell_length_b       7.650870853954881
_cell_length_c       103.64063929
_cell_angle_alpha    94.34775313176475
_cell_angle_beta     90.0
_cell_angle_gamma    114.09484257929013

_space_group_name_H-M_alt    "P 1"
_space_group_IT_number       1

loop_
  _space_group_symop_operation_xyz
  'x, y, z'

loop_
  _atom_site_type_symbol
  _atom_site_label
  _atom_site_symmetry_multiplicity
  _atom_site_fract_x
  _atom_site_fract_y
  _atom_site_fract_z
  _atom_site_occupancy
  C   C1        1.0  0.177693965  0.588016405  0.5377901449089161  1.0000
  O   O1        1.0  0.2477140050000001  0.6430679549999999  0.5484974814679995  1.0000
  In  In1       1.0  0.04421175500000004  0.130621815  0.45826479387631286  1.0000
  In  In2       1.0  0.865305315  0.7578814049999999  0.5160694977168343  1.0000
  In  In3       1.0  0.46087841500000004  0.963955155  0.4853138984994549  1.0000
  In  In4       1.0  0.752545085  0.547288485  0.4717893478108302  1.0000
  In  In5       1.0  0.633977925  0.177835285  0.5290961674183516  1.0000
  In  In6       1.0  0.179928865  0.36363646499999996  0.4984143570793716  1.0000
  Mn  Mn1       1.0  0.5442117550000001  0.130621815  0.45826479387631286  1.0000
  Mn  Mn2       1.0  0.3867966850000001  0.7522213550000001  0.5111933554313748  1.0000
  Mn  Mn3       1.0  0.9608784149999998  0.963955155  0.4853138984994549  1.0000
  Mn  Mn4       1.0  0.25254508500000006  0.547288485  0.4717893478108302  1.0000
  Mn  Mn5       1.0  0.05319647500000003  0.16184359499999998  0.5207325017050515  1.0000
  Mn  Mn6       1.0  0.697270625  0.342071995  0.5017324027124705  1.0000
  Rh  Rh1       1.0  0.148378415  0.838955155  0.46502706922062526  1.0000
  Rh  Rh2       1.0  0.039121585000000035  0.49561412499999996  0.5213105594873614  1.0000
  Rh  Rh3       1.0  0.5650450850000001  0.672288485  0.49207617708965995  1.0000
  Rh  Rh4       1.0  0.648378415  0.838955155  0.46502706922062526  1.0000
  Rh  Rh5       1.0  0.4697809050000001  0.419986645  0.5184521192748328  1.0000
  Rh  Rh6       1.0  0.06504508500000007  0.672288485  0.49207617708965995  1.0000
  Rh  Rh7       1.0  0.856711755  0.255621815  0.47855162315514255  1.0000
  Rh  Rh8       1.0  0.44004508500000006  0.422288485  0.4515025185320005  1.0000
  Rh  Rh9       1.0  0.30805433500000007  0.036044845  0.5089367426732857  1.0000
  Rh  Rh10      1.0  0.356711755  0.255621815  0.47855162315514255  1.0000
  Rh  Rh11      1.0  0.9400450850000001  0.422288485  0.4515025185320005  1.0000
  Rh  Rh12      1.0  0.7786483250000001  0.054035605  0.5051305082886355  1.0000
