data_image0
_chemical_formula_structural       COAl6Cr6Mn12
_chemical_formula_sum              "C1 O1 Al6 Cr6 Mn12"
_cell_length_a       7.015695391175699
_cell_length_b       5.7282913
_cell_length_c       100.84779271
_cell_angle_alpha    90.0
_cell_angle_beta     85.65224680803695
_cell_angle_gamma    114.09484255333919

_space_group_name_H-M_alt    "P 1"
_space_group_IT_number       1

loop_
  _space_group_symop_operation_xyz
  'x, y, z'

loop_
  _atom_site_type_symbol
  _atom_site_label
  _atom_site_symmetry_multiplicity
  _atom_site_fract_x
  _atom_site_fract_y
  _atom_site_fract_z
  _atom_site_occupancy
  C   C1        1.0  0.38465931000000003  0.17264959500000007  0.5353655553559608  1.0000
  O   O1        1.0  0.40706984  0.34942520500000007  0.5431867905619951  1.0000
  Al  Al1       1.0  0.06888692999999996  0.545363915  0.522010300777333  1.0000
  Al  Al2       1.0  0.7708333300000001  0.4062499950000001  0.46955840459336223  1.0000
  Al  Al3       1.0  0.9375000000000001  0.9895833350000001  0.49504879184523043  1.0000
  Al  Al4       1.0  0.5319079999999999  0.28920525500000005  0.5082011653647588  1.0000
  Al  Al5       1.0  0.18749999999999997  0.11458333500000001  0.45681320943800485  1.0000
  Al  Al6       1.0  0.35416666999999996  0.6979166649999999  0.48230359974871956  1.0000
  Cr  Cr1       1.0  0.13033395  0.06694984500000002  0.5194262299997754  1.0000
  Cr  Cr2       1.0  0.7708333300000001  0.906249995  0.46955840459336223  1.0000
  Cr  Cr3       1.0  0.9375000000000001  0.4895833350000001  0.49504879184523043  1.0000
  Cr  Cr4       1.0  0.52465609  0.7804213550000002  0.5045361838490887  1.0000
  Cr  Cr5       1.0  0.18749999999999997  0.614583335  0.45681320943800485  1.0000
  Cr  Cr6       1.0  0.35416666999999996  0.19791666500000002  0.48230359974871956  1.0000
  Mn  Mn1       1.0  0.22674557999999997  0.38514059500000003  0.5024140814958683  1.0000
  Mn  Mn2       1.0  0.41835218  0.9234125950000001  0.5251978666933733  1.0000
  Mn  Mn3       1.0  0.06249999999999995  0.8020833350000001  0.47593100064161764  1.0000
  Mn  Mn4       1.0  0.7832951499999999  0.11698689500000002  0.5158045219868505  1.0000
  Mn  Mn5       1.0  0.4791666700000001  0.01041666500000004  0.4631858085451068  1.0000
  Mn  Mn6       1.0  0.6458333300000001  0.5937499950000001  0.48867619579697497  1.0000
  Mn  Mn7       1.0  0.7931775400000001  0.7132299550000001  0.5154396872360605  1.0000
  Mn  Mn8       1.0  0.4791666700000001  0.510416665  0.4631858085451068  1.0000
  Mn  Mn9       1.0  0.6458333300000001  0.0937499950000001  0.48867619579697497  1.0000
  Mn  Mn10      1.0  0.22262870999999995  0.8830418049999998  0.502592078837937  1.0000
  Mn  Mn11      1.0  0.46082173000000004  0.5615008450000001  0.526159341707432  1.0000
  Mn  Mn12      1.0  0.06249999999999995  0.302083335  0.47593100064161764  1.0000
