data_image0
_chemical_formula_structural       COAu4Pd8Zn4
_chemical_formula_sum              "C1 O1 Au4 Pd8 Zn4"
_cell_length_a       4.51009599
_cell_length_b       4.51009599
_cell_length_c       108.26943352
_cell_angle_alpha    90.0
_cell_angle_beta     90.0
_cell_angle_gamma    90.0

_space_group_name_H-M_alt    "P 1"
_space_group_IT_number       1

loop_
  _space_group_symop_operation_xyz
  'x, y, z'

loop_
  _atom_site_type_symbol
  _atom_site_label
  _atom_site_symmetry_multiplicity
  _atom_site_fract_x
  _atom_site_fract_y
  _atom_site_fract_z
  _atom_site_occupancy
  C   C1        1.0  0.25984949499999993  0.89675631  0.5531512740948406  1.0000
  O   O1        1.0  0.24918004499999993  0.90742715  0.5640202671685128  1.0000
  Au  Au1       1.0  0.505836275  0.6507738999999999  0.4948905302514461  1.0000
  Au  Au2       1.0  0.9941637249999999  0.16245544999999997  0.5249240347782232  1.0000
  Au  Au3       1.0  0.505836275  0.6507738999999999  0.435979732831487  1.0000
  Au  Au4       1.0  0.005836274999999972  0.1507739  0.4654351315414666  1.0000
  Pd  Pd1       1.0  0.505836275  0.1507739  0.5096182313737598  1.0000
  Pd  Pd2       1.0  0.005836274999999972  0.6507738999999999  0.5096182313737598  1.0000
  Pd  Pd3       1.0  0.06402369499999996  0.6599107299999999  0.5394100578791023  1.0000
  Pd  Pd4       1.0  0.49669974499999997  0.09257284999999998  0.5394101356413581  1.0000
  Pd  Pd5       1.0  0.505836275  0.1507739  0.4507074304191528  1.0000
  Pd  Pd6       1.0  0.005836274999999972  0.6507738999999999  0.4507074304191528  1.0000
  Pd  Pd7       1.0  0.005836274999999972  0.6507738999999999  0.4801628326637803  1.0000
  Pd  Pd8       1.0  0.505836275  0.1507739  0.4801628326637803  1.0000
  Zn  Zn1       1.0  0.005836274999999972  0.1507739  0.4948905302514461  1.0000
  Zn  Zn2       1.0  0.5260326049999999  0.6305748299999999  0.5241432522458749  1.0000
  Zn  Zn3       1.0  0.005836274999999972  0.1507739  0.435979732831487  1.0000
  Zn  Zn4       1.0  0.505836275  0.6507738999999999  0.4654351315414666  1.0000
