data_image0
_chemical_formula_structural       COSi3Pt15Pb3Si3Pt15Pb3
_chemical_formula_sum              "C1 O1 Si6 Pt30 Pb6"
_cell_length_a       10.899491498728512
_cell_length_b       8.11693696
_cell_length_c       103.31916341
_cell_angle_alpha    90.0
_cell_angle_beta     102.7077455156269
_cell_angle_gamma    90.0

_space_group_name_H-M_alt    "P 1"
_space_group_IT_number       1

loop_
  _space_group_symop_operation_xyz
  'x, y, z'

loop_
  _atom_site_type_symbol
  _atom_site_label
  _atom_site_symmetry_multiplicity
  _atom_site_fract_x
  _atom_site_fract_y
  _atom_site_fract_z
  _atom_site_occupancy
  C   C1        1.0  0.21712492500000005  0.38790397000000004  0.5374964814392538  1.0000
  O   O1        1.0  0.26824043500000005  0.39749539  0.5486654508466687  1.0000
  Si  Si1       1.0  0.868361195  0.125563  0.4810012540295461  1.0000
  Si  Si2       1.0  0.19954063500000002  0.12553517  0.5082014501320642  1.0000
  Si  Si3       1.0  0.535027855  0.125563  0.45412727684923226  1.0000
  Pt  Pt1       1.0  0.802347745  0.375563  0.4916455165362407  1.0000
  Pt  Pt2       1.0  0.13420245500000003  0.37586173999999994  0.519449151696094  1.0000
  Pt  Pt3       1.0  0.469014415  0.375563  0.4647715393559268  1.0000
  Pt  Pt4       1.0  0.934374635  0.375563  0.4703569915228515  1.0000
  Pt  Pt5       1.0  0.25993441500000003  0.37544223  0.49750493493700915  1.0000
  Pt  Pt6       1.0  0.583834315  0.37556649999999997  0.5200217415763103  1.0000
  Pt  Pt7       1.0  0.6356810850000001  0.125563  0.4782085295585225  1.0000
  Pt  Pt8       1.0  0.964972145  0.13591304999999998  0.5047454909271283  1.0000
  Pt  Pt9       1.0  0.302347745  0.125563  0.45133454915333127  1.0000
  Pt  Pt10      1.0  0.7677079649999999  0.125563  0.4569200013202559  1.0000
  Pt  Pt11      1.0  0.10104130500000004  0.125563  0.48379398172544713  1.0000
  Pt  Pt12      1.0  0.423792385  0.12553943  0.5107535471517083  1.0000
  Pt  Pt13      1.0  0.7199650550000001  0.12377789999999998  0.5100877067168643  1.0000
  Pt  Pt14      1.0  0.03502785500000002  0.125563  0.45412727684923226  1.0000
  Pt  Pt15      1.0  0.36836119500000003  0.125563  0.4810012540295461  1.0000
  Pb  Pb1       1.0  0.5378289150000001  0.37593102999999994  0.4935567336720444  1.0000
  Pb  Pb2       1.0  0.8711615549999999  0.37559550999999997  0.5236986887293167  1.0000
  Pb  Pb3       1.0  0.201694525  0.375563  0.46756426705182785  1.0000
  Si  Si4       1.0  0.868361195  0.625563  0.4810012540295461  1.0000
  Si  Si5       1.0  0.19907744500000005  0.6257681099999999  0.508160187825851  1.0000
  Si  Si6       1.0  0.535027855  0.625563  0.45412727684923226  1.0000
  Pt  Pt16      1.0  0.802347745  0.875563  0.4916455165362407  1.0000
  Pt  Pt17      1.0  0.11878310500000006  0.8758428699999998  0.5160131093339226  1.0000
  Pt  Pt18      1.0  0.469014415  0.875563  0.4647715393559268  1.0000
  Pt  Pt19      1.0  0.934374635  0.875563  0.4703569915228515  1.0000
  Pt  Pt20      1.0  0.266592025  0.87558707  0.497074152590291  1.0000
  Pt  Pt21      1.0  0.5830349450000001  0.8754503499999998  0.52004851128353  1.0000
  Pt  Pt22      1.0  0.6356810850000001  0.625563  0.4782085295585225  1.0000
  Pt  Pt23      1.0  0.9642214550000001  0.61670624  0.5046950280457196  1.0000
  Pt  Pt24      1.0  0.302347745  0.625563  0.45133454915333127  1.0000
  Pt  Pt25      1.0  0.7677079649999999  0.625563  0.4569200013202559  1.0000
  Pt  Pt26      1.0  0.10104130500000004  0.625563  0.48379398172544713  1.0000
  Pt  Pt27      1.0  0.423347485  0.6256429799999998  0.5107656243175362  1.0000
  Pt  Pt28      1.0  0.7202497250000001  0.6276195  0.5101492019038264  1.0000
  Pt  Pt29      1.0  0.03502785500000002  0.625563  0.45412727684923226  1.0000
  Pt  Pt30      1.0  0.36836119500000003  0.625563  0.4810012540295461  1.0000
  Pb  Pb4       1.0  0.539197345  0.87531723  0.4935420895038135  1.0000
  Pb  Pb5       1.0  0.877883935  0.8762220999999999  0.5231441355883462  1.0000
  Pb  Pb6       1.0  0.201694525  0.875563  0.46756426705182785  1.0000
