data_image0
_chemical_formula_structural       CORh12Pb12
_chemical_formula_sum              "C1 O1 Rh12 Pb12"
_cell_length_a       7.351109962172193
_cell_length_b       10.02197653
_cell_length_c       99.40443985
_cell_angle_alpha    90.0
_cell_angle_beta     76.16601520880118
_cell_angle_gamma    90.0

_space_group_name_H-M_alt    "P 1"
_space_group_IT_number       1

loop_
  _space_group_symop_operation_xyz
  'x, y, z'

loop_
  _atom_site_type_symbol
  _atom_site_label
  _atom_site_symmetry_multiplicity
  _atom_site_fract_x
  _atom_site_fract_y
  _atom_site_fract_z
  _atom_site_occupancy
  C   C1        1.0  0.8885492700000001  0.08298573000000004  0.5310124566538619  1.0000
  O   O1        1.0  0.86084097  0.08298921000000004  0.5431901401319749  1.0000
  Rh  Rh1       1.0  0.55821083  0.33298682  0.48454168190834146  1.0000
  Rh  Rh2       1.0  0.06440005000000001  0.34731154000000003  0.5180771752943395  1.0000
  Rh  Rh3       1.0  0.30821083000000005  0.83298682  0.4660538005481307  1.0000
  Rh  Rh4       1.0  0.8039833  0.84017838  0.5026352507768405  1.0000
  Rh  Rh5       1.0  0.8039907199999999  0.32579100000000005  0.5026324021640806  1.0000
  Rh  Rh6       1.0  0.30821083000000005  0.33298682  0.4660538005481307  1.0000
  Rh  Rh7       1.0  0.55821083  0.83298682  0.48454168190834146  1.0000
  Rh  Rh8       1.0  0.06437931000000002  0.81870457  0.518082464307439  1.0000
  Rh  Rh9       1.0  0.9356206899999999  0.08299424000000004  0.5119625821550939  1.0000
  Rh  Rh10      1.0  0.4332108300000001  0.08298682000000003  0.47529774122823604  1.0000
  Rh  Rh11      1.0  0.67128383  0.5829826  0.4948318503155905  1.0000
  Rh  Rh12      1.0  0.18321083000000005  0.58298682  0.4568098598680254  1.0000
  Pb  Pb1       1.0  0.6832108299999999  0.24965349  0.4568098598680254  1.0000
  Pb  Pb2       1.0  0.18832865000000001  0.24894245  0.49298323078904754  1.0000
  Pb  Pb3       1.0  0.43381653000000003  0.75972303  0.5138463789432588  1.0000
  Pb  Pb4       1.0  0.9332108299999999  0.74965349  0.47529774122823604  1.0000
  Pb  Pb5       1.0  0.4338189600000001  0.40625371  0.5138459145276789  1.0000
  Pb  Pb6       1.0  0.9332108299999999  0.41632015  0.47529774122823604  1.0000
  Pb  Pb7       1.0  0.18832304000000005  0.9170145499999999  0.4929837987367629  1.0000
  Pb  Pb8       1.0  0.6832108299999999  0.91632015  0.4568098598680254  1.0000
  Pb  Pb9       1.0  0.6717767299999999  0.08298545000000003  0.4945281728134593  1.0000
  Pb  Pb10      1.0  0.18321083000000005  0.08298682000000003  0.4568098598680254  1.0000
  Pb  Pb11      1.0  0.4332108300000001  0.58298682  0.47529774122823604  1.0000
  Pb  Pb12      1.0  0.91450141  0.5830014499999999  0.5126551855198238  1.0000
