data_image0
_chemical_formula_structural       COCa2Cu10Ca2Cu10
_chemical_formula_sum              "C1 O1 Ca4 Cu20"
_cell_length_a       6.621114323381262
_cell_length_b       5.199088643034211
_cell_length_c       109.72668594000001
_cell_angle_alpha    66.8827316473462
_cell_angle_beta     76.51633953492394
_cell_angle_gamma    66.88273164477964

_space_group_name_H-M_alt    "P 1"
_space_group_IT_number       1

loop_
  _space_group_symop_operation_xyz
  'x, y, z'

loop_
  _atom_site_type_symbol
  _atom_site_label
  _atom_site_symmetry_multiplicity
  _atom_site_fract_x
  _atom_site_fract_y
  _atom_site_fract_z
  _atom_site_occupancy
  C   C1        1.0  0.22073266499999997  0.21892718500000014  0.5557656781246455  1.0000
  O   O1        1.0  0.13740684499999997  0.22204585500000013  0.5665060883362173  1.0000
  Ca  Ca1       1.0  0.20833333499999998  0.3932070850000002  0.5038927680083835  1.0000
  Ca  Ca2       1.0  0.7035949049999999  0.4116173650000002  0.5345298650365817  1.0000
  Cu  Cu1       1.0  0.04166666499999997  0.059873755000000146  0.49383579111666376  1.0000
  Cu  Cu2       1.0  0.535187825  0.07878253500000018  0.5235404830285292  1.0000
  Cu  Cu3       1.0  0.8527570749999999  0.7671133650000002  0.5432424369493551  1.0000
  Cu  Cu4       1.0  0.374999995  0.7265404150000001  0.5139497485206157  1.0000
  Cu  Cu5       1.0  0.19101563499999996  0.4110665150000002  0.5354326072924065  1.0000
  Cu  Cu6       1.0  0.708333335  0.3932070850000001  0.5038927680083835  1.0000
  Cu  Cu7       1.0  0.19715582499999998  0.9209366950000001  0.533337503488252  1.0000
  Cu  Cu8       1.0  0.708333335  0.893207085  0.5038927680083833  1.0000
  Cu  Cu9       1.0  0.4559167049999999  0.9401262450000001  0.5477713036946195  1.0000
  Cu  Cu10      1.0  0.958333335  0.893207085  0.5189782387767319  1.0000
  Ca  Ca3       1.0  0.20833333499999998  0.3932070850000002  0.443550892176015  1.0000
  Ca  Ca4       1.0  0.708333335  0.3932070850000001  0.47372183009219926  1.0000
  Cu  Cu11      1.0  0.04166666499999997  0.059873755000000146  0.43349391166378276  1.0000
  Cu  Cu12      1.0  0.5416666649999999  0.05987375500000018  0.46366484957996695  1.0000
  Cu  Cu13      1.0  0.8749999949999998  0.7265404150000001  0.4837788106044315  1.0000
  Cu  Cu14      1.0  0.374999995  0.7265404150000001  0.45360786906773465  1.0000
  Cu  Cu15      1.0  0.20833333499999998  0.3932070850000002  0.47372183009219926  1.0000
  Cu  Cu16      1.0  0.708333335  0.3932070850000001  0.443550892176015  1.0000
  Cu  Cu17      1.0  0.20833333499999998  0.893207085  0.4737218300921992  1.0000
  Cu  Cu18      1.0  0.708333335  0.893207085  0.443550892176015  1.0000
  Cu  Cu19      1.0  0.45833333499999995  0.8932070850000002  0.48880730086054763  1.0000
  Cu  Cu20      1.0  0.958333335  0.893207085  0.4586363593238508  1.0000
