data_image0
_chemical_formula_structural       CORh3Pb3Rh3Pb3
_chemical_formula_sum              "C1 O1 Rh6 Pb6"
_cell_length_a       5.78619085
_cell_length_b       5.786190849885836
_cell_length_c       101.73927918
_cell_angle_alpha    90.0
_cell_angle_beta     90.0
_cell_angle_gamma    119.99999994348252

_space_group_name_H-M_alt    "P 1"
_space_group_IT_number       1

loop_
  _space_group_symop_operation_xyz
  'x, y, z'

loop_
  _atom_site_type_symbol
  _atom_site_label
  _atom_site_symmetry_multiplicity
  _atom_site_fract_x
  _atom_site_fract_y
  _atom_site_fract_z
  _atom_site_occupancy
  C   C1        1.0  3.848000000003331e-05  0.666719695  0.5375439789433883  1.0000
  O   O1        1.0  0.9999865800000001  0.6665919050000001  0.5490803122101219  1.0000
  Rh  Rh1       1.0  1.9670000000014335e-05  0.6666666649999999  0.47320303147906595  1.0000
  Rh  Rh2       1.0  0.50001967  0.6666666649999999  0.47320303147906595  1.0000
  Rh  Rh3       1.0  0.50001967  0.166666665  0.47320303147906595  1.0000
  Pb  Pb1       1.0  0.66668634  0.49999999500000003  0.45091968778987807  1.0000
  Pb  Pb2       1.0  0.333353  0.8333333350000001  0.45091968778987807  1.0000
  Pb  Pb3       1.0  1.9670000000043114e-05  0.166666665  0.47320303147906595  1.0000
  Rh  Rh4       1.0  7.460000000006864e-05  0.666818805  0.5195103065211658  1.0000
  Rh  Rh5       1.0  0.4999595200000001  0.666617725  0.5165832996900092  1.0000
  Rh  Rh6       1.0  0.50013925  0.16671978499999998  0.5164710134732468  1.0000
  Pb  Pb4       1.0  0.6679613200000001  0.5002185349999999  0.49563867424907854  1.0000
  Pb  Pb5       1.0  0.33208275  0.8331034449999999  0.4956382967692289  1.0000
  Pb  Pb6       1.0  1.341999999993071e-05  0.166745365  0.5195285628193486  1.0000
