data_image0
_chemical_formula_structural       COCa8Zn16
_chemical_formula_sum              "C1 O1 Ca8 Zn16"
_cell_length_a       10.64309582121849
_cell_length_b       5.732820955544796
_cell_length_c       112.57238328
_cell_angle_alpha    74.37612656987041
_cell_angle_beta     114.81748431811789
_cell_angle_gamma    74.37612648101583

_space_group_name_H-M_alt    "P 1"
_space_group_IT_number       1

loop_
  _space_group_symop_operation_xyz
  'x, y, z'

loop_
  _atom_site_type_symbol
  _atom_site_label
  _atom_site_symmetry_multiplicity
  _atom_site_fract_x
  _atom_site_fract_y
  _atom_site_fract_z
  _atom_site_occupancy
  C   C1        1.0  0.81304128  0.9095484450000001  0.5413899938255047  1.0000
  O   O1        1.0  0.8732454099999999  0.816527955  0.554338433221569  1.0000
  Ca  Ca1       1.0  0.9113065  0.405997885  0.5272873480296787  1.0000
  Ca  Ca2       1.0  0.41157777999999995  0.41872267500000004  0.47833346037682883  1.0000
  Ca  Ca3       1.0  0.9949111100000001  0.08538933499999997  0.48621216458399374  1.0000
  Ca  Ca4       1.0  0.5026420899999999  0.079991135  0.5338679037790751  1.0000
  Ca  Ca5       1.0  0.18642272999999993  0.08538933499999997  0.46810580270328517  1.0000
  Ca  Ca6       1.0  0.68123078  0.09258578499999986  0.5145771720322954  1.0000
  Ca  Ca7       1.0  0.09875175999999994  0.424114895  0.5068740293342167  1.0000
  Ca  Ca8       1.0  0.6030893999999999  0.41872267500000004  0.46022709471434153  1.0000
  Zn  Zn1       1.0  0.049000259999999934  0.7520560050000001  0.4495835132458942  1.0000
  Zn  Zn2       1.0  0.5490002599999999  0.7520560050000001  0.4968557460524412  1.0000
  Zn  Zn3       1.0  0.2847679999999999  0.7648234450000001  0.5193959408281139  1.0000
  Zn  Zn4       1.0  0.79900026  0.7520560050000001  0.4732196296491677  1.0000
  Zn  Zn5       1.0  0.75751769  0.4179862950000001  0.49293379958497796  1.0000
  Zn  Zn6       1.0  0.2575176899999999  0.417986295  0.44566156677843105  1.0000
  Zn  Zn7       1.0  0.34048282999999996  0.5850211550000002  0.5007776925199042  1.0000
  Zn  Zn8       1.0  0.8404828299999999  0.5850211550000001  0.45350545971335726  1.0000
  Zn  Zn9       1.0  0.09103510999999993  0.5850211549999998  0.47719379491587816  1.0000
  Zn  Zn10      1.0  0.57276875  0.602458785  0.5233922748811214  1.0000
  Zn  Zn11      1.0  0.005088889999999936  0.9200088650000002  0.5166456650141008  1.0000
  Zn  Zn12      1.0  0.5069654  0.9190908650000003  0.4692454681642358  1.0000
  Zn  Zn13      1.0  0.75751769  0.9190908649999997  0.492933799584978  1.0000
  Zn  Zn14      1.0  0.2575176899999999  0.9190908650000003  0.4456615667784311  1.0000
  Zn  Zn15      1.0  0.34048282999999996  0.08612571499999998  0.5007776925199042  1.0000
  Zn  Zn16      1.0  0.8404828299999999  0.08612571499999998  0.45350545971335726  1.0000
