data_image0
_chemical_formula_structural       COCo4Mn4Sb4Co4Mn4Sb4Co4Mn4Sb4Co4Mn4Sb4
_chemical_formula_sum              "C1 O1 Co16 Mn16 Sb16"
_cell_length_a       8.1424665
_cell_length_b       8.1424665
_cell_length_c       104.54555967
_cell_angle_alpha    90.0
_cell_angle_beta     90.0
_cell_angle_gamma    90.0

_space_group_name_H-M_alt    "P 1"
_space_group_IT_number       1

loop_
  _space_group_symop_operation_xyz
  'x, y, z'

loop_
  _atom_site_type_symbol
  _atom_site_label
  _atom_site_symmetry_multiplicity
  _atom_site_fract_x
  _atom_site_fract_y
  _atom_site_fract_z
  _atom_site_occupancy
  C   C1        1.0  0.25145808999999997  0.6248705050000001  0.5509050705903579  1.0000
  O   O1        1.0  0.25146081  0.624877615  0.5622050875275657  1.0000
  Co  Co1       1.0  0.0014575899999999422  0.12487549500000002  0.4653311993611533  1.0000
  Co  Co2       1.0  0.25145758999999995  0.374875495  0.43779491247243446  1.0000
  Co  Co3       1.0  0.0012218499999999423  0.124864385  0.5204259784012264  1.0000
  Co  Co4       1.0  0.25145758999999995  0.374875495  0.4928674862498722  1.0000
  Mn  Mn1       1.0  0.25145758999999995  0.12487549500000002  0.4790993444576901  1.0000
  Mn  Mn2       1.0  0.0014575899999999422  0.374875495  0.45156305426461657  1.0000
  Mn  Mn3       1.0  0.25146011999999995  0.12489459500000001  0.5315680901471319  1.0000
  Mn  Mn4       1.0  0.0019175099999999422  0.374617515  0.5079822516554106  1.0000
  Sb  Sb1       1.0  0.25145758999999995  0.12487549500000002  0.45156305426461657  1.0000
  Sb  Sb2       1.0  0.0014575899999999422  0.374875495  0.4790993444576901  1.0000
  Sb  Sb3       1.0  0.2514576199999999  0.12487549500000002  0.506139535379075  1.0000
  Sb  Sb4       1.0  0.9993324100000001  0.378276675  0.5356539509939499  1.0000
  Co  Co5       1.0  0.0014575899999999422  0.6248754950000001  0.4653311993611533  1.0000
  Co  Co6       1.0  0.25145758999999995  0.8748754950000001  0.43779491247243446  1.0000
  Co  Co7       1.0  0.0006675899999999422  0.6248808750000001  0.519996478395671  1.0000
  Co  Co8       1.0  0.25145758999999995  0.8748754950000001  0.4928674862498722  1.0000
  Mn  Mn5       1.0  0.25145758999999995  0.6248754950000001  0.4790993444576901  1.0000
  Mn  Mn6       1.0  0.0014575899999999422  0.8748754950000001  0.45156305426461657  1.0000
  Mn  Mn7       1.0  0.25145836999999993  0.624856455  0.5337022703216827  1.0000
  Mn  Mn8       1.0  0.0019203099999999423  0.8751267149999999  0.5079822880033106  1.0000
  Sb  Sb5       1.0  0.25145758999999995  0.6248754950000001  0.45156305426461657  1.0000
  Sb  Sb6       1.0  0.0014575899999999422  0.8748754950000001  0.4790993444576901  1.0000
  Sb  Sb7       1.0  0.2514576199999999  0.6248754950000001  0.506139535379075  1.0000
  Sb  Sb8       1.0  0.9993321599999999  0.871470465  0.5356552099530368  1.0000
  Co  Co9       1.0  0.50145759  0.12487549500000002  0.4653311993611533  1.0000
  Co  Co10      1.0  0.75145759  0.374875495  0.43779491247243446  1.0000
  Co  Co11      1.0  0.5016942199999999  0.124878825  0.5204262493583003  1.0000
  Co  Co12      1.0  0.75145759  0.374875495  0.4928674862498722  1.0000
  Mn  Mn9       1.0  0.75145759  0.12487549500000002  0.4790993444576901  1.0000
  Mn  Mn10      1.0  0.50145759  0.374875495  0.45156305426461657  1.0000
  Mn  Mn11      1.0  0.7514628  0.12489372500000001  0.5314301663878468  1.0000
  Mn  Mn12      1.0  0.50099647  0.374610785  0.5079825126994206  1.0000
  Sb  Sb9       1.0  0.75145759  0.12487549500000002  0.45156305426461657  1.0000
  Sb  Sb10      1.0  0.50145759  0.374875495  0.4790993444576901  1.0000
  Sb  Sb11      1.0  0.75145762  0.12487549500000002  0.506139535379075  1.0000
  Sb  Sb12      1.0  0.5035836499999999  0.378278385  0.535654017081041  1.0000
  Co  Co13      1.0  0.50145759  0.6248754950000001  0.4653311993611533  1.0000
  Co  Co14      1.0  0.75145759  0.8748754950000001  0.43779491247243446  1.0000
  Co  Co15      1.0  0.50224811  0.6248738450000001  0.5199963957868069  1.0000
  Co  Co16      1.0  0.75145759  0.8748754950000001  0.4928674862498722  1.0000
  Mn  Mn13      1.0  0.75145759  0.6248754950000001  0.4790993444576901  1.0000
  Mn  Mn14      1.0  0.50145759  0.8748754950000001  0.45156305426461657  1.0000
  Mn  Mn15      1.0  0.7514599399999999  0.624863345  0.5316948154488172  1.0000
  Mn  Mn16      1.0  0.5009956  0.875135615  0.5079824267862021  1.0000
  Sb  Sb13      1.0  0.75145759  0.6248754950000001  0.45156305426461657  1.0000
  Sb  Sb14      1.0  0.50145759  0.8748754950000001  0.4790993444576901  1.0000
  Sb  Sb15      1.0  0.75145762  0.6248754950000001  0.506139535379075  1.0000
  Sb  Sb16      1.0  0.50358353  0.871473075  0.5356551471703002  1.0000
