data_image0
_chemical_formula_structural       COCa6In12Pt6Ca6In12Pt6
_chemical_formula_sum              "C1 O1 Ca12 In24 Pt12"
_cell_length_a       9.896538203858974
_cell_length_b       8.99212788
_cell_length_c       109.99684464
_cell_angle_alpha    90.0
_cell_angle_beta     86.51263564894568
_cell_angle_gamma    103.12953624612182

_space_group_name_H-M_alt    "P 1"
_space_group_IT_number       1

loop_
  _space_group_symop_operation_xyz
  'x, y, z'

loop_
  _atom_site_type_symbol
  _atom_site_label
  _atom_site_symmetry_multiplicity
  _atom_site_fract_x
  _atom_site_fract_y
  _atom_site_fract_z
  _atom_site_occupancy
  C   C1        1.0  0.345274565  0.08799791500000012  0.5605461931346526  1.0000
  O   O1        1.0  0.34458179499999997  0.08844999500000013  0.5712130976254406  1.0000
  Ca  Ca1       1.0  0.11965765499999996  0.03054546500000013  0.509590925780734  1.0000
  Ca  Ca2       1.0  0.7863243249999999  0.19721213500000015  0.4287869023745594  1.0000
  Ca  Ca3       1.0  0.452990995  0.36387879500000014  0.4691889140776467  1.0000
  Ca  Ca4       1.0  0.547838415  0.13723790500000016  0.5187932019818827  1.0000
  Ca  Ca5       1.0  0.20930448499999996  0.30295717500000013  0.4381221718990618  1.0000
  Ca  Ca6       1.0  0.875971155  0.4696238450000002  0.4785241836021491  1.0000
  In  In1       1.0  0.05990145499999996  0.015331855000000125  0.5406273858432042  1.0000
  In  In2       1.0  0.7261471349999999  0.18216784500000016  0.4601456335308234  1.0000
  In  In3       1.0  0.39281380499999996  0.34883450500000013  0.5005476452339106  1.0000
  In  In4       1.0  0.7983783649999999  0.44990904500000023  0.5255029596782487  1.0000
  In  In5       1.0  0.46142003499999995  0.11598606500000014  0.44410236985778356  1.0000
  In  In6       1.0  0.12808669499999997  0.28265273500000015  0.48450438156087083  1.0000
  In  In7       1.0  0.602815005  0.1513348050000001  0.48756746414897234  1.0000
  In  In8       1.0  0.26658408499999997  0.3100583450000002  0.5283531838615438  1.0000
  In  In9       1.0  0.9361483349999998  0.48466814500000016  0.44716545244588507  1.0000
  In  In10      1.0  0.867542115  0.21751657500000016  0.5036107278220122  1.0000
  In  In11      1.0  0.5291611049999999  0.39093752500000023  0.5431484301886353  1.0000
  In  In12      1.0  0.20087544499999996  0.05084991500000013  0.46320871611892495  1.0000
  Pt  Pt1       1.0  0.980414955  0.2455114950000002  0.526433523870347  1.0000
  Pt  Pt2       1.0  0.642710425  0.4113086650000002  0.4461937739542062  1.0000
  Pt  Pt3       1.0  0.30937709499999994  0.07797532500000012  0.48659578565729333  1.0000
  Pt  Pt4       1.0  0.6862517149999999  0.4221939850000002  0.5015193237255896  1.0000
  Pt  Pt5       1.0  0.350886685  0.08813923500000012  0.5432270626046989  1.0000
  Pt  Pt6       1.0  0.019585044999999968  0.25552731500000014  0.4611173120225024  1.0000
  Ca  Ca7       1.0  0.11965765499999996  0.5305454650000001  0.509590925780734  1.0000
  Ca  Ca8       1.0  0.7863243249999999  0.6972121350000001  0.4287869023745594  1.0000
  Ca  Ca9       1.0  0.452990995  0.8638787950000002  0.4691889140776467  1.0000
  Ca  Ca10      1.0  0.547371035  0.637629935  0.5183173495074059  1.0000
  Ca  Ca11      1.0  0.20930448499999996  0.8029571750000001  0.4381221718990618  1.0000
  Ca  Ca12      1.0  0.875971155  0.9696238450000002  0.4785241836021491  1.0000
  In  In13      1.0  0.06997448499999996  0.518012825  0.5407025857043191  1.0000
  In  In14      1.0  0.7261471349999999  0.682167845  0.4601456335308234  1.0000
  In  In15      1.0  0.39281380499999996  0.848834505  0.5005476452339106  1.0000
  In  In16      1.0  0.796144655  0.9498800950000004  0.5256762055262646  1.0000
  In  In17      1.0  0.46142003499999995  0.615986065  0.44410236985778356  1.0000
  In  In18      1.0  0.12808669499999997  0.7826527350000002  0.48450438156087083  1.0000
  In  In19      1.0  0.602815005  0.6513348050000001  0.48756746414897234  1.0000
  In  In20      1.0  0.26646051499999995  0.8237753050000002  0.5283408462991067  1.0000
  In  In21      1.0  0.9361483349999998  0.9846681450000001  0.44716545244588507  1.0000
  In  In22      1.0  0.867542115  0.7175165750000001  0.5036107278220122  1.0000
  In  In23      1.0  0.5278746449999999  0.8743289150000002  0.5432266735333222  1.0000
  In  In24      1.0  0.20087544499999996  0.5508499150000001  0.46320871611892495  1.0000
  Pt  Pt7       1.0  0.9804129349999999  0.7456481050000001  0.5264470977343547  1.0000
  Pt  Pt8       1.0  0.642710425  0.9113086650000003  0.4461937739542062  1.0000
  Pt  Pt9       1.0  0.30937709499999994  0.5779753250000003  0.48659578565729333  1.0000
  Pt  Pt10      1.0  0.6862517149999999  0.9221939850000002  0.5015193237255896  1.0000
  Pt  Pt11      1.0  0.36229997499999994  0.5907519150000002  0.5397952530732023  1.0000
  Pt  Pt12      1.0  0.019585044999999968  0.7555273150000001  0.4611173120225024  1.0000
