data_image0
_chemical_formula_structural       COAu8Pd16Zn8
_chemical_formula_sum              "C1 O1 Au8 Pd16 Zn8"
_cell_length_a       4.51009599
_cell_length_b       11.04743387
_cell_length_c       101.24686162
_cell_angle_alpha    90.0
_cell_angle_beta     90.0
_cell_angle_gamma    90.0

_space_group_name_H-M_alt    "P 1"
_space_group_IT_number       1

loop_
  _space_group_symop_operation_xyz
  'x, y, z'

loop_
  _atom_site_type_symbol
  _atom_site_label
  _atom_site_symmetry_multiplicity
  _atom_site_fract_x
  _atom_site_fract_y
  _atom_site_fract_z
  _atom_site_occupancy
  C   C1        1.0  0.24999112999999995  0.13623749000000002  0.5487301810501071  1.0000
  O   O1        1.0  0.24999290999999993  0.13553619  0.5602068162252365  1.0000
  Au  Au1       1.0  0.7499949399999999  0.5455930999999999  0.4397931837747636  1.0000
  Au  Au2       1.0  0.7499949399999999  0.21225977000000001  0.46551156150203366  1.0000
  Au  Au3       1.0  0.7499949399999999  0.8789264400000001  0.4912299392293037  1.0000
  Au  Au4       1.0  0.75000887  0.5295737699999999  0.5189161463622676  1.0000
  Au  Au5       1.0  0.24999493999999994  0.8789264400000001  0.4526523710952959  1.0000
  Au  Au6       1.0  0.24999493999999994  0.5455930999999999  0.4783707519087713  1.0000
  Au  Au7       1.0  0.24999176999999995  0.2138545  0.5040869631198149  1.0000
  Au  Au8       1.0  0.24999462999999994  0.8890346499999999  0.5301983598526179  1.0000
  Pd  Pd1       1.0  0.2500154399999999  0.46701224999999996  0.5036538728227099  1.0000
  Pd  Pd2       1.0  0.24999466999999997  0.14469175  0.5298408075201245  1.0000
  Pd  Pd3       1.0  0.24999493999999994  0.12892644  0.4526523710952959  1.0000
  Pd  Pd4       1.0  0.24999493999999994  0.7955930999999998  0.4783707519087713  1.0000
  Pd  Pd5       1.0  0.7499949399999999  0.62892644  0.4912299392293037  1.0000
  Pd  Pd6       1.0  0.74999041  0.28155881  0.5173080327190878  1.0000
  Pd  Pd7       1.0  0.7499949399999999  0.2955931  0.4397931837747636  1.0000
  Pd  Pd8       1.0  0.7499949399999999  0.9622597700000001  0.46551156150203366  1.0000
  Pd  Pd9       1.0  0.7499949399999999  0.46225976999999996  0.46551156150203366  1.0000
  Pd  Pd10      1.0  0.7499949399999999  0.12892644  0.4912299392293037  1.0000
  Pd  Pd11      1.0  0.74998552  0.7890772599999999  0.5168365407675594  1.0000
  Pd  Pd12      1.0  0.7499949399999999  0.7955930999999998  0.4397931837747636  1.0000
  Pd  Pd13      1.0  0.24999493999999994  0.62892644  0.4526523710952959  1.0000
  Pd  Pd14      1.0  0.24999493999999994  0.2955931  0.4783707519087713  1.0000
  Pd  Pd15      1.0  0.24999462999999994  0.9651916199999999  0.5041908046746153  1.0000
  Pd  Pd16      1.0  0.25000737999999995  0.64033595  0.5269541283379985  1.0000
  Zn  Zn1       1.0  0.24999650999999992  0.38767117  0.5275159164886042  1.0000
  Zn  Zn2       1.0  0.24999493999999994  0.37892644000000003  0.4526523710952959  1.0000
  Zn  Zn3       1.0  0.24999493999999994  0.0455931  0.4783707519087713  1.0000
  Zn  Zn4       1.0  0.24999462999999994  0.71859907  0.5033524493087489  1.0000
  Zn  Zn5       1.0  0.7499949399999999  0.71225977  0.46551156150203366  1.0000
  Zn  Zn6       1.0  0.7499949399999999  0.37892644000000003  0.4912299392293037  1.0000
  Zn  Zn7       1.0  0.7499930799999999  0.03480838  0.5176679768608055  1.0000
  Zn  Zn8       1.0  0.7499949399999999  0.0455931  0.4397931837747636  1.0000
