data_image0
_chemical_formula_structural       COAl6Pd10Al6Pd10
_chemical_formula_sum              "C1 O1 Al12 Pd20"
_cell_length_a       5.46973264
_cell_length_b       10.67962189
_cell_length_c       98.74379326
_cell_angle_alpha    90.0
_cell_angle_beta     90.0
_cell_angle_gamma    90.0

_space_group_name_H-M_alt    "P 1"
_space_group_IT_number       1

loop_
  _space_group_symop_operation_xyz
  'x, y, z'

loop_
  _atom_site_type_symbol
  _atom_site_label
  _atom_site_symmetry_multiplicity
  _atom_site_fract_x
  _atom_site_fract_y
  _atom_site_fract_z
  _atom_site_occupancy
  C   C1        1.0  0.41225352  0.8226138350000001  0.5328815111164203  1.0000
  O   O1        1.0  0.42615811  0.8384759049999999  0.5447300602842079  1.0000
  Al  Al1       1.0  0.00985455999999998  0.0033701149999999973  0.4760624167024864  1.0000
  Al  Al2       1.0  0.50985456  0.5033701150000001  0.4760624167024864  1.0000
  Al  Al3       1.0  0.17081501999999998  0.360442945  0.45526993971579216  1.0000
  Al  Al4       1.0  0.8488941  0.646297285  0.45526993971579216  1.0000
  Al  Al5       1.0  0.6708150199999999  0.146297285  0.45526993971579216  1.0000
  Al  Al6       1.0  0.34889409999999993  0.860442945  0.45526993971579216  1.0000
  Pd  Pd1       1.0  0.19628790999999998  0.10888239499999999  0.45526993971579216  1.0000
  Pd  Pd2       1.0  0.8234212099999999  0.897857835  0.45526993971579216  1.0000
  Pd  Pd3       1.0  0.69628791  0.397857835  0.45526993971579216  1.0000
  Pd  Pd4       1.0  0.32342121  0.608882395  0.45526993971579216  1.0000
  Pd  Pd5       1.0  0.00985455999999998  0.5033701150000001  0.4760624167024864  1.0000
  Pd  Pd6       1.0  0.50985456  0.0033701149999999973  0.4760624167024864  1.0000
  Pd  Pd7       1.0  0.9134329599999998  0.23596645500000002  0.4760624167024864  1.0000
  Pd  Pd8       1.0  0.10627615999999998  0.7707737749999999  0.4760624167024864  1.0000
  Pd  Pd9       1.0  0.41343296  0.270773775  0.4760624167024864  1.0000
  Pd  Pd10      1.0  0.60627616  0.7359664549999999  0.4760624167024864  1.0000
  Al  Al7       1.0  0.9905862499999999  0.012194094999999997  0.5179163043212451  1.0000
  Al  Al8       1.0  0.5170586699999999  0.501455165  0.5179521642753222  1.0000
  Al  Al9       1.0  0.16073342  0.36130823500000003  0.4972240745217014  1.0000
  Al  Al10      1.0  0.8592832899999998  0.6467020250000001  0.4970246659305705  1.0000
  Al  Al11      1.0  0.65900127  0.147966935  0.49746879491128704  1.0000
  Al  Al12      1.0  0.35675  0.859397545  0.49657413577776083  1.0000
  Pd  Pd11      1.0  0.18760822  0.10959208499999999  0.4967335363155729  1.0000
  Pd  Pd12      1.0  0.83611286  0.894551605  0.49688533346024827  1.0000
  Pd  Pd13      1.0  0.6882239299999999  0.39698775500000005  0.4965543675377952  1.0000
  Pd  Pd14      1.0  0.33509843  0.611185045  0.49670857494645115  1.0000
  Pd  Pd15      1.0  0.00941374999999998  0.5093825850000001  0.5164503049193069  1.0000
  Pd  Pd16      1.0  0.493795  0.9966298849999999  0.516756134815828  1.0000
  Pd  Pd17      1.0  0.8782591999999999  0.236427145  0.5175744252591025  1.0000
  Pd  Pd18      1.0  0.14044043999999994  0.7878793750000002  0.5186197666446658  1.0000
  Pd  Pd19      1.0  0.37855353  0.27799677500000003  0.5174079220110097  1.0000
  Pd  Pd20      1.0  0.63534706  0.7327657550000001  0.5184005461493667  1.0000
