data_image0
_chemical_formula_structural       COCa20Zn12
_chemical_formula_sum              "C1 O1 Ca20 Zn12"
_cell_length_a       9.61417092
_cell_length_b       9.614170918088735
_cell_length_c       104.01466160999999
_cell_angle_alpha    90.0
_cell_angle_beta     90.0
_cell_angle_gamma    107.73396178716197

_space_group_name_H-M_alt    "P 1"
_space_group_IT_number       1

loop_
  _space_group_symop_operation_xyz
  'x, y, z'

loop_
  _atom_site_type_symbol
  _atom_site_label
  _atom_site_symmetry_multiplicity
  _atom_site_fract_x
  _atom_site_fract_y
  _atom_site_fract_z
  _atom_site_occupancy
  C   C1        1.0  0.36871633  0.368717925  0.551784335874782  1.0000
  O   O1        1.0  0.33153464000000005  0.331532065  0.5626941191165321  1.0000
  Ca  Ca1       1.0  0.9958822999999999  0.9958810549999999  0.5320609021402565  1.0000
  Ca  Ca2       1.0  0.5041176999999999  0.504118945  0.4773444023118619  1.0000
  Ca  Ca3       1.0  0.004117700000000033  0.004118944999999996  0.4773444023118619  1.0000
  Ca  Ca4       1.0  0.5060278200000001  0.5060304449999999  0.5328905466842934  1.0000
  Ca  Ca5       1.0  0.12091550000000001  0.406202415  0.5395468989903658  1.0000
  Ca  Ca6       1.0  0.60702419  0.9012124549999998  0.4860164998139665  1.0000
  Ca  Ca7       1.0  0.9365803400000001  0.230768605  0.5045959004858325  1.0000
  Ca  Ca8       1.0  0.43658034  0.730768605  0.4500929074080709  1.0000
  Ca  Ca9       1.0  0.7774680399999999  0.071656305  0.4500929074080709  1.0000
  Ca  Ca10      1.0  0.2774680400000001  0.571656305  0.5045959004858325  1.0000
  Ca  Ca11      1.0  0.5716550600000001  0.277469285  0.5045959004858325  1.0000
  Ca  Ca12      1.0  0.07165506000000005  0.777469285  0.4500929074080709  1.0000
  Ca  Ca13      1.0  0.7307673600000001  0.436581585  0.4500929074080709  1.0000
  Ca  Ca14      1.0  0.23076736  0.9365815849999999  0.5045959004858325  1.0000
  Ca  Ca15      1.0  0.40620090000000003  0.12091684499999998  0.5395467616428259  1.0000
  Ca  Ca16      1.0  0.90121121  0.607025435  0.4860164998139665  1.0000
  Ca  Ca17      1.0  0.9048751799999999  0.598139605  0.5214579434919011  1.0000
  Ca  Ca18      1.0  0.40121121  0.107025435  0.46867230807993676  1.0000
  Ca  Ca19      1.0  0.5981403  0.9048769449999999  0.521457999084953  1.0000
  Ca  Ca20      1.0  0.10702419000000002  0.40121245499999997  0.46867230807993676  1.0000
  Zn  Zn1       1.0  0.76030822  0.250442475  0.530265563773643  1.0000
  Zn  Zn2       1.0  0.25411770000000006  0.754118945  0.4773444023118619  1.0000
  Zn  Zn3       1.0  0.7541177  0.254118945  0.4773444023118619  1.0000
  Zn  Zn4       1.0  0.25044134  0.760309895  0.5302654950998732  1.0000
  Zn  Zn5       1.0  0.25248001000000003  0.252482235  0.5176128075499214  1.0000
  Zn  Zn6       1.0  0.7541177000000001  0.754118945  0.4628799339326739  1.0000
  Zn  Zn7       1.0  0.37142342  0.371424665  0.4500929074080709  1.0000
  Zn  Zn8       1.0  0.8714234199999998  0.8714246649999999  0.5045959004858325  1.0000
  Zn  Zn9       1.0  0.63681198  0.636813225  0.5045959004858325  1.0000
  Zn  Zn10      1.0  0.13681198000000003  0.13681322499999998  0.4500929074080709  1.0000
  Zn  Zn11      1.0  0.7541177000000001  0.754118945  0.43730588088346783  1.0000
  Zn  Zn12      1.0  0.2541177  0.254118945  0.4918088739612294  1.0000
