data_image0
_chemical_formula_structural       COCa12Al4Sb12
_chemical_formula_sum              "C1 O1 Ca12 Al4 Sb12"
_cell_length_a       4.57084948
_cell_length_b       13.103733
_cell_length_c       113.49062076999999
_cell_angle_alpha    90.0
_cell_angle_beta     90.0
_cell_angle_gamma    90.0

_space_group_name_H-M_alt    "P 1"
_space_group_IT_number       1

loop_
  _space_group_symop_operation_xyz
  'x, y, z'

loop_
  _atom_site_type_symbol
  _atom_site_label
  _atom_site_symmetry_multiplicity
  _atom_site_fract_x
  _atom_site_fract_y
  _atom_site_fract_z
  _atom_site_occupancy
  C   C1        1.0  0.75019381  0.53423119  0.558489269033257  1.0000
  O   O1        1.0  0.75018597  0.48496293999999995  0.5670074826610778  1.0000
  Ca  Ca1       1.0  0.25015104000000005  0.55812201  0.49207062140114965  1.0000
  Ca  Ca2       1.0  0.75015104  0.44187799  0.4634366858997065  1.0000
  Ca  Ca3       1.0  0.25015104000000005  0.05812201000000001  0.5273048404298698  1.0000
  Ca  Ca4       1.0  0.7500175000000001  0.94114124  0.5563007742588545  1.0000
  Ca  Ca5       1.0  0.2501818200000001  0.33235019  0.5418076587695743  1.0000
  Ca  Ca6       1.0  0.75004379  0.65932339  0.5404948769026836  1.0000
  Ca  Ca7       1.0  0.25015104000000005  0.84997827  0.47732676080451736  1.0000
  Ca  Ca8       1.0  0.75015104  0.15002173  0.4781805426642493  1.0000
  Ca  Ca9       1.0  0.75015104  0.72756401  0.4495620083302056  1.0000
  Ca  Ca10      1.0  0.25015104000000005  0.27243599  0.5059452989706505  1.0000
  Ca  Ca11      1.0  0.75015104  0.22756401  0.4420771406083978  1.0000
  Ca  Ca12      1.0  0.25015104000000005  0.7724359899999999  0.5134301628603689  1.0000
  Al  Al1       1.0  0.25015104000000005  0.56785933  0.4398672321182878  1.0000
  Al  Al2       1.0  0.75015104  0.43214067  0.5156400751825683  1.0000
  Al  Al3       1.0  0.25015104000000005  0.06785933  0.45177191682031553  1.0000
  Al  Al4       1.0  0.75015104  0.9321406699999999  0.5037353904805406  1.0000
  Sb  Sb1       1.0  0.25004444000000003  0.76889004  0.554027785744718  1.0000
  Sb  Sb2       1.0  0.75015104  0.24339198  0.5264807151101986  1.0000
  Sb  Sb3       1.0  0.25015104000000005  0.25660802  0.4626125567479459  1.0000
  Sb  Sb4       1.0  0.75015104  0.74339198  0.49289474672082084  1.0000
  Sb  Sb5       1.0  0.25015104000000005  0.6141826  0.46379552658556156  1.0000
  Sb  Sb6       1.0  0.75015104  0.3858174  0.49171177688320505  1.0000
  Sb  Sb7       1.0  0.24980619000000004  0.12638651  0.5553526885104604  1.0000
  Sb  Sb8       1.0  0.75015104  0.8858173999999999  0.5276636849478145  1.0000
  Sb  Sb9       1.0  0.25015104000000005  0.54009389  0.5225147899619339  1.0000
  Sb  Sb10      1.0  0.75015104  0.45990611  0.43299251733892224  1.0000
  Sb  Sb11      1.0  0.25015104000000005  0.04009389000000001  0.49686067570117504  1.0000
  Sb  Sb12      1.0  0.75015104  0.9599061099999999  0.4586466315996811  1.0000
