data_image0
_chemical_formula_structural       COAl12Fe6Ni6
_chemical_formula_sum              "C1 O1 Al12 Fe6 Ni6"
_cell_length_a       5.79165468
_cell_length_b       7.093299360551019
_cell_length_c       101.18901493999999
_cell_angle_alpha    94.34775317745776
_cell_angle_beta     90.0
_cell_angle_gamma    114.09484257252073

_space_group_name_H-M_alt    "P 1"
_space_group_IT_number       1

loop_
  _space_group_symop_operation_xyz
  'x, y, z'

loop_
  _atom_site_type_symbol
  _atom_site_label
  _atom_site_symmetry_multiplicity
  _atom_site_fract_x
  _atom_site_fract_y
  _atom_site_fract_z
  _atom_site_occupancy
  C   C1        1.0  0.14645957999999995  0.19924030500000003  0.5376421863747691  1.0000
  O   O1        1.0  0.16537069999999998  0.20205269500000003  0.5492307334937839  1.0000
  Al  Al1       1.0  0.46478511999999994  0.40005956500000006  0.4507692665062156  1.0000
  Al  Al2       1.0  0.29270077  0.05827376500000002  0.5020853553191464  1.0000
  Al  Al3       1.0  0.88145179  0.23339289500000002  0.47645470751886987  1.0000
  Al  Al4       1.0  0.96478512  0.40005956500000006  0.4507692665062156  1.0000
  Al  Al5       1.0  0.79656941  0.059086725000000034  0.5023637413319005  1.0000
  Al  Al6       1.0  0.38145179  0.23339289500000002  0.47645470751886987  1.0000
  Al  Al7       1.0  0.014381549999999972  0.492713265  0.5158389417041488  1.0000
  Al  Al8       1.0  0.5897851199999999  0.6500595650000001  0.48929742956632344  1.0000
  Al  Al9       1.0  0.17311844999999992  0.816726235  0.46361198547141624  1.0000
  Al  Al10      1.0  0.51166502  0.4973233650000001  0.5156984002120647  1.0000
  Al  Al11      1.0  0.08978511999999995  0.6500595650000001  0.48929742956632344  1.0000
  Al  Al12      1.0  0.6731184499999999  0.816726235  0.46361198547141624  1.0000
  Fe  Fe1       1.0  0.6931379599999999  0.35570961500000003  0.49603467375222093  1.0000
  Fe  Fe2       1.0  0.27728512  0.5250595650000001  0.47003334803626956  1.0000
  Fe  Fe3       1.0  0.12825717999999997  0.20986986500000007  0.5203227137019502  1.0000
  Fe  Fe4       1.0  0.9856184499999999  0.941726235  0.4828760670014701  1.0000
  Fe  Fe5       1.0  0.56895179  0.10839289500000003  0.457190625988816  1.0000
  Fe  Fe6       1.0  0.40039343  0.7725227250000001  0.5083163856762297  1.0000
  Ni  Ni1       1.0  0.19221677999999998  0.35558753500000007  0.4954365286440923  1.0000
  Ni  Ni2       1.0  0.7772851199999999  0.5250595650000001  0.47003334803626956  1.0000
  Ni  Ni3       1.0  0.6088349  0.19603231500000004  0.5197153526572177  1.0000
  Ni  Ni4       1.0  0.4856184499999999  0.941726235  0.4828760670014701  1.0000
  Ni  Ni5       1.0  0.06895178999999997  0.10839289500000003  0.457190625988816  1.0000
  Ni  Ni6       1.0  0.90175897  0.7703948150000001  0.5083285482467446  1.0000
