data_image0
_chemical_formula_structural       COCa12Si12
_chemical_formula_sum              "C1 O1 Ca12 Si12"
_cell_length_a       7.070904477101924
_cell_length_b       7.070904476834978
_cell_length_c       105.86476046
_cell_angle_alpha    92.73835876624167
_cell_angle_beta     92.7383587661382
_cell_angle_gamma    99.65583033315058

_space_group_name_H-M_alt    "P 1"
_space_group_IT_number       1

loop_
  _space_group_symop_operation_xyz
  'x, y, z'

loop_
  _atom_site_type_symbol
  _atom_site_label
  _atom_site_symmetry_multiplicity
  _atom_site_fract_x
  _atom_site_fract_y
  _atom_site_fract_z
  _atom_site_occupancy
  C   C1        1.0  0.8418905849999999  0.32747155999999994  0.5577689400245156  1.0000
  O   O1        1.0  0.8946806049999999  0.27286361  0.567280608374049  1.0000
  Ca  Ca1       1.0  0.6712626349999999  0.95807775  0.45154045014404015  1.0000
  Ca  Ca2       1.0  0.060151524999999935  0.34696663999999994  0.4703615052743391  1.0000
  Ca  Ca3       1.0  0.28237374499999995  0.5691888599999999  0.43271939162595097  1.0000
  Ca  Ca4       1.0  0.7540847949999999  0.48636669999999993  0.4421299208849955  1.0000
  Ca  Ca5       1.0  0.14297368499999996  0.87525558  0.46095097940308477  1.0000
  Ca  Ca6       1.0  0.531862575  0.26414447  0.4797720345333837  1.0000
  Ca  Ca7       1.0  0.835811265  0.12602831999999997  0.5075653540476632  1.0000
  Ca  Ca8       1.0  0.22567666499999994  0.5254716799999999  0.5260648333506905  1.0000
  Ca  Ca9       1.0  0.44904041499999997  0.73585553  0.4891825637924284  1.0000
  Ca  Ca10      1.0  0.9207514649999999  0.65303336  0.498593093051473  1.0000
  Ca  Ca11      1.0  0.3161423749999999  0.04257147999999996  0.5175772194660445  1.0000
  Ca  Ca12      1.0  0.7374225350000001  0.43977310999999997  0.5360337246495953  1.0000
  Si  Si1       1.0  0.37893968499999997  0.2504006899999999  0.45154045014404015  1.0000
  Si  Si2       1.0  0.767828575  0.6392895799999999  0.4703615052743391  1.0000
  Si  Si3       1.0  0.9900508050000001  0.86151181  0.43271939162595097  1.0000
  Si  Si4       1.0  0.046407744999999945  0.19404374999999996  0.4421299208849956  1.0000
  Si  Si5       1.0  0.4352966349999999  0.58293264  0.46095097940308477  1.0000
  Si  Si6       1.0  0.8241855250000001  0.97182153  0.4797720345333837  1.0000
  Si  Si7       1.0  0.543574535  0.41566647999999995  0.5083541332544189  1.0000
  Si  Si8       1.0  0.937575265  0.82634536  0.5266040035587152  1.0000
  Si  Si9       1.0  0.15671746499999994  0.028178469999999966  0.48918256379242836  1.0000
  Si  Si10      1.0  0.21307441499999996  0.3607104199999999  0.498593093051473  1.0000
  Si  Si11      1.0  0.605512395  0.74794933  0.5178935814841026  1.0000
  Si  Si12      1.0  0.00994919499999994  0.15718667999999997  0.5340653744659647  1.0000
