data_image0
_chemical_formula_structural       COCa8Si16Ca8Si16
_chemical_formula_sum              "C1 O1 Ca16 Si32"
_cell_length_a       6.09490361
_cell_length_b       14.345448256938347
_cell_length_c       106.56942166
_cell_angle_alpha    102.26499174003303
_cell_angle_beta     90.0
_cell_angle_gamma    77.73500825996697

_space_group_name_H-M_alt    "P 1"
_space_group_IT_number       1

loop_
  _space_group_symop_operation_xyz
  'x, y, z'

loop_
  _atom_site_type_symbol
  _atom_site_label
  _atom_site_symmetry_multiplicity
  _atom_site_fract_x
  _atom_site_fract_y
  _atom_site_fract_z
  _atom_site_occupancy
  C   C1        1.0  0.468896565  0.24375113999999998  0.5611263070447032  1.0000
  O   O1        1.0  0.387718665  0.23905344999999997  0.570694912689576  1.0000
  Ca  Ca1       1.0  0.39573361499999987  0.75034838  0.4674748350572152  1.0000
  Ca  Ca2       1.0  0.8957336149999999  0.75034838  0.43887890199004737  1.0000
  Ca  Ca3       1.0  0.7707336149999999  0.50034838  0.4746238166082513  1.0000
  Ca  Ca4       1.0  0.270733615  0.50034838  0.44602788697259516  1.0000
  Ca  Ca5       1.0  0.145733615  0.25034838  0.4531768685236313  1.0000
  Ca  Ca6       1.0  0.6457336149999999  0.25034838  0.4817727981592875  1.0000
  Ca  Ca7       1.0  0.020733615  0.000348379999999974  0.43172992043901126  1.0000
  Ca  Ca8       1.0  0.520733615  0.000348379999999974  0.46032585007466736  1.0000
  Si  Si1       1.0  0.8533354149999999  0.8351447700000001  0.46989966475429096  1.0000
  Si  Si2       1.0  0.353335415  0.8351447700000001  0.44130373511863485  1.0000
  Si  Si3       1.0  0.7283354149999998  0.5851447700000001  0.44845271666967096  1.0000
  Si  Si4       1.0  0.22833541500000007  0.5851447700000001  0.47704864973683875  1.0000
  Si  Si5       1.0  0.9381318150000001  0.66555199  0.46505000192862767  1.0000
  Si  Si6       1.0  0.4381318149999999  0.66555199  0.43645407229297156  1.0000
  Si  Si7       1.0  0.813131815  0.41555199000000004  0.4436030538440077  1.0000
  Si  Si8       1.0  0.313131815  0.41555199000000004  0.4721989834796638  1.0000
  Si  Si9       1.0  0.6033354149999999  0.33514477  0.45560170165221875  1.0000
  Si  Si10      1.0  0.10333541499999997  0.33514477  0.48419763128787485  1.0000
  Si  Si11      1.0  0.9783354149999999  0.08514476999999998  0.4627506832032549  1.0000
  Si  Si12      1.0  0.47833541500000004  0.08514476999999998  0.43415475356759875  1.0000
  Si  Si13      1.0  0.6881318149999999  0.16555198999999998  0.4507520353950438  1.0000
  Si  Si14      1.0  0.18813181500000004  0.16555198999999998  0.47934796846221167  1.0000
  Si  Si15      1.0  0.563131815  0.91555199  0.4293050873104238  1.0000
  Si  Si16      1.0  0.06313181499999998  0.91555199  0.45790102037759167  1.0000
  Ca  Ca9       1.0  0.39243725499999993  0.75061818  0.5242820252991933  1.0000
  Ca  Ca10      1.0  0.8957336149999999  0.75034838  0.4960707646928713  1.0000
  Ca  Ca11      1.0  0.7685299449999999  0.5043619300000001  0.5312617338098989  1.0000
  Ca  Ca12      1.0  0.270733615  0.50034838  0.5032197462439074  1.0000
  Ca  Ca13      1.0  0.145733615  0.25034838  0.5103687312264553  1.0000
  Ca  Ca14      1.0  0.634990325  0.25270497999999997  0.5384410361982591  1.0000
  Ca  Ca15      1.0  0.020733615  0.000348379999999974  0.4889217831418352  1.0000
  Ca  Ca16      1.0  0.5190840349999999  0.9996516200000001  0.5173016682327778  1.0000
  Si  Si17      1.0  0.8421137450000001  0.83835667  0.5273587118205973  1.0000
  Si  Si18      1.0  0.353335415  0.8351447700000001  0.49849559782145875  1.0000
  Si  Si19      1.0  0.7283354149999998  0.5851447700000001  0.5056445793724949  1.0000
  Si  Si20      1.0  0.23148810500000003  0.59108799  0.5342418472977115  1.0000
  Si  Si21      1.0  0.9429516749999997  0.66794476  0.5221614128397967  1.0000
  Si  Si22      1.0  0.4381318149999999  0.66555199  0.4936459315642838  1.0000
  Si  Si23      1.0  0.813131815  0.41555199000000004  0.5007949165468317  1.0000
  Si  Si24      1.0  0.295440915  0.42033840000000006  0.5295322622108902  1.0000
  Si  Si25      1.0  0.5968562550000001  0.33655461  0.5131663809429873  1.0000
  Si  Si26      1.0  0.07774197499999998  0.33808230000000006  0.5401694337341078  1.0000
  Si  Si27      1.0  0.9792663850000002  0.08589486999999998  0.5204984542319439  1.0000
  Si  Si28      1.0  0.47833541500000004  0.08514476999999998  0.491346612838911  1.0000
  Si  Si29      1.0  0.6881318149999999  0.16555198999999998  0.5079438980978678  1.0000
  Si  Si30      1.0  0.19967608500000003  0.16774292999999998  0.5355787093493273  1.0000
  Si  Si31      1.0  0.563131815  0.91555199  0.4864969500132478  1.0000
  Si  Si32      1.0  0.05959615500000007  0.91443496  0.5155827759843203  1.0000
