data_image0
_chemical_formula_structural       COZnCu2NiZnCu2NiZnCu2NiZnCu2NiZnCu2NiZnCu2NiZnCu2NiZnCu2Ni
_chemical_formula_sum              "C1 O1 Zn8 Cu16 Ni8"
_cell_length_a       7.29833176
_cell_length_b       7.29833176
_cell_length_c       99.96925944
_cell_angle_alpha    90.0
_cell_angle_beta     90.0
_cell_angle_gamma    90.0

_space_group_name_H-M_alt    "P 1"
_space_group_IT_number       1

loop_
  _space_group_symop_operation_xyz
  'x, y, z'

loop_
  _atom_site_type_symbol
  _atom_site_label
  _atom_site_symmetry_multiplicity
  _atom_site_fract_x
  _atom_site_fract_y
  _atom_site_fract_z
  _atom_site_occupancy
  C   C1        1.0  0.052746654999999996  0.48159828499999996  0.5303458492107175  1.0000
  O   O1        1.0  0.057976214999999984  0.485827185  0.5421335054911147  1.0000
  Zn  Zn1       1.0  0.442744355  0.37593174499999993  0.4954548554840906  1.0000
  Cu  Cu1       1.0  0.444809645  0.12578712499999997  0.5135934097214856  1.0000
  Cu  Cu2       1.0  0.191713965  0.37520423499999994  0.514761404083461  1.0000
  Ni  Ni1       1.0  0.19513239500000001  0.12960208499999998  0.4956551146948786  1.0000
  Zn  Zn2       1.0  0.44701120499999997  0.37554356499999997  0.45786649450888517  1.0000
  Cu  Cu3       1.0  0.44701120499999997  0.12554356499999997  0.4766030413783175  1.0000
  Cu  Cu4       1.0  0.19701120499999997  0.37554356499999997  0.4766030413783175  1.0000
  Ni  Ni2       1.0  0.19701120499999997  0.12554356499999997  0.45786649450888517  1.0000
  Zn  Zn3       1.0  0.44723892499999995  0.8759616549999999  0.4952429196572936  1.0000
  Cu  Cu5       1.0  0.448529215  0.625855955  0.5133596885369126  1.0000
  Cu  Cu6       1.0  0.19638120499999998  0.8766224149999999  0.5133587322235604  1.0000
  Ni  Ni3       1.0  0.196759095  0.6254660949999998  0.49516003816748566  1.0000
  Zn  Zn4       1.0  0.44701120499999997  0.875543565  0.45786649450888517  1.0000
  Cu  Cu7       1.0  0.44701120499999997  0.625543565  0.4766030413783175  1.0000
  Cu  Cu8       1.0  0.19701120499999997  0.875543565  0.4766030413783175  1.0000
  Ni  Ni4       1.0  0.19701120499999997  0.625543565  0.45786649450888517  1.0000
  Zn  Zn5       1.0  0.947113195  0.37596648499999996  0.4952539547339378  1.0000
  Cu  Cu9       1.0  0.944159415  0.12337758499999998  0.5136130785989272  1.0000
  Cu  Cu10      1.0  0.693281065  0.373469705  0.513608782683461  1.0000
  Ni  Ni5       1.0  0.697136165  0.126130005  0.495561051233899  1.0000
  Zn  Zn6       1.0  0.9470112149999999  0.37554356499999997  0.45786649450888517  1.0000
  Cu  Cu11      1.0  0.9470112149999999  0.12554356499999997  0.4766030413783175  1.0000
  Cu  Cu12      1.0  0.697011215  0.37554356499999997  0.4766030413783175  1.0000
  Ni  Ni6       1.0  0.697011215  0.12554356499999997  0.45786649450888517  1.0000
  Zn  Zn7       1.0  0.947253345  0.8720365449999999  0.4954567591172525  1.0000
  Cu  Cu13      1.0  0.9454299150000001  0.620929965  0.5148104128943765  1.0000
  Cu  Cu14      1.0  0.6971292450000001  0.8748526549999999  0.5135959878703349  1.0000
  Ni  Ni7       1.0  0.7008181250000001  0.6239985349999999  0.49565803459834273  1.0000
  Zn  Zn8       1.0  0.9470112149999999  0.875543565  0.45786649450888517  1.0000
  Cu  Cu15      1.0  0.9470112149999999  0.625543565  0.4766030413783175  1.0000
  Cu  Cu16      1.0  0.697011215  0.875543565  0.4766030413783175  1.0000
  Ni  Ni8       1.0  0.697011215  0.625543565  0.45786649450888517  1.0000
