data_image0
_chemical_formula_structural       COCa12Si24
_chemical_formula_sum              "C1 O1 Ca12 Si24"
_cell_length_a       9.6368887628386
_cell_length_b       7.489422720230401
_cell_length_c       104.74629658
_cell_angle_alpha    83.85398100753983
_cell_angle_beta     86.82016987283973
_cell_angle_gamma    112.70707500033619

_space_group_name_H-M_alt    "P 1"
_space_group_IT_number       1

loop_
  _space_group_symop_operation_xyz
  'x, y, z'

loop_
  _atom_site_type_symbol
  _atom_site_label
  _atom_site_symmetry_multiplicity
  _atom_site_fract_x
  _atom_site_fract_y
  _atom_site_fract_z
  _atom_site_occupancy
  C   C1        1.0  0.39964673  0.28174937  0.5541106124458666  1.0000
  O   O1        1.0  0.40184338999999997  0.4296227199999999  0.5580404165512515  1.0000
  Ca  Ca1       1.0  0.22675915999999996  0.94299321  0.5225979940514042  1.0000
  Ca  Ca2       1.0  0.83409369  0.93904478  0.5048977308321098  1.0000
  Ca  Ca3       1.0  0.62642744  0.9413900999999999  0.5411615582872017  1.0000
  Ca  Ca4       1.0  0.87576036  0.4390447799999999  0.5187193409566764  1.0000
  Ca  Ca5       1.0  0.4868714700000001  0.43904477999999997  0.5002905274572541  1.0000
  Ca  Ca6       1.0  0.26442878  0.43228337000000006  0.5369055885350041  1.0000
  Ca  Ca7       1.0  0.05631591999999998  0.9390447800000001  0.4680401071504515  1.0000
  Ca  Ca8       1.0  0.6674270300000001  0.93904478  0.4496112936510293  1.0000
  Ca  Ca9       1.0  0.44520481  0.9390447800000001  0.4864689173326875  1.0000
  Ca  Ca10      1.0  0.7090936900000001  0.43904477999999997  0.46343290377559593  1.0000
  Ca  Ca11      1.0  0.32020481  0.4390447799999999  0.4450040902761737  1.0000
  Ca  Ca12      1.0  0.09798257999999999  0.4390447799999999  0.48186171395783195  1.0000
  Si  Si1       1.0  0.9724184200000001  0.10335553999999998  0.5314682327849879  1.0000
  Si  Si2       1.0  0.58035816  0.10863757  0.5125494410343905  1.0000
  Si  Si3       1.0  0.35968031  0.05700678999999999  0.5481867913448233  1.0000
  Si  Si4       1.0  0.02758157999999998  0.6052781700000001  0.5423694950430812  1.0000
  Si  Si5       1.0  0.63388343  0.61596372  0.5263487397648144  1.0000
  Si  Si6       1.0  0.23313594  0.6086375699999999  0.5079422376595348  1.0000
  Si  Si7       1.0  0.86931282  0.7598003799999999  0.5358614577491148  1.0000
  Si  Si8       1.0  0.47671811999999997  0.7694519899999999  0.5156748341292512  1.0000
  Si  Si9       1.0  0.08782922999999998  0.7694519900000001  0.4972460206298291  1.0000
  Si  Si10      1.0  0.89346268  0.2691417899999999  0.5463664854370422  1.0000
  Si  Si11      1.0  0.53657636  0.27806559999999997  0.5299168478423785  1.0000
  Si  Si12      1.0  0.12949589999999997  0.26945199000000003  0.5110676307543957  1.0000
  Si  Si13      1.0  0.80258038  0.10863757  0.47569181403554595  1.0000
  Si  Si14      1.0  0.41369149  0.10863756999999999  0.4572630038533099  1.0000
  Si  Si15      1.0  0.19146926999999997  0.10863757  0.4941206275349682  1.0000
  Si  Si16      1.0  0.84424705  0.6086375699999999  0.4895134241601127  1.0000
  Si  Si17      1.0  0.45535816  0.6086375699999999  0.4710846139778766  1.0000
  Si  Si18      1.0  0.06646926999999998  0.6086375699999999  0.45265580047845444  1.0000
  Si  Si19      1.0  0.6989403399999999  0.7694519899999999  0.47881721044759307  1.0000
  Si  Si20      1.0  0.31005145  0.7694519900000001  0.46038839694817085  1.0000
  Si  Si21      1.0  0.92116256  0.7694519899999999  0.44195958344874864  1.0000
  Si  Si22      1.0  0.7406070100000001  0.26945199000000003  0.4926388172549735  1.0000
  Si  Si23      1.0  0.35171811999999997  0.26945199  0.4742100070727374  1.0000
  Si  Si24      1.0  0.9628292300000001  0.26945199000000003  0.45578119357331526  1.0000
