data_image0
_chemical_formula_structural       COAs16Na32Ti4
_chemical_formula_sum              "C1 O1 As16 Na32 Ti4"
_cell_length_a       9.88329885
_cell_length_b       9.88329885
_cell_length_c       111.93128583000001
_cell_angle_alpha    90.0
_cell_angle_beta     90.0
_cell_angle_gamma    90.0

_space_group_name_H-M_alt    "P 1"
_space_group_IT_number       1

loop_
  _space_group_symop_operation_xyz
  'x, y, z'

loop_
  _atom_site_type_symbol
  _atom_site_label
  _atom_site_symmetry_multiplicity
  _atom_site_fract_x
  _atom_site_fract_y
  _atom_site_fract_z
  _atom_site_occupancy
  C   C1        1.0  0.10210624499999997  0.15432253499999998  0.5602625223955484  1.0000
  O   O1        1.0  0.10210700499999999  0.193901225  0.5699638562123394  1.0000
  As  As1       1.0  0.8922891350000001  0.10513829499999999  0.5092349102814834  1.0000
  As  As2       1.0  0.602106165  0.48788326500000007  0.5450565165076481  1.0000
  As  As3       1.0  0.811923195  0.10513829499999999  0.4518165910804151  1.0000
  As  As4       1.0  0.102106145  0.8111379649999999  0.5400934010199814  1.0000
  As  As5       1.0  0.8922891350000001  0.605138295  0.514252644827876  1.0000
  As  As6       1.0  0.10210616499999998  0.31495532499999995  0.48303461608106396  1.0000
  As  As7       1.0  0.811923195  0.605138295  0.44679886028018556  1.0000
  As  As8       1.0  0.602106165  0.8953212650000001  0.47801688528083447  1.0000
  As  As9       1.0  0.39228913499999996  0.605138295  0.44679886028018556  1.0000
  As  As10      1.0  0.10210616499999998  0.8953212650000001  0.48303461608106396  1.0000
  As  As11      1.0  0.311923195  0.605138295  0.514252644827876  1.0000
  As  As12      1.0  0.602106165  0.31495532499999995  0.47801688528083447  1.0000
  As  As13      1.0  0.39228913499999996  0.10513829499999999  0.4518165910804151  1.0000
  As  As14      1.0  0.602106165  0.722312165  0.5452274426936897  1.0000
  As  As15      1.0  0.311923195  0.10513829499999999  0.5092349102814834  1.0000
  As  As16      1.0  0.10210616499999998  0.399624035  0.5400209727016407  1.0000
  Na  Na1       1.0  0.897893855  0.6063263550000001  0.5499730821720139  1.0000
  Na  Na2       1.0  0.10210616499999998  0.355138295  0.5117437756815981  1.0000
  Na  Na3       1.0  0.8521061649999999  0.10513829499999999  0.4805257506809492  1.0000
  Na  Na4       1.0  0.10210616499999998  0.855138295  0.5117437756815981  1.0000
  Na  Na5       1.0  0.8227756150000002  0.825807745  0.4961347650543552  1.0000
  Na  Na6       1.0  0.834736935  0.346933545  0.528632097278377  1.0000
  Na  Na7       1.0  0.602106165  0.605138295  0.46857930382677704  1.0000
  Na  Na8       1.0  0.38143671500000004  0.825807745  0.4961347650543552  1.0000
  Na  Na9       1.0  0.8227756150000002  0.384468845  0.4961347650543552  1.0000
  Na  Na10      1.0  0.6021061550000001  0.605137115  0.5193173600063319  1.0000
  Na  Na11      1.0  0.881436715  0.8844688449999999  0.43369871130689436  1.0000
  Na  Na12      1.0  0.10210616499999998  0.605138295  0.4924721975351214  1.0000
  Na  Na13      1.0  0.10210616499999998  0.605138295  0.4373612788261282  1.0000
  Na  Na14      1.0  0.881436715  0.825807745  0.4649167363075432  1.0000
  Na  Na15      1.0  0.32277561499999996  0.384468845  0.4649167363075432  1.0000
  Na  Na16      1.0  0.881436715  0.384468845  0.4649167363075432  1.0000
  Na  Na17      1.0  0.35210616499999997  0.10513829499999999  0.4805257506809492  1.0000
  Na  Na18      1.0  0.602106165  0.855138295  0.4493077256803003  1.0000
  Na  Na19      1.0  0.30631847500000003  0.6063263750000001  0.5499730821720139  1.0000
  Na  Na20      1.0  0.602106165  0.355138295  0.4493077256803003  1.0000
  Na  Na21      1.0  0.32277561499999996  0.325807745  0.43369871130689436  1.0000
  Na  Na22      1.0  0.32277561499999996  0.825807745  0.4649167363075432  1.0000
  Na  Na23      1.0  0.10210617499999998  0.10467873499999998  0.5349679230752337  1.0000
  Na  Na24      1.0  0.881436715  0.325807745  0.43369871130689436  1.0000
  Na  Na25      1.0  0.32277561499999996  0.8844688449999999  0.43369871130689436  1.0000
  Na  Na26      1.0  0.10210616499999998  0.10513829499999999  0.4612541687883094  1.0000
  Na  Na27      1.0  0.38143671500000004  0.384468845  0.4961347650543552  1.0000
  Na  Na28      1.0  0.602106165  0.10513829499999999  0.43003614378766053  1.0000
  Na  Na29      1.0  0.602106165  0.10513829499999999  0.49979733257358905  1.0000
  Na  Na30      1.0  0.369475405  0.346933575  0.528632097278377  1.0000
  Na  Na31      1.0  0.8351124650000001  0.8639232349999999  0.5286640183345774  1.0000
  Na  Na32      1.0  0.369099875  0.8639232050000001  0.5286640145884143  1.0000
  Ti  Ti1       1.0  0.10210616499999998  0.10513829499999999  0.4961347650543552  1.0000
  Ti  Ti2       1.0  0.602106165  0.10513829499999999  0.4649167363075432  1.0000
  Ti  Ti3       1.0  0.602106165  0.605138295  0.43369871130689436  1.0000
  Ti  Ti4       1.0  0.102106195  0.605747115  0.5273534531258817  1.0000
