data_image0
_chemical_formula_structural       COCa4Si8Ca4Si8
_chemical_formula_sum              "C1 O1 Ca8 Si16"
_cell_length_a       6.78692318
_cell_length_b       10.725684076984553
_cell_length_c       101.34745539
_cell_angle_alpha    100.52507539322534
_cell_angle_beta     90.0
_cell_angle_gamma    71.55546447307812

_space_group_name_H-M_alt    "P 1"
_space_group_IT_number       1

loop_
  _space_group_symop_operation_xyz
  'x, y, z'

loop_
  _atom_site_type_symbol
  _atom_site_label
  _atom_site_symmetry_multiplicity
  _atom_site_fract_x
  _atom_site_fract_y
  _atom_site_fract_z
  _atom_site_occupancy
  C   C1        1.0  0.9382911949999997  0.9398639249999999  0.5430623259520658  1.0000
  O   O1        1.0  0.8958591949999998  0.916052385  0.5531452754893461  1.0000
  Ca  Ca1       1.0  0.7730670449999999  0.510273745  0.4525332629948612  1.0000
  Ca  Ca2       1.0  0.02306704499999996  0.010273744999999964  0.48153077389933796  1.0000
  Ca  Ca3       1.0  0.5230670449999999  0.010273744999999964  0.46219909996302005  1.0000
  Ca  Ca4       1.0  0.2730670449999999  0.510273745  0.471864936931179  1.0000
  Si  Si1       1.0  0.4595290249999999  0.804016445  0.47754347541538616  1.0000
  Si  Si2       1.0  0.7095290249999999  0.304016445  0.46787763844722713  1.0000
  Si  Si3       1.0  0.20952902499999998  0.304016445  0.4485459645109093  1.0000
  Si  Si4       1.0  0.9595290249999999  0.804016445  0.45821180147906826  1.0000
  Si  Si5       1.0  0.8366050649999999  0.716531045  0.4758522354151308  1.0000
  Si  Si6       1.0  0.08660506499999994  0.21653104499999998  0.4661863984469719  1.0000
  Si  Si7       1.0  0.5866050649999999  0.21653104499999998  0.446854724510654  1.0000
  Si  Si8       1.0  0.336605065  0.716531045  0.4565205614788129  1.0000
  Ca  Ca5       1.0  0.776225625  0.49959967499999997  0.49372919624813905  1.0000
  Ca  Ca6       1.0  0.045900754999999925  0.973373805  0.5193012489746099  1.0000
  Ca  Ca7       1.0  0.538746195  0.989726255  0.5019550121851798  1.0000
  Ca  Ca8       1.0  0.2753619749999999  0.504956405  0.5114958335377935  1.0000
  Si  Si9       1.0  0.477965725  0.750939865  0.5177784172384844  1.0000
  Si  Si10      1.0  0.7438252049999999  0.23038113500000001  0.5069866076951715  1.0000
  Si  Si11      1.0  0.20952902499999998  0.304016445  0.48720931238354503  1.0000
  Si  Si12      1.0  0.9769329549999999  0.757085515  0.49694998922091405  1.0000
  Si  Si13      1.0  0.8326430049999999  0.742350695  0.5175724282002225  1.0000
  Si  Si14      1.0  0.09577417499999995  0.22229945499999998  0.506046188259128  1.0000
  Si  Si15      1.0  0.5866050649999999  0.21653104499999998  0.4855180723832897  1.0000
  Si  Si16      1.0  0.3408170249999999  0.730324385  0.496174331322029  1.0000
