data_image0
_chemical_formula_structural       COCa12Cu4Sn14
_chemical_formula_sum              "C1 O1 Ca12 Cu4 Sn14"
_cell_length_a       7.633666674559874
_cell_length_b       12.585468566126483
_cell_length_c       101.00491407999999
_cell_angle_alpha    90.92478673861476
_cell_angle_beta     94.11400064072173
_cell_angle_gamma    93.75864755985027

_space_group_name_H-M_alt    "P 1"
_space_group_IT_number       1

loop_
  _space_group_symop_operation_xyz
  'x, y, z'

loop_
  _atom_site_type_symbol
  _atom_site_label
  _atom_site_symmetry_multiplicity
  _atom_site_fract_x
  _atom_site_fract_y
  _atom_site_fract_z
  _atom_site_occupancy
  C   C1        1.0  0.7381843499999999  0.59384751  0.5432246058672628  1.0000
  O   O1        1.0  0.7366021199999999  0.59562814  0.5548098111410307  1.0000
  Ca  Ca1       1.0  0.7071520899999998  0.70068234  0.4538554105098939  1.0000
  Ca  Ca2       1.0  0.9275078099999999  0.29346849  0.4826712403979516  1.0000
  Ca  Ca3       1.0  0.20281493999999992  0.70653151  0.4655593219915042  1.0000
  Ca  Ca4       1.0  0.89109562  0.0029753500000000025  0.4581988034603349  1.0000
  Ca  Ca5       1.0  0.5660278  0.29931766  0.45052309387071726  1.0000
  Ca  Ca6       1.0  0.38208427  0.99702465  0.4461797009202764  1.0000
  Ca  Ca7       1.0  0.55842284  0.69947741  0.49747436895304536  1.0000
  Ca  Ca8       1.0  0.7728480099999999  0.29587478  0.5239345201757857  1.0000
  Ca  Ca9       1.0  0.06699844999999992  0.69789279  0.5105238251694544  1.0000
  Ca  Ca10      1.0  0.75301203  0.010763010000000002  0.5024886633227932  1.0000
  Ca  Ca11      1.0  0.4231706599999999  0.29931766  0.49437515187956194  1.0000
  Ca  Ca12      1.0  0.23922712999999993  0.99702465  0.4900317589291211  1.0000
  Cu  Cu1       1.0  0.24999412999999993  0.38881546  0.46667334802733246  1.0000
  Cu  Cu2       1.0  0.88032862  0.61118454  0.4815572143621234  1.0000
  Cu  Cu3       1.0  0.10088825999999992  0.39020608  0.5093176852528127  1.0000
  Cu  Cu4       1.0  0.70535502  0.61668299  0.5249348711504876  1.0000
  Sn  Sn1       1.0  0.93300155  0.48142734  0.45918831552164185  1.0000
  Sn  Sn2       1.0  0.22610061999999986  0.17550626  0.4661091597162831  1.0000
  Sn  Sn3       1.0  0.5856277599999999  0.11855107  0.4745985460126107  1.0000
  Sn  Sn4       1.0  0.90422213  0.82449374  0.4821214026731727  1.0000
  Sn  Sn5       1.0  0.5651613699999999  0.5  0.47411528272954995  1.0000
  Sn  Sn6       1.0  0.54469499  0.88144893  0.47363201637684516  1.0000
  Sn  Sn7       1.0  0.3401783399999999  0.51857266  0.44519018885896927  1.0000
  Sn  Sn8       1.0  0.77958869  0.4841909  0.5034658108575768  1.0000
  Sn  Sn9       1.0  0.09233931999999992  0.17972312000000001  0.5112910182552246  1.0000
  Sn  Sn10      1.0  0.43654002999999997  0.11446082999999999  0.5196545184461085  1.0000
  Sn  Sn11      1.0  0.7664032199999999  0.827304  0.52435120287784  1.0000
  Sn  Sn12      1.0  0.41113090999999996  0.49036484999999996  0.5180982794780632  1.0000
  Sn  Sn13      1.0  0.4103948399999999  0.8808126000000001  0.517286330980994  1.0000
  Sn  Sn14      1.0  0.19732118999999992  0.51857266  0.4890422499374581  1.0000
