data_image0
_chemical_formula_structural       COGa2CuGa2CuGa2CuGa2CuGa2CuGa2Cu
_chemical_formula_sum              "C1 O1 Ga12 Cu6"
_cell_length_a       5.75015568
_cell_length_b       6.626954157435161
_cell_length_c       101.62585624
_cell_angle_alpha    115.71188852559693
_cell_angle_beta     90.0
_cell_angle_gamma    90.0

_space_group_name_H-M_alt    "P 1"
_space_group_IT_number       1

loop_
  _space_group_symop_operation_xyz
  'x, y, z'

loop_
  _atom_site_type_symbol
  _atom_site_label
  _atom_site_symmetry_multiplicity
  _atom_site_fract_x
  _atom_site_fract_y
  _atom_site_fract_z
  _atom_site_occupancy
  C   C1        1.0  0.12395492999999995  0.18691064  0.5423569918501436  1.0000
  O   O1        1.0  0.12398145999999996  0.30090248999999997  0.5548510059062216  1.0000
  Ga  Ga1       1.0  0.37396318999999995  0.28602616999999997  0.46124207028646746  1.0000
  Ga  Ga2       1.0  0.37396318999999995  0.7171814699999999  0.44514899409377867  1.0000
  Cu  Cu1       1.0  0.12396318999999996  0.0016038199999999884  0.4673409372948015  1.0000
  Ga  Ga3       1.0  0.37396318999999995  0.28602616999999997  0.48953288049582433  1.0000
  Ga  Ga4       1.0  0.37396318999999995  0.7171814699999999  0.4734398043031355  1.0000
  Cu  Cu2       1.0  0.12396353999999996  0.99839618  0.49482299442681055  1.0000
  Ga  Ga5       1.0  0.37147110999999994  0.37548358  0.5188461005098961  1.0000
  Ga  Ga6       1.0  0.3759342599999999  0.7264085199999999  0.5041996480354594  1.0000
  Cu  Cu3       1.0  0.12391735999999996  0.04789926999999999  0.522161237204039  1.0000
  Ga  Ga7       1.0  0.8739631899999999  0.28602616999999997  0.46124207028646746  1.0000
  Ga  Ga8       1.0  0.8739631899999999  0.7171814699999999  0.44514899409377867  1.0000
  Cu  Cu4       1.0  0.62396319  0.0016038199999999884  0.4673409372948015  1.0000
  Ga  Ga9       1.0  0.8739631899999999  0.28602616999999997  0.48953288049582433  1.0000
  Ga  Ga10      1.0  0.8739631899999999  0.7171814699999999  0.4734398043031355  1.0000
  Cu  Cu5       1.0  0.62396354  0.99839618  0.49482299442681055  1.0000
  Ga  Ga11      1.0  0.8760826399999999  0.3765896799999999  0.5188823022797263  1.0000
  Ga  Ga12      1.0  0.8719982799999999  0.7263449000000001  0.5042159890905078  1.0000
  Cu  Cu6       1.0  0.6241212899999999  0.061210519999999984  0.5209744552441911  1.0000
