data_image0
_chemical_formula_structural       COV8Co8Si8V8Co8Si8
_chemical_formula_sum              "C1 O1 V16 Co16 Si16"
_cell_length_a       6.86428371
_cell_length_b       6.972234113284093
_cell_length_c       111.83340471
_cell_angle_alpha    61.563306592828184
_cell_angle_beta     90.0
_cell_angle_gamma    90.0

_space_group_name_H-M_alt    "P 1"
_space_group_IT_number       1

loop_
  _space_group_symop_operation_xyz
  'x, y, z'

loop_
  _atom_site_type_symbol
  _atom_site_label
  _atom_site_symmetry_multiplicity
  _atom_site_fract_x
  _atom_site_fract_y
  _atom_site_fract_z
  _atom_site_occupancy
  C   C1        1.0  0.943278315  0.47950209499999996  0.5599153837047859  1.0000
  O   O1        1.0  0.902010115  0.379316475  0.5715760294665224  1.0000
  V   V1        1.0  0.31776101499999987  0.6435062549999999  0.4767415221352641  1.0000
  V   V2        1.0  0.31776101499999987  0.14350625499999997  0.44556911055786486  1.0000
  V   V3        1.0  0.8177610149999999  0.618501235  0.4440101744518323  1.0000
  V   V4        1.0  0.8177610149999999  0.118501235  0.47518258976992106  1.0000
  V   V5        1.0  0.17381539499999996  0.39350625499999997  0.46115531447621966  1.0000
  V   V6        1.0  0.17381539499999996  0.8935062549999999  0.4299829028988204  1.0000
  V   V7        1.0  0.6738153949999999  0.368501235  0.4284239705334773  1.0000
  V   V8        1.0  0.6738153949999999  0.8685012349999999  0.4595963821108767  1.0000
  Co  Co1       1.0  0.056721684999999966  0.309594005  0.4870962333279327  1.0000
  Co  Co2       1.0  0.056721684999999966  0.8095940049999998  0.4559238217505334  1.0000
  Co  Co3       1.0  0.43485472499999994  0.559594005  0.44033761409148897  1.0000
  Co  Co4       1.0  0.43485472499999994  0.05959400499999998  0.47151002566888833  1.0000
  Co  Co5       1.0  0.5567216849999999  0.45241348499999995  0.4648278785772524  1.0000
  Co  Co6       1.0  0.5567216849999999  0.9524134849999999  0.43365546325916365  1.0000
  Co  Co7       1.0  0.934854725  0.7024134849999999  0.48041408249560735  1.0000
  Co  Co8       1.0  0.934854725  0.20241348499999998  0.44924167091820805  1.0000
  Si  Si1       1.0  0.3720031849999999  0.24752223499999995  0.483226381519928  1.0000
  Si  Si2       1.0  0.3720031849999999  0.7475222349999999  0.4520539662018392  1.0000
  Si  Si3       1.0  0.11957322499999996  0.4975222349999999  0.43646776228348433  1.0000
  Si  Si4       1.0  0.11957322499999996  0.9975222349999999  0.46764017386088363  1.0000
  Si  Si5       1.0  0.619573225  0.7644852549999998  0.48428393804430164  1.0000
  Si  Si6       1.0  0.619573225  0.264485255  0.45311152272621275  1.0000
  Si  Si7       1.0  0.8720031849999998  0.514485255  0.4686977303852572  1.0000
  Si  Si8       1.0  0.8720031849999998  0.014485254999999987  0.43752531880785783  1.0000
  V   V9        1.0  0.31084814499999985  0.6491132849999999  0.5380393075846726  1.0000
  V   V10       1.0  0.31776101499999987  0.14350625499999997  0.5079139337126634  1.0000
  V   V11       1.0  0.8177610149999999  0.618501235  0.5063550013473204  1.0000
  V   V12       1.0  0.8044577649999999  0.118804395  0.5362509699519764  1.0000
  V   V13       1.0  0.16535817499999997  0.39866979499999994  0.5233386483229338  1.0000
  V   V14       1.0  0.17381539499999996  0.8935062549999999  0.49232772979430856  1.0000
  V   V15       1.0  0.6738153949999999  0.368501235  0.4907687936882759  1.0000
  V   V16       1.0  0.676829075  0.8746613749999997  0.5211182872333198  1.0000
  Co  Co9       1.0  0.10003537499999997  0.38042105499999995  0.5487213552968231  1.0000
  Co  Co10      1.0  0.056721684999999966  0.8095940049999998  0.5182686449053321  1.0000
  Co  Co11      1.0  0.43485472499999994  0.559594005  0.5026824409869772  1.0000
  Co  Co12      1.0  0.4401749849999999  0.05660015499999999  0.5340481489556104  1.0000
  Co  Co13      1.0  0.5523064349999999  0.44732500499999994  0.5276025481076574  1.0000
  Co  Co14      1.0  0.5567216849999999  0.9524134849999999  0.4960002901546518  1.0000
  Co  Co15      1.0  0.919947235  0.7156835949999999  0.5427714294789823  1.0000
  Co  Co16      1.0  0.934854725  0.20241348499999998  0.5115864978136961  1.0000
  Si  Si9       1.0  0.37082741499999994  0.226522125  0.5459852354149624  1.0000
  Si  Si10      1.0  0.3720031849999999  0.7475222349999999  0.5143987930973273  1.0000
  Si  Si11      1.0  0.11957322499999996  0.4975222349999999  0.4988125854382829  1.0000
  Si  Si12      1.0  0.12384178499999997  0.002477764999999988  0.5308322519741779  1.0000
  Si  Si13      1.0  0.608834225  0.7505443249999999  0.5461939883353711  1.0000
  Si  Si14      1.0  0.619573225  0.264485255  0.5154563496217008  1.0000
  Si  Si15      1.0  0.862801655  0.508220675  0.5319108162110021  1.0000
  Si  Si16      1.0  0.8720031849999998  0.014485254999999987  0.49987014196265644  1.0000
