data_image0
_chemical_formula_structural       CONa8Cu8Se8
_chemical_formula_sum              "C1 O1 Na8 Cu8 Se8"
_cell_length_a       5.86651578
_cell_length_b       10.840159941933015
_cell_length_c       106.46215792999999
_cell_angle_alpha    81.70196579833562
_cell_angle_beta     90.0
_cell_angle_gamma    57.235758270866484

_space_group_name_H-M_alt    "P 1"
_space_group_IT_number       1

loop_
  _space_group_symop_operation_xyz
  'x, y, z'

loop_
  _atom_site_type_symbol
  _atom_site_label
  _atom_site_symmetry_multiplicity
  _atom_site_fract_x
  _atom_site_fract_y
  _atom_site_fract_z
  _atom_site_occupancy
  C   C1        1.0  0.91546047  0.5219088700000001  0.5379258178070353  1.0000
  O   O1        1.0  0.8894487299999999  0.51976593  0.5487810904702513  1.0000
  Na  Na1       1.0  0.55070889  0.7303404700000001  0.4726244954668982  1.0000
  Na  Na2       1.0  0.3007088900000001  0.48034047  0.49403008140404775  1.0000
  Na  Na3       1.0  0.8007088900000001  0.98034047  0.45121890952974864  1.0000
  Na  Na4       1.0  0.0271020000000001  0.25666199  0.5167565392639506  1.0000
  Na  Na5       1.0  0.7006197400000002  0.08375316000000003  0.502705511942237  1.0000
  Na  Na6       1.0  0.4693428900000001  0.81457611  0.5221006852481694  1.0000
  Na  Na7       1.0  0.9627510300000003  0.31829833  0.48015565187876247  1.0000
  Na  Na8       1.0  0.2127510300000002  0.56829833  0.4587500659416129  1.0000
  Cu  Cu1       1.0  0.5067299600000001  0.024319400000000026  0.47639007367283026  1.0000
  Cu  Cu2       1.0  0.21783215000000014  0.79437621  0.4976757129810693  1.0000
  Cu  Cu3       1.0  0.7567299600000001  0.2743194  0.45498448773568084  1.0000
  Cu  Cu4       1.0  0.020677469999999972  0.5265557100000001  0.5216757038823138  1.0000
  Cu  Cu5       1.0  0.7599650300000004  0.79305062  0.49787752827017845  1.0000
  Cu  Cu6       1.0  0.4233857600000001  0.54858374  0.5160525283793933  1.0000
  Cu  Cu7       1.0  0.006729960000000084  0.024319400000000026  0.47639007367283026  1.0000
  Cu  Cu8       1.0  0.25672996000000015  0.2743194  0.45498448773568084  1.0000
  Se  Se1       1.0  0.26462065000000007  0.019659530000000026  0.49718066513887743  1.0000
  Se  Se2       1.0  0.010324940000000109  0.7796192800000001  0.5189798090417268  1.0000
  Se  Se3       1.0  0.5201898800000002  0.26085948000000003  0.47523760377576163  1.0000
  Se  Se4       1.0  0.77018988  0.51085948  0.45383201783861216  1.0000
  Se  Se5       1.0  0.9932700400000001  0.7877793200000001  0.47754254356989895  1.0000
  Se  Se6       1.0  0.7363600500000002  0.56058062  0.5006781289624889  1.0000
  Se  Se7       1.0  0.2432700400000001  0.037779320000000026  0.4561369576327494  1.0000
  Se  Se8       1.0  0.48925915000000014  0.30158579  0.5202261004781813  1.0000
