data_image0
_chemical_formula_structural       COAg24Se12
_chemical_formula_sum              "C1 O1 Ag24 Se12"
_cell_length_a       4.98037502
_cell_length_b       16.40988061900313
_cell_length_c       111.62625484
_cell_angle_alpha    107.97180406995135
_cell_angle_beta     90.0
_cell_angle_gamma    90.0

_space_group_name_H-M_alt    "P 1"
_space_group_IT_number       1

loop_
  _space_group_symop_operation_xyz
  'x, y, z'

loop_
  _atom_site_type_symbol
  _atom_site_label
  _atom_site_symmetry_multiplicity
  _atom_site_fract_x
  _atom_site_fract_y
  _atom_site_fract_z
  _atom_site_occupancy
  C   C1        1.0  0.947043235  0.575868585  0.5567885927460628  1.0000
  O   O1        1.0  0.942535245  0.5109500549999999  0.5586452352239647  1.0000
  Ag  Ag1       1.0  0.499640875  0.327794565  0.5165985775897013  1.0000
  Ag  Ag2       1.0  0.512374825  0.002659754999999995  0.46332700491340567  1.0000
  Ag  Ag3       1.0  0.512374825  0.669326425  0.4944026191245778  1.0000
  Ag  Ag4       1.0  0.512374825  0.571678865  0.4568925700170845  1.0000
  Ag  Ag5       1.0  0.512374825  0.238345535  0.4879681879573305  1.0000
  Ag  Ag6       1.0  0.4882036549999999  0.929085235  0.5219153792192368  1.0000
  Ag  Ag7       1.0  0.775954265  0.08401510499999998  0.5201465303270916  1.0000
  Ag  Ag8       1.0  0.512374825  0.7634276350000001  0.4653347159022273  1.0000
  Ag  Ag9       1.0  0.512374825  0.430094305  0.4964103301133993  1.0000
  Ag  Ag10      1.0  0.512374825  0.332446745  0.45890028100590613  1.0000
  Ag  Ag11      1.0  0.512374825  0.999113415  0.4899758989461521  1.0000
  Ag  Ag12      1.0  0.616965925  0.592588455  0.5153278061760067  1.0000
  Ag  Ag13      1.0  0.012374824999999947  0.169326425  0.44778919594328276  1.0000
  Ag  Ag14      1.0  0.012374824999999947  0.8359930950000001  0.47886481015445476  1.0000
  Ag  Ag15      1.0  0.9614598850000001  0.449998695  0.5175500656999733  1.0000
  Ag  Ag16      1.0  0.012374824999999947  0.405012195  0.4724303789872075  1.0000
  Ag  Ag17      1.0  0.07261481499999994  0.9399845849999999  0.5040289063087011  1.0000
  Ag  Ag18      1.0  0.012374824999999947  0.7383455349999999  0.4413547647760354  1.0000
  Ag  Ag19      1.0  0.9586082450000001  0.20032920499999998  0.5028203097433827  1.0000
  Ag  Ag20      1.0  0.012374824999999947  0.930094305  0.4497969069321044  1.0000
  Ag  Ag21      1.0  0.012374824999999947  0.5967609749999999  0.4808725211432764  1.0000
  Ag  Ag22      1.0  0.012374824999999947  0.499113415  0.44336247576485704  1.0000
  Ag  Ag23      1.0  0.012374824999999947  0.16578007499999997  0.4744380899760291  1.0000
  Ag  Ag24      1.0  0.9723924950000001  0.8188600549999999  0.5182099737964878  1.0000
  Se  Se1       1.0  0.512374825  0.16755325499999998  0.46111364295965596  1.0000
  Se  Se2       1.0  0.512374825  0.834219915  0.492189257170828  1.0000
  Se  Se3       1.0  0.45414100499999993  0.489072735  0.5271088305438132  1.0000
  Se  Se4       1.0  0.012374824999999947  0.334219915  0.49218925717082795  1.0000
  Se  Se5       1.0  0.9876251750000001  0.979544415  0.5305151978050958  1.0000
  Se  Se6       1.0  0.012374824999999947  0.667553255  0.4611136429596559  1.0000
  Se  Se7       1.0  0.012374824999999947  0.334219915  0.44557583398953293  1.0000
  Se  Se8       1.0  0.012374824999999947  0.000886584999999995  0.47665145192977887  1.0000
  Se  Se9       1.0  0.014160084999999946  0.6617025449999999  0.5071004325704401  1.0000
  Se  Se10      1.0  0.512374825  0.5008865849999999  0.47665145192977887  1.0000
  Se  Se11      1.0  0.462241085  0.161650975  0.509516551727807  1.0000
  Se  Se12      1.0  0.512374825  0.834219915  0.44557583398953293  1.0000
