data_image0
_chemical_formula_structural       COAg16Se8
_chemical_formula_sum              "C1 O1 Ag16 Se8"
_cell_length_a       4.98037502
_cell_length_b       10.406563711540658
_cell_length_c       101.21969113
_cell_angle_alpha    89.48601167975526
_cell_angle_beta     90.0
_cell_angle_gamma    90.0

_space_group_name_H-M_alt    "P 1"
_space_group_IT_number       1

loop_
  _space_group_symop_operation_xyz
  'x, y, z'

loop_
  _atom_site_type_symbol
  _atom_site_label
  _atom_site_symmetry_multiplicity
  _atom_site_fract_x
  _atom_site_fract_y
  _atom_site_fract_z
  _atom_site_occupancy
  C   C1        1.0  0.013770645000000137  0.25640926  0.5568253163225443  1.0000
  O   O1        1.0  0.06683169499999994  0.27629394  0.5676716197477151  1.0000
  Ag  Ag1       1.0  0.04119949499999993  0.25398964  0.4323283802522848  1.0000
  Ag  Ag2       1.0  0.04119949499999993  0.75398964  0.483734207527364  1.0000
  Ag  Ag3       1.0  0.04119949499999993  0.6075183  0.44738734384503404  1.0000
  Ag  Ag4       1.0  0.18050496499999993  0.09270203999999997  0.5084252401420678  1.0000
  Ag  Ag5       1.0  0.11881127499999995  0.40536728  0.500080223932441  1.0000
  Ag  Ag6       1.0  0.04119949499999993  0.8951414600000002  0.4468404331471265  1.0000
  Ag  Ag7       1.0  0.986229355  0.73672118  0.5242837750968449  1.0000
  Ag  Ag8       1.0  0.04119949499999993  0.24867012  0.461899393655526  1.0000
  Ag  Ag9       1.0  0.5042768649999999  0.5685054900000001  0.5176601097101271  1.0000
  Ag  Ag10      1.0  0.541199495  0.003989639999999979  0.4580312954319993  1.0000
  Ag  Ag11      1.0  0.49509582499999993  0.88173743  0.5198935026590006  1.0000
  Ag  Ag12      1.0  0.541199495  0.3575183  0.4730902559403987  1.0000
  Ag  Ag13      1.0  0.6928557249999998  0.15315858  0.5199637425518678  1.0000
  Ag  Ag14      1.0  0.541199495  0.64514146  0.4725433452424912  1.0000
  Ag  Ag15      1.0  0.541199495  0.49867012  0.4361964815601612  1.0000
  Ag  Ag16      1.0  0.541199495  0.9986701200000001  0.4876023088352404  1.0000
  Se  Se1       1.0  0.004139824999999931  0.4947433  0.5236631977936924  1.0000
  Se  Se2       1.0  0.04119949499999993  0.0013298799999999786  0.47281680059144504  1.0000
  Se  Se3       1.0  0.541199495  0.75132988  0.44711388849608025  1.0000
  Se  Se4       1.0  0.540437125  0.23916410999999999  0.4968607520871  1.0000
  Se  Se5       1.0  0.541199495  0.25132988  0.44711388849608025  1.0000
  Se  Se6       1.0  0.5411179349999999  0.7552847  0.49563452264838764  1.0000
  Se  Se7       1.0  0.04119949499999993  0.50132988  0.4728168005914451  1.0000
  Se  Se8       1.0  0.003128704999999954  0.9750928  0.53033249304802  1.0000
