data_image0
_chemical_formula_structural       COSn12Rh12
_chemical_formula_sum              "C1 O1 Sn12 Rh12"
_cell_length_a       7.39886357
_cell_length_b       7.398863566845957
_cell_length_c       106.24688082
_cell_angle_alpha    90.0
_cell_angle_beta     90.0
_cell_angle_gamma    60.00000003060773

_space_group_name_H-M_alt    "P 1"
_space_group_IT_number       1

loop_
  _space_group_symop_operation_xyz
  'x, y, z'

loop_
  _atom_site_type_symbol
  _atom_site_label
  _atom_site_symmetry_multiplicity
  _atom_site_fract_x
  _atom_site_fract_y
  _atom_site_fract_z
  _atom_site_occupancy
  C   C1        1.0  0.6891563500000001  0.68937551  0.5426777589465199  1.0000
  O   O1        1.0  0.6891167500000001  0.68945941  0.553666726876567  1.0000
  Sn  Sn1       1.0  0.6891046500000001  0.6892282800000001  0.4772877114793504  1.0000
  Sn  Sn2       1.0  0.022437980000000045  0.02256161  0.4488579518710557  1.0000
  Sn  Sn3       1.0  0.35580555  0.35585804  0.5061104329266212  1.0000
  Sn  Sn4       1.0  0.7959108500000002  0.97561588  0.49550655975215696  1.0000
  Sn  Sn5       1.0  0.12924418000000007  0.30894921000000003  0.46707680014386227  1.0000
  Sn  Sn6       1.0  0.43719772000000007  0.65277609  0.5237631309439422  1.0000
  Sn  Sn7       1.0  0.29591085  0.79603448  0.49550655975215696  1.0000
  Sn  Sn8       1.0  0.6292441799999999  0.12936781  0.46707680014386227  1.0000
  Sn  Sn9       1.0  0.97756202  0.43707686000000007  0.5237592212832445  1.0000
  Sn  Sn10      1.0  0.9754922500000003  0.29603448  0.49550655975215696  1.0000
  Sn  Sn11      1.0  0.30882558000000004  0.62936781  0.46707680014386227  1.0000
  Sn  Sn12      1.0  0.65303794  0.9774383900000001  0.5237484031906856  1.0000
  Rh  Rh1       1.0  0.6891766300000001  0.68913816  0.503143007280195  1.0000
  Rh  Rh2       1.0  0.022437980000000045  0.02256161  0.47476303273172743  1.0000
  Rh  Rh3       1.0  0.35577131000000006  0.35589494  0.44633327312343285  1.0000
  Rh  Rh4       1.0  0.59342286  0.38059185000000006  0.4868715316614093  1.0000
  Rh  Rh5       1.0  0.9267561900000002  0.71392518  0.4584417720531146  1.0000
  Rh  Rh6       1.0  0.27866876000000007  0.0510266  0.5143297132937504  1.0000
  Rh  Rh7       1.0  0.09342285999999998  0.5935464900000001  0.4868715316614093  1.0000
  Rh  Rh8       1.0  0.4267561900000001  0.92687982  0.4584417720531146  1.0000
  Rh  Rh9       1.0  0.7378443900000001  0.27861244  0.5143282599643811  1.0000
  Rh  Rh10      1.0  0.3804682200000001  0.09354649  0.4868715316614093  1.0000
  Rh  Rh11      1.0  0.7138015500000001  0.42687982  0.4584417720531146  1.0000
  Rh  Rh12      1.0  0.05114046000000006  0.73784264  0.5143258104561953  1.0000
