data_image0
_chemical_formula_structural       COCa12Cu4Sn14Ca12Cu4Sn14
_chemical_formula_sum              "C1 O1 Ca24 Cu8 Sn28"
_cell_length_a       14.5461579
_cell_length_b       12.585468566038184
_cell_length_c       102.45823679
_cell_angle_alpha    90.0
_cell_angle_beta     90.0
_cell_angle_gamma    93.94528342241185

_space_group_name_H-M_alt    "P 1"
_space_group_IT_number       1

loop_
  _space_group_symop_operation_xyz
  'x, y, z'

loop_
  _atom_site_type_symbol
  _atom_site_label
  _atom_site_symmetry_multiplicity
  _atom_site_fract_x
  _atom_site_fract_y
  _atom_site_fract_z
  _atom_site_occupancy
  C   C1        1.0  0.8046449249999998  0.82517573  0.5392742585350758  1.0000
  O   O1        1.0  0.7959389649999998  0.88515782  0.5477637161228938  1.0000
  Ca  Ca1       1.0  0.541753305  0.70068234  0.4748644835345239  1.0000
  Ca  Ca2       1.0  0.6988679249999998  0.29346849  0.4522362838771063  1.0000
  Ca  Ca3       1.0  0.8086486849999999  0.70653151  0.4748644835345239  1.0000
  Ca  Ca4       1.0  0.6407998149999999  0.0029753500000000025  0.4748644835345239  1.0000
  Ca  Ca5       1.0  0.9657633049999998  0.29931766  0.4522362838771063  1.0000
  Ca  Ca6       1.0  0.8667167949999999  0.99702465  0.4522362838771063  1.0000
  Ca  Ca7       1.0  0.04175330499999998  0.70068234  0.4522362838771063  1.0000
  Ca  Ca8       1.0  0.198867925  0.29346849  0.4748644835345239  1.0000
  Ca  Ca9       1.0  0.308648685  0.70653151  0.4522362838771063  1.0000
  Ca  Ca10      1.0  0.140799815  0.0029753500000000025  0.4522362838771063  1.0000
  Ca  Ca11      1.0  0.46576330499999996  0.29931766  0.4748644835345239  1.0000
  Ca  Ca12      1.0  0.36671679500000004  0.99702465  0.4748644835345239  1.0000
  Cu  Cu1       1.0  0.8340528649999999  0.38881546  0.4748644835345239  1.0000
  Cu  Cu2       1.0  0.6734637449999998  0.61118454  0.4522362838771063  1.0000
  Cu  Cu3       1.0  0.334052865  0.38881546  0.4522362838771063  1.0000
  Cu  Cu4       1.0  0.17346374499999997  0.61118454  0.4748644835345239  1.0000
  Sn  Sn1       1.0  0.6633645549999999  0.48142734  0.4748644835345239  1.0000
  Sn  Sn2       1.0  0.8211871349999998  0.17550626  0.4748644835345239  1.0000
  Sn  Sn3       1.0  0.5147786649999999  0.11855107  0.4522362838771063  1.0000
  Sn  Sn4       1.0  0.6863294749999999  0.82449374  0.4522362838771063  1.0000
  Sn  Sn5       1.0  0.0037583049999999796  0.5  0.4748644835345239  1.0000
  Sn  Sn6       1.0  0.9927379449999999  0.88144893  0.4748644835345239  1.0000
  Sn  Sn7       1.0  0.8441520549999999  0.51857266  0.4522362838771063  1.0000
  Sn  Sn8       1.0  0.16336455499999997  0.48142734  0.4522362838771063  1.0000
  Sn  Sn9       1.0  0.32118713499999996  0.17550626  0.4522362838771063  1.0000
  Sn  Sn10      1.0  0.014778664999999979  0.11855107  0.4748644835345239  1.0000
  Sn  Sn11      1.0  0.186329475  0.82449374  0.4748644835345239  1.0000
  Sn  Sn12      1.0  0.503758305  0.5  0.4522362838771063  1.0000
  Sn  Sn13      1.0  0.4927379449999999  0.88144893  0.4522362838771063  1.0000
  Sn  Sn14      1.0  0.34415205499999996  0.51857266  0.4748644835345239  1.0000
  Ca  Ca13      1.0  0.540372945  0.68251342  0.5188756606908949  1.0000
  Ca  Ca14      1.0  0.7001745549999998  0.29565061  0.49765497083287435  1.0000
  Ca  Ca15      1.0  0.8228989449999999  0.69230736  0.5203694052032191  1.0000
  Ca  Ca16      1.0  0.6532992749999998  0.010545990000000002  0.5183849360394658  1.0000
  Ca  Ca17      1.0  0.9665150749999998  0.29685974  0.49743426623053755  1.0000
  Ca  Ca18      1.0  0.8709553249999998  0.9944827799999999  0.497565612523204  1.0000
  Ca  Ca19      1.0  0.04199476499999997  0.7035880999999999  0.4975100023637417  1.0000
  Ca  Ca20      1.0  0.18603636499999998  0.30742346  0.5195844890593401  1.0000
  Ca  Ca21      1.0  0.307977285  0.70381701  0.4977120382484237  1.0000
  Ca  Ca22      1.0  0.13730285499999997  0.005049460000000002  0.49762882575790324  1.0000
  Ca  Ca23      1.0  0.46898944499999995  0.31749884  0.5187251039614632  1.0000
  Ca  Ca24      1.0  0.35536365499999994  0.988902  0.5183177470300072  1.0000
  Cu  Cu5       1.0  0.8360952049999999  0.38677734999999996  0.5181028080930585  1.0000
  Cu  Cu6       1.0  0.6776789749999999  0.60919649  0.49710657685577286  1.0000
  Cu  Cu7       1.0  0.33095850499999996  0.39197757  0.4970425938097059  1.0000
  Cu  Cu8       1.0  0.17267987499999993  0.61229981  0.5182612023258804  1.0000
  Sn  Sn15      1.0  0.6693265349999998  0.48197805  0.5200106445943193  1.0000
  Sn  Sn16      1.0  0.826022945  0.17841895  0.5201250391971554  1.0000
  Sn  Sn17      1.0  0.513835725  0.12069881  0.4987983656382796  1.0000
  Sn  Sn18      1.0  0.6911215249999999  0.82157429  0.49892783967366894  1.0000
  Sn  Sn19      1.0  0.00440677499999998  0.49986964  0.5201154656582527  1.0000
  Sn  Sn20      1.0  0.9962416949999998  0.8848539  0.5213946197079099  1.0000
  Sn  Sn21      1.0  0.8497062349999999  0.51970979  0.4974433265618616  1.0000
  Sn  Sn22      1.0  0.15863973499999995  0.48112147  0.497358637807566  1.0000
  Sn  Sn23      1.0  0.31712482499999994  0.1788546  0.49900470993226254  1.0000
  Sn  Sn24      1.0  0.01244343499999998  0.11621512  0.5214958451508459  1.0000
  Sn  Sn25      1.0  0.18269222499999993  0.82027655  0.5203274520676511  1.0000
  Sn  Sn26      1.0  0.504178315  0.50033856  0.49741028169611307  1.0000
  Sn  Sn27      1.0  0.494324705  0.87886202  0.49887949995490194  1.0000
  Sn  Sn28      1.0  0.33837690499999995  0.51675259  0.5202172581638835  1.0000
