data_image0
_chemical_formula_structural       CORe12Os4Re12Os4
_chemical_formula_sum              "C1 O1 Re24 Os8"
_cell_length_a       5.5657133824042155
_cell_length_b       7.118945952743059
_cell_length_c       112.71367575
_cell_angle_alpha    85.23074378070201
_cell_angle_beta     66.98895746774105
_cell_angle_gamma    66.98895746057966

_space_group_name_H-M_alt    "P 1"
_space_group_IT_number       1

loop_
  _space_group_symop_operation_xyz
  'x, y, z'

loop_
  _atom_site_type_symbol
  _atom_site_label
  _atom_site_symmetry_multiplicity
  _atom_site_fract_x
  _atom_site_fract_y
  _atom_site_fract_z
  _atom_site_occupancy
  C   C1        1.0  0.43564239500000007  0.460879965  0.5535179825424509  1.0000
  O   O1        1.0  0.40545217499999997  0.3697262949999999  0.5645144607855472  1.0000
  Re  Re1       1.0  0.370284495  0.963238335  0.4670653170284839  1.0000
  Re  Re2       1.0  0.870284495  0.46323833499999995  0.4354855392144528  1.0000
  Re  Re3       1.0  0.621937415  0.21489125499999998  0.4511710310561993  1.0000
  Re  Re4       1.0  0.12193741500000004  0.714891255  0.48275080887023036  1.0000
  Re  Re5       1.0  0.8735903349999999  0.963238335  0.46706531702848386  1.0000
  Re  Re6       1.0  0.37359033500000005  0.46323833499999995  0.4354855392144528  1.0000
  Re  Re7       1.0  0.6235903349999999  0.04767361499999997  0.4933122023914506  1.0000
  Re  Re8       1.0  0.12359033500000001  0.5476736149999999  0.46173242078784604  1.0000
  Re  Re9       1.0  0.371937415  0.796020695  0.4460469289460995  1.0000
  Re  Re10      1.0  0.871937415  0.29602069499999994  0.47762671054970407  1.0000
  Re  Re11      1.0  0.12028449499999999  0.04767361499999997  0.4933122023914506  1.0000
  Re  Re12      1.0  0.6202844949999999  0.5476736149999999  0.46173242078784604  1.0000
  Os  Os1       1.0  0.871937415  0.797122645  0.4459773334289691  1.0000
  Os  Os2       1.0  0.371937415  0.297122645  0.47755711124300027  1.0000
  Os  Os3       1.0  0.12193741500000001  0.21378930499999996  0.4512406265733297  1.0000
  Os  Os4       1.0  0.621937415  0.7137893049999999  0.48282040817693433  1.0000
  Re  Re13      1.0  0.3687101350000001  0.9544825849999999  0.5306283902312567  1.0000
  Re  Re14      1.0  0.870284495  0.46323833499999995  0.49864509484251507  1.0000
  Re  Re15      1.0  0.621937415  0.21489125499999998  0.5143305866842616  1.0000
  Re  Re16      1.0  0.11532636500000004  0.7156004449999999  0.5464806195169576  1.0000
  Re  Re17      1.0  0.8698666650000001  0.963689935  0.5307775213167799  1.0000
  Re  Re18      1.0  0.37359033500000005  0.46323833499999995  0.498645094842515  1.0000
  Re  Re19      1.0  0.633214435  0.044096334999999966  0.5549792534486326  1.0000
  Re  Re20      1.0  0.12359033500000001  0.5476736149999999  0.5248919802054818  1.0000
  Re  Re21      1.0  0.371937415  0.796020695  0.5092064883637352  1.0000
  Re  Re22      1.0  0.8846736350000001  0.29413054499999997  0.539976449481404  1.0000
  Re  Re23      1.0  0.136696495  0.03631006499999997  0.5546950581743786  1.0000
  Re  Re24      1.0  0.6202844949999999  0.5476736149999999  0.5248919802054818  1.0000
  Os  Os5       1.0  0.871937415  0.797122645  0.5091368890570314  1.0000
  Os  Os6       1.0  0.37498385500000003  0.29451414499999995  0.5402076854661456  1.0000
  Os  Os7       1.0  0.12193741500000001  0.21378930499999996  0.5144001859909654  1.0000
  Os  Os8       1.0  0.6110624949999999  0.7115051649999999  0.546738568205225  1.0000
