data_image0
_chemical_formula_structural       COCa2Fe8Sb24
_chemical_formula_sum              "C1 O1 Ca2 Fe8 Sb24"
_cell_length_a       9.25551973
_cell_length_b       9.25551973
_cell_length_c       107.02207894
_cell_angle_alpha    90.0
_cell_angle_beta     90.0
_cell_angle_gamma    90.0

_space_group_name_H-M_alt    "P 1"
_space_group_IT_number       1

loop_
  _space_group_symop_operation_xyz
  'x, y, z'

loop_
  _atom_site_type_symbol
  _atom_site_label
  _atom_site_symmetry_multiplicity
  _atom_site_fract_x
  _atom_site_fract_y
  _atom_site_fract_z
  _atom_site_occupancy
  C   C1        1.0  0.572304025  0.5811557399999999  0.5448020149761637  1.0000
  O   O1        1.0  0.5723130150000001  0.58121679  0.5555395030863091  1.0000
  Ca  Ca1       1.0  0.07215626499999998  0.08110226000000001  0.5137934678307263  1.0000
  Ca  Ca2       1.0  0.572150695  0.5811474400000001  0.473718925175373  1.0000
  Fe  Fe1       1.0  0.322150695  0.33114744  0.45209834037018304  1.0000
  Fe  Fe2       1.0  0.822150695  0.33114744  0.45209834037018304  1.0000
  Fe  Fe3       1.0  0.322150695  0.8311474400000001  0.45209834037018304  1.0000
  Fe  Fe4       1.0  0.32563004500000003  0.32844285  0.4957916465685962  1.0000
  Fe  Fe5       1.0  0.818921565  0.8338020300000001  0.4957813586295225  1.0000
  Fe  Fe6       1.0  0.321104365  0.8324075400000001  0.4965567558236823  1.0000
  Fe  Fe7       1.0  0.822956495  0.33007362  0.49653584439405873  1.0000
  Fe  Fe8       1.0  0.822150695  0.8311474400000001  0.45209834037018304  1.0000
  Sb  Sb1       1.0  0.40595388500000007  0.08114744  0.44446049691369105  1.0000
  Sb  Sb2       1.0  0.572150695  0.41946423  0.44485084359999794  1.0000
  Sb  Sb3       1.0  0.410467485  0.9149506300000001  0.473718925175373  1.0000
  Sb  Sb4       1.0  0.07215069499999999  0.24283065000000004  0.48809201321037776  1.0000
  Sb  Sb5       1.0  0.410467485  0.24734425000000002  0.473718925175373  1.0000
  Sb  Sb6       1.0  0.573026865  0.42773654  0.5012998416660156  1.0000
  Sb  Sb7       1.0  0.21568201499999998  0.72905582  0.516459759860425  1.0000
  Sb  Sb8       1.0  0.251753505  0.40762437  0.5180989530366025  1.0000
  Sb  Sb9       1.0  0.07215069499999999  0.24283065000000004  0.4593458336810747  1.0000
  Sb  Sb10      1.0  0.238347505  0.5811474400000001  0.459736183826675  1.0000
  Sb  Sb11      1.0  0.905953885  0.5811474400000001  0.459736183826675  1.0000
  Sb  Sb12      1.0  0.738347505  0.08114744  0.44446049691369105  1.0000
  Sb  Sb13      1.0  0.905953885  0.5811474400000001  0.48770166652407093  1.0000
  Sb  Sb14      1.0  0.07215069499999999  0.91946423  0.48809201321037776  1.0000
  Sb  Sb15      1.0  0.9278493050000001  0.4329536400000001  0.5165225944688092  1.0000
  Sb  Sb16      1.0  0.572150695  0.74283065  0.44485084359999794  1.0000
  Sb  Sb17      1.0  0.8921871150000001  0.7547163600000001  0.5180938886308176  1.0000
  Sb  Sb18      1.0  0.07215069499999999  0.91946423  0.4593458336810747  1.0000
  Sb  Sb19      1.0  0.733833905  0.24734425000000002  0.473718925175373  1.0000
  Sb  Sb20      1.0  0.733833905  0.9149506300000001  0.473718925175373  1.0000
  Sb  Sb21      1.0  0.571069535  0.73499841  0.501265788380124  1.0000
  Sb  Sb22      1.0  0.7320054850000001  0.08053577  0.5019582144180353  1.0000
  Sb  Sb23      1.0  0.412233095  0.08132849  0.5019755385602281  1.0000
  Sb  Sb24      1.0  0.238347505  0.5811474400000001  0.48770166652407093  1.0000
