data_image0
_chemical_formula_structural       COAs48Ni24
_chemical_formula_sum              "C1 O1 As48 Ni24"
_cell_length_a       13.039620794451674
_cell_length_b       13.231498507788423
_cell_length_c       101.64826347
_cell_angle_alpha    94.32261487605005
_cell_angle_beta     99.8104834877597
_cell_angle_gamma    114.0512308790983

_space_group_name_H-M_alt    "P 1"
_space_group_IT_number       1

loop_
  _space_group_symop_operation_xyz
  'x, y, z'

loop_
  _atom_site_type_symbol
  _atom_site_label
  _atom_site_symmetry_multiplicity
  _atom_site_fract_x
  _atom_site_fract_y
  _atom_site_fract_z
  _atom_site_occupancy
  C   C1        1.0  0.4146399299999999  0.9850589949999999  0.5366332479383747  1.0000
  O   O1        1.0  0.4237548999999999  0.994245255  0.5483194933644842  1.0000
  As  As1       1.0  0.8441651399999999  0.34631466499999997  0.5053740214293412  1.0000
  As  As2       1.0  0.8290742099999998  0.9436010949999999  0.4792016186304281  1.0000
  As  As3       1.0  0.8290742099999998  0.526934425  0.4532557235050201  1.0000
  As  As4       1.0  0.19253192999999985  0.014468664999999943  0.45247947625928  1.0000
  As  As5       1.0  0.20045541999999988  0.8518849049999999  0.506431007422911  1.0000
  As  As6       1.0  0.19253192999999988  0.431135325  0.47842537449819544  1.0000
  As  As7       1.0  0.6925319299999999  0.637768055  0.4753290068176115  1.0000
  As  As8       1.0  0.6901545599999999  0.468347445  0.5287817291653402  1.0000
  As  As9       1.0  0.69666653  0.05886273499999994  0.5011824058610334  1.0000
  As  As10      1.0  0.3290742099999998  0.2390875249999999  0.4816381842472523  1.0000
  As  As11      1.0  0.32907420999999987  0.8224208549999998  0.45569228912184434  1.0000
  As  As12      1.0  0.32492941999999986  0.645525225  0.508208303385765  1.0000
  As  As13      1.0  0.19253192999999985  0.2655282449999999  0.4521495752274  1.0000
  As  As14      1.0  0.1961148599999999  0.10519037499999995  0.504279072438341  1.0000
  As  As15      1.0  0.19253192999999985  0.6821949049999999  0.4780954734663156  1.0000
  As  As16      1.0  0.8301874299999998  0.6146641350000001  0.5061144508843459  1.0000
  As  As17      1.0  0.8290742099999998  0.19466067499999995  0.47887171759854824  1.0000
  As  As18      1.0  0.8290742099999998  0.7779940049999999  0.4529258224731404  1.0000
  As  As19      1.0  0.32907420999999987  0.9880279449999999  0.48196808527913215  1.0000
  As  As20      1.0  0.3290742099999998  0.5713612749999999  0.4560221901537242  1.0000
  As  As21      1.0  0.33416898999999983  0.40516525499999995  0.5080148269137473  1.0000
  As  As22      1.0  0.6925319299999999  0.38670847499999994  0.4756589078494914  1.0000
  As  As23      1.0  0.7456510899999998  0.31421434499999995  0.5271459078715777  1.0000
  As  As24      1.0  0.6844585599999998  0.7966450749999999  0.5017492572707061  1.0000
  As  As25      1.0  0.5792735499999999  0.18987366499999994  0.4794735835140112  1.0000
  As  As26      1.0  0.5792735499999999  0.773207005  0.45352768838860336  1.0000
  As  As27      1.0  0.57609967  0.598660375  0.5063505792961484  1.0000
  As  As28      1.0  0.44233258999999986  0.26549778499999993  0.45304763222861166  1.0000
  As  As29      1.0  0.44658995999999984  0.10564553499999993  0.5055206987695312  1.0000
  As  As30      1.0  0.44233258999999975  0.6821644549999999  0.47899353046752713  1.0000
  As  As31      1.0  0.9423325899999999  0.594906155  0.48772345378218346  1.0000
  As  As32      1.0  0.9423325899999999  0.17823948499999995  0.46177755865677556  1.0000
  As  As33      1.0  0.9392546199999999  0.005754744999999941  0.5134620546891131  1.0000
  As  As34      1.0  0.07927354999999989  0.20131440499999995  0.49434951155517337  1.0000
  As  As35      1.0  0.07927354999999987  0.7846477349999998  0.46840361642976547  1.0000
  As  As36      1.0  0.04959293999999993  0.629524435  0.5196166589234433  1.0000
  As  As37      1.0  0.44233258999999986  0.43592233499999994  0.4778235085827325  1.0000
  As  As38      1.0  0.44233258999999986  0.019255674999999944  0.45187761345732447  1.0000
  As  As39      1.0  0.42914182999999984  0.8414986549999999  0.5034789726113399  1.0000
  As  As40      1.0  0.5789048399999999  0.36210254499999994  0.5056180114476811  1.0000
  As  As41      1.0  0.5792735499999999  0.9436315549999998  0.4783035616292165  1.0000
  As  As42      1.0  0.5792735499999999  0.526964885  0.4523576665038086  1.0000
  As  As43      1.0  0.07927354999999987  0.030889854999999942  0.4695736383145602  1.0000
  As  As44      1.0  0.029396629999999823  0.8088630649999999  0.5252301697959759  1.0000
  As  As45      1.0  0.07927354999999987  0.44755651499999993  0.49551953343996813  1.0000
  As  As46      1.0  0.9423325899999999  0.424481605  0.4629475805415702  1.0000
  As  As47      1.0  0.9706033699999999  0.2613792749999999  0.5159025620064824  1.0000
  As  As48      1.0  0.9423325899999997  0.8411482649999997  0.48889347566697816  1.0000
  Ni  Ni1       1.0  0.6391725699999998  0.376265235  0.45168050663551573  1.0000
  Ni  Ni2       1.0  0.6443428499999998  0.2125543149999999  0.5037579460003946  1.0000
  Ni  Ni3       1.0  0.6391725699999998  0.7929319049999999  0.47762640487443114  1.0000
  Ni  Ni4       1.0  0.38243356999999983  0.12334694499999993  0.4670663244659139  1.0000
  Ni  Ni5       1.0  0.39450471999999986  0.957913065  0.518493134160245  1.0000
  Ni  Ni6       1.0  0.38243356999999983  0.540013615  0.49301221959132174  1.0000
  Ni  Ni7       1.0  0.8627171899999998  0.49724544499999995  0.5206013554989591  1.0000
  Ni  Ni8       1.0  0.8824335699999999  0.10380780499999993  0.49654239227739666  1.0000
  Ni  Ni9       1.0  0.8824335699999998  0.6871411449999999  0.4705964971519887  1.0000
  Ni  Ni10      1.0  0.13917256999999986  0.2315053549999999  0.47335906257574556  1.0000
  Ni  Ni11      1.0  0.07905993999999991  0.9370361349999999  0.5099986013561042  1.0000
  Ni  Ni12      1.0  0.13729496999999988  0.648557635  0.5000526727638009  1.0000
  Ni  Ni13      1.0  0.38186668999999973  0.24990436499999993  0.5052211201875794  1.0000
  Ni  Ni14      1.0  0.3824335699999998  0.8328641049999999  0.47967068722231243  1.0000
  Ni  Ni15      1.0  0.38243356999999983  0.41619743499999995  0.4537247920969044  1.0000
  Ni  Ni16      1.0  0.6391725699999998  0.5024490549999999  0.49023076763082973  1.0000
  Ni  Ni17      1.0  0.6391725699999998  0.08578239499999994  0.46428487250542183  1.0000
  Ni  Ni18      1.0  0.6213207199999998  0.911402635  0.5129075140882519  1.0000
  Ni  Ni19      1.0  0.1483795899999999  0.35902856499999997  0.5107846468100714  1.0000
  Ni  Ni20      1.0  0.13917256999999997  0.938654865  0.4867005949447549  1.0000
  Ni  Ni21      1.0  0.1391725699999999  0.521988195  0.4607546998193471  1.0000
  Ni  Ni22      1.0  0.8824335699999999  0.394290655  0.48393802952099807  1.0000
  Ni  Ni23      1.0  0.8824335699999998  0.9776239849999999  0.4579921312820825  1.0000
  Ni  Ni24      1.0  0.8729238599999998  0.8094644749999999  0.5093052730431582  1.0000
