data_image0
_chemical_formula_structural       COV12Ga4V12Ga4
_chemical_formula_sum              "C1 O1 V24 Ga8"
_cell_length_a       6.79194266
_cell_length_b       4.80262871
_cell_length_c       103.95971328
_cell_angle_alpha    90.0
_cell_angle_beta     90.0
_cell_angle_gamma    90.0

_space_group_name_H-M_alt    "P 1"
_space_group_IT_number       1

loop_
  _space_group_symop_operation_xyz
  'x, y, z'

loop_
  _atom_site_type_symbol
  _atom_site_label
  _atom_site_symmetry_multiplicity
  _atom_site_fract_x
  _atom_site_fract_y
  _atom_site_fract_z
  _atom_site_occupancy
  C   C1        1.0  0.11485849999999997  0.623182085  0.5578431077238032  1.0000
  O   O1        1.0  0.26053398  0.623175765  0.5669976113293429  1.0000
  V   V1        1.0  0.8124999999999999  0.12317173500000003  0.49833483757523345  1.0000
  V   V2        1.0  0.32104029  0.12317543500000003  0.5309244205317116  1.0000
  V   V3        1.0  0.5625  0.12317173500000003  0.5146679498013775  1.0000
  V   V4        1.0  0.08459231999999998  0.12317391500000004  0.5479466822952582  1.0000
  V   V5        1.0  0.8472316699999999  0.623173255  0.5481344085539407  1.0000
  V   V6        1.0  0.3125  0.623171735  0.5146679498013775  1.0000
  V   V7        1.0  0.0625  0.623171735  0.49833483757523345  1.0000
  V   V8        1.0  0.57024504  0.623173255  0.5322590285313118  1.0000
  V   V9        1.0  0.40659446000000005  0.8768282650000001  0.5539546575631455  1.0000
  V   V10       1.0  0.9375  0.8731717349999999  0.5228345059144495  1.0000
  V   V11       1.0  0.40659481  0.36952223500000003  0.5539545660977171  1.0000
  V   V12       1.0  0.9375  0.373171735  0.5228345059144495  1.0000
  Ga  Ga1       1.0  0.6875  0.623171735  0.5065013936883054  1.0000
  Ga  Ga2       1.0  0.18990425  0.623176905  0.5370732982921513  1.0000
  Ga  Ga3       1.0  0.6966323899999999  0.12317370500000004  0.5406536504236424  1.0000
  Ga  Ga4       1.0  0.18749999999999997  0.12317173500000003  0.5065013936883054  1.0000
  V   V13       1.0  0.8124999999999999  0.12317173500000003  0.43300238867065716  1.0000
  V   V14       1.0  0.3125  0.12317173500000003  0.4656686131229453  1.0000
  V   V15       1.0  0.5625  0.12317173500000003  0.4493355008968012  1.0000
  V   V16       1.0  0.0625  0.12317173500000003  0.48200172534908936  1.0000
  V   V17       1.0  0.8124999999999999  0.623171735  0.48200172534908936  1.0000
  V   V18       1.0  0.3125  0.623171735  0.4493355008968012  1.0000
  V   V19       1.0  0.0625  0.623171735  0.43300238867065716  1.0000
  V   V20       1.0  0.5625  0.623171735  0.4656686131229453  1.0000
  V   V21       1.0  0.4375  0.8731717349999999  0.49016828146216135  1.0000
  V   V22       1.0  0.9375  0.8731717349999999  0.45750205700987323  1.0000
  V   V23       1.0  0.4375  0.373171735  0.49016828146216135  1.0000
  V   V24       1.0  0.9375  0.373171735  0.45750205700987323  1.0000
  Ga  Ga5       1.0  0.6875  0.623171735  0.4411689447837292  1.0000
  Ga  Ga6       1.0  0.18749999999999997  0.623171735  0.47383516923601726  1.0000
  Ga  Ga7       1.0  0.6875  0.12317173500000003  0.47383516923601726  1.0000
  Ga  Ga8       1.0  0.18749999999999997  0.12317173500000003  0.4411689447837292  1.0000
