data_image0
_chemical_formula_structural       COSi12Pt12Si12Pt12
_chemical_formula_sum              "C1 O1 Si24 Pt24"
_cell_length_a       6.00163395
_cell_length_b       9.251367686705931
_cell_length_c       103.77680215000001
_cell_angle_alpha    84.7836301435858
_cell_angle_beta     90.0
_cell_angle_gamma    90.0

_space_group_name_H-M_alt    "P 1"
_space_group_IT_number       1

loop_
  _space_group_symop_operation_xyz
  'x, y, z'

loop_
  _atom_site_type_symbol
  _atom_site_label
  _atom_site_symmetry_multiplicity
  _atom_site_fract_x
  _atom_site_fract_y
  _atom_site_fract_z
  _atom_site_occupancy
  C   C1        1.0  0.397489345  0.46866912  0.5592788710990713  1.0000
  O   O1        1.0  0.44102931500000003  0.46859366  0.5704908398922255  1.0000
  Si  Si1       1.0  0.9248966949999999  0.19050630000000005  0.4328407399090075  1.0000
  Si  Si2       1.0  0.9248966949999999  0.85717297  0.45453910482233933  1.0000
  Si  Si3       1.0  0.9248966949999999  0.52383964  0.4762374664809166  1.0000
  Si  Si4       1.0  0.091525455  0.47616036  0.4374825504569008  1.0000
  Si  Si5       1.0  0.091525455  0.14282703000000002  0.45918091211547807  1.0000
  Si  Si6       1.0  0.091525455  0.8094937000000001  0.48087927702880995  1.0000
  Si  Si7       1.0  0.591525455  0.35717297  0.45453910482233933  1.0000
  Si  Si8       1.0  0.591525455  0.02383964000000002  0.4762374664809166  1.0000
  Si  Si9       1.0  0.591525455  0.6905063  0.4328407399090075  1.0000
  Si  Si10      1.0  0.424896695  0.3094937  0.4808792770288099  1.0000
  Si  Si11      1.0  0.424896695  0.9761603600000001  0.4374825504569008  1.0000
  Si  Si12      1.0  0.424896695  0.6428270300000001  0.45918091211547807  1.0000
  Pt  Pt1       1.0  0.314618615  0.25175048000000005  0.44081413025813376  1.0000
  Pt  Pt2       1.0  0.314618615  0.91841714  0.4625124951714656  1.0000
  Pt  Pt3       1.0  0.314618615  0.58508381  0.48421085683004284  1.0000
  Pt  Pt4       1.0  0.701803535  0.41491619  0.4295091601077746  1.0000
  Pt  Pt5       1.0  0.701803535  0.08158286000000002  0.45120752176635187  1.0000
  Pt  Pt6       1.0  0.701803535  0.74824952  0.47290588667968375  1.0000
  Pt  Pt7       1.0  0.201803535  0.08508381000000002  0.48421085683004284  1.0000
  Pt  Pt8       1.0  0.201803535  0.7517504800000001  0.44081413025813376  1.0000
  Pt  Pt9       1.0  0.201803535  0.41841714  0.4625124951714656  1.0000
  Pt  Pt10      1.0  0.814618615  0.58158286  0.45120752176635187  1.0000
  Pt  Pt11      1.0  0.814618615  0.24824952  0.47290588667968375  1.0000
  Pt  Pt12      1.0  0.814618615  0.91491619  0.4295091601077746  1.0000
  Si  Si13      1.0  0.9248966949999999  0.19050630000000005  0.4979358313942485  1.0000
  Si  Si14      1.0  0.933591785  0.86121438  0.5202049858720232  1.0000
  Si  Si15      1.0  0.915647465  0.52609799  0.5409436896538885  1.0000
  Si  Si16      1.0  0.091525455  0.47616036  0.5025776419421418  1.0000
  Si  Si17      1.0  0.08893654500000002  0.14379559000000003  0.5249610252864548  1.0000
  Si  Si18      1.0  0.066408215  0.8522599300000001  0.5480733271914467  1.0000
  Si  Si19      1.0  0.588469115  0.35940924  0.5197927907337204  1.0000
  Si  Si20      1.0  0.5930029050000001  0.024797010000000026  0.5416646535943879  1.0000
  Si  Si21      1.0  0.591525455  0.6905063  0.4979358313942484  1.0000
  Si  Si22      1.0  0.432938585  0.31889822000000007  0.5462354193594341  1.0000
  Si  Si23      1.0  0.424896695  0.9761603600000001  0.5025776419421418  1.0000
  Si  Si24      1.0  0.431431645  0.6447178300000002  0.5244457553255397  1.0000
  Pt  Pt13      1.0  0.314618615  0.25175048000000005  0.5059092217433746  1.0000
  Pt  Pt14      1.0  0.31621943500000005  0.9143561700000001  0.5267300820402034  1.0000
  Pt  Pt15      1.0  0.269783015  0.6326100700000001  0.54642588759712  1.0000
  Pt  Pt16      1.0  0.701803535  0.41491619  0.4946042515930156  1.0000
  Pt  Pt17      1.0  0.701803535  0.08158286000000002  0.5163026132515929  1.0000
  Pt  Pt18      1.0  0.7107118750000001  0.77117032  0.5380380270362435  1.0000
  Pt  Pt19      1.0  0.21952679500000002  0.10075156000000003  0.5471596394683416  1.0000
  Pt  Pt20      1.0  0.201803535  0.7517504800000001  0.5059092217433747  1.0000
  Pt  Pt21      1.0  0.20694760500000003  0.41696644  0.5270457834696431  1.0000
  Pt  Pt22      1.0  0.814618615  0.58158286  0.5163026132515929  1.0000
  Pt  Pt23      1.0  0.8028168450000001  0.26873886  0.5382309233208417  1.0000
  Pt  Pt24      1.0  0.814618615  0.91491619  0.4946042515930155  1.0000
