data_image0
_chemical_formula_structural       COZn2Pd2Zn2Pd2Zn2Pd2Zn2Pd2Zn2Pd2Zn2Pd2
_chemical_formula_sum              "C1 O1 Zn12 Pd12"
_cell_length_a       5.8835755
_cell_length_b       7.500417136287286
_cell_length_c       102.35966522
_cell_angle_alpha    113.09249024647302
_cell_angle_beta     90.0
_cell_angle_gamma    90.0

_space_group_name_H-M_alt    "P 1"
_space_group_IT_number       1

loop_
  _space_group_symop_operation_xyz
  'x, y, z'

loop_
  _atom_site_type_symbol
  _atom_site_label
  _atom_site_symmetry_multiplicity
  _atom_site_fract_x
  _atom_site_fract_y
  _atom_site_fract_z
  _atom_site_occupancy
  C   C1        1.0  0.37592601000000003  0.009756700000000005  0.5414080922567849  1.0000
  O   O1        1.0  0.3759325600000001  0.001383160000000005  0.5526456234161592  1.0000
  Zn  Zn1       1.0  0.3759331400000001  0.25902584  0.4617242362113061  1.0000
  Zn  Zn2       1.0  0.3759331400000001  0.7590258400000001  0.44735437658384075  1.0000
  Pd  Pd1       1.0  0.12593314000000005  0.009025840000000004  0.46890916444435443  1.0000
  Pd  Pd2       1.0  0.12593314000000005  0.50902584  0.45453930481688903  1.0000
  Zn  Zn3       1.0  0.3759331400000001  0.25902584  0.49046395230486806  1.0000
  Zn  Zn4       1.0  0.3759331400000001  0.7590258400000001  0.4760940926774027  1.0000
  Pd  Pd3       1.0  0.12498630000000005  0.9986162100000001  0.49754106837766504  1.0000
  Pd  Pd4       1.0  0.12593314000000005  0.50902584  0.483279020910451  1.0000
  Zn  Zn5       1.0  0.37593393  0.25667396  0.5192489676519926  1.0000
  Zn  Zn6       1.0  0.3759371100000001  0.74427817  0.5051514504627049  1.0000
  Pd  Pd5       1.0  0.13980972000000005  0.0042196500000000045  0.5260954998071161  1.0000
  Pd  Pd6       1.0  0.12406525000000006  0.48766947  0.5115158801982754  1.0000
  Zn  Zn7       1.0  0.87593314  0.25902584  0.4617242362113061  1.0000
  Zn  Zn8       1.0  0.87593314  0.7590258400000001  0.44735437658384075  1.0000
  Pd  Pd7       1.0  0.6259331400000001  0.009025840000000004  0.46890916444435443  1.0000
  Pd  Pd8       1.0  0.6259331400000001  0.50902584  0.45453930481688903  1.0000
  Zn  Zn9       1.0  0.87593314  0.25902584  0.49046395230486806  1.0000
  Zn  Zn10      1.0  0.87593314  0.7590258400000001  0.4760940926774027  1.0000
  Pd  Pd9       1.0  0.6268803800000001  0.99861684  0.49754144774192127  1.0000
  Pd  Pd10      1.0  0.6259331400000001  0.50902584  0.483279020910451  1.0000
  Zn  Zn11      1.0  0.8759347499999999  0.25514899  0.5197677293041725  1.0000
  Zn  Zn12      1.0  0.8759317500000002  0.7494711599999999  0.5060282877136014  1.0000
  Pd  Pd11      1.0  0.6120645400000001  0.004226130000000006  0.52609657151114  1.0000
  Pd  Pd12      1.0  0.6278018200000001  0.48766722  0.5115158675528003  1.0000
