data_image0
_chemical_formula_structural       COCa6Al4Si4Ca6Al4Si4
_chemical_formula_sum              "C1 O1 Ca12 Al8 Si8"
_cell_length_a       4.57255193
_cell_length_b       18.71527157
_cell_length_c       98.86414938
_cell_angle_alpha    90.0
_cell_angle_beta     90.0
_cell_angle_gamma    90.0

_space_group_name_H-M_alt    "P 1"
_space_group_IT_number       1

loop_
  _space_group_symop_operation_xyz
  'x, y, z'

loop_
  _atom_site_type_symbol
  _atom_site_label
  _atom_site_symmetry_multiplicity
  _atom_site_fract_x
  _atom_site_fract_y
  _atom_site_fract_z
  _atom_site_occupancy
  C   C1        1.0  0.25000003  0.61686699  0.5331071386578073  1.0000
  O   O1        1.0  0.24999992  0.5698888199999999  0.5415847610221031  1.0000
  Ca  Ca1       1.0  0.25000005  0.03161858999999996  0.45841523897789704  1.0000
  Ca  Ca2       1.0  0.25000005  0.8450637099999999  0.47926935978315693  1.0000
  Ca  Ca3       1.0  0.7500000499999999  0.7181734699999999  0.45841523897789704  1.0000
  Ca  Ca4       1.0  0.7500000499999999  0.5316185899999999  0.47926935978315693  1.0000
  Ca  Ca5       1.0  0.7500000499999999  0.34506370999999997  0.45841523897789704  1.0000
  Ca  Ca6       1.0  0.25000005  0.21817346999999992  0.47926935978315693  1.0000
  Al  Al1       1.0  0.25000005  0.6002424799999999  0.45841523897789704  1.0000
  Al  Al2       1.0  0.7500000499999999  0.9629946999999999  0.47926935978315693  1.0000
  Al  Al3       1.0  0.7500000499999999  0.10024247999999997  0.47926935978315693  1.0000
  Al  Al4       1.0  0.25000005  0.4629946999999999  0.45841523897789704  1.0000
  Si  Si1       1.0  0.25000005  0.67590768  0.47926935978315693  1.0000
  Si  Si2       1.0  0.7500000499999999  0.8873294999999999  0.45841523897789704  1.0000
  Si  Si3       1.0  0.7500000499999999  0.17590767999999996  0.45841523897789704  1.0000
  Si  Si4       1.0  0.25000005  0.38732949999999994  0.47926935978315693  1.0000
  Ca  Ca7       1.0  0.25000005  0.03596288999999996  0.5008047755529375  1.0000
  Ca  Ca8       1.0  0.25000005  0.8494398999999999  0.5214039793341173  1.0000
  Ca  Ca9       1.0  0.75000006  0.71927403  0.49904917552865885  1.0000
  Ca  Ca10      1.0  0.75000008  0.50948857  0.5231637134793872  1.0000
  Ca  Ca11      1.0  0.75000006  0.34280305999999994  0.5001931942473334  1.0000
  Ca  Ca12      1.0  0.25000006  0.22616146999999998  0.521381962804178  1.0000
  Al  Al5       1.0  0.25000004  0.5988820399999999  0.5001888557559544  1.0000
  Al  Al6       1.0  0.7500000499999999  0.96838141  0.5226953812178716  1.0000
  Al  Al7       1.0  0.75000006  0.10577936999999994  0.5239702582959691  1.0000
  Al  Al8       1.0  0.25000006  0.46121026999999987  0.5004314930392939  1.0000
  Si  Si5       1.0  0.25000003  0.6821064799999998  0.5202456605274381  1.0000
  Si  Si6       1.0  0.75000004  0.89092645  0.5016848674329991  1.0000
  Si  Si7       1.0  0.75000006  0.17042817999999996  0.5013821715317865  1.0000
  Si  Si8       1.0  0.25000006999999996  0.3902820699999999  0.5207333057906178  1.0000
