data_image0
_chemical_formula_structural       COMn4Al4Ge4Mn4Al4Ge4Mn4Al4Ge4Mn4Al4Ge4
_chemical_formula_sum              "C1 O1 Mn16 Al16 Ge16"
_cell_length_a       12.456876087520556
_cell_length_b       7.75468058
_cell_length_c       101.01872232
_cell_angle_alpha    90.0
_cell_angle_beta     71.86475654109243
_cell_angle_gamma    90.0

_space_group_name_H-M_alt    "P 1"
_space_group_IT_number       1

loop_
  _space_group_symop_operation_xyz
  'x, y, z'

loop_
  _atom_site_type_symbol
  _atom_site_label
  _atom_site_symmetry_multiplicity
  _atom_site_fract_x
  _atom_site_fract_y
  _atom_site_fract_z
  _atom_site_occupancy
  C   C1        1.0  0.33365085499999997  0.13176878500000003  0.5370476467189281  1.0000
  O   O1        1.0  0.30536464499999993  0.13545094500000004  0.5493229930738311  1.0000
  Mn  Mn1       1.0  0.254216405  0.36785581500000003  0.5082913031016976  1.0000
  Mn  Mn2       1.0  0.737734895  0.37814202500000005  0.489059399822781  1.0000
  Mn  Mn3       1.0  0.237734895  0.12814202500000002  0.489059399822781  1.0000
  Mn  Mn4       1.0  0.7466631449999999  0.10382606500000002  0.5080818365659993  1.0000
  Al  Al1       1.0  0.617549235  0.37737892500000003  0.5161151792815173  1.0000
  Al  Al2       1.0  0.09420130499999997  0.38016390499999997  0.4965017887937142  1.0000
  Al  Al3       1.0  0.39344056499999996  0.12526581500000003  0.5016167830712797  1.0000
  Al  Al4       1.0  0.8965072249999999  0.12716285500000002  0.5195568271230392  1.0000
  Ge  Ge1       1.0  0.608790675  0.12935666500000004  0.49502262041863027  1.0000
  Ge  Ge2       1.0  0.11880015499999998  0.12840627500000004  0.5150235625333975  1.0000
  Ge  Ge3       1.0  0.3830433549999999  0.3613209150000001  0.5212850235338278  1.0000
  Ge  Ge4       1.0  0.854020035  0.37836383500000004  0.5046354600136724  1.0000
  Mn  Mn5       1.0  0.237734895  0.37814202500000005  0.469868203374475  1.0000
  Mn  Mn6       1.0  0.737734895  0.37814202500000005  0.4506770069261689  1.0000
  Mn  Mn7       1.0  0.237734895  0.12814202500000002  0.45067700692616897  1.0000
  Mn  Mn8       1.0  0.737734895  0.12814202500000002  0.46986820337447494  1.0000
  Al  Al5       1.0  0.5905921749999999  0.37814202500000005  0.47551589306539116  1.0000
  Al  Al6       1.0  0.09059217499999998  0.37814202500000005  0.4563246966170851  1.0000
  Al  Al7       1.0  0.384877615  0.12814202500000002  0.46422051368355877  1.0000
  Al  Al8       1.0  0.8848776149999998  0.12814202500000002  0.48341171013186485  1.0000
  Ge  Ge5       1.0  0.5974381149999999  0.12814202500000002  0.4560619338259064  1.0000
  Ge  Ge6       1.0  0.09743811499999998  0.12814202500000002  0.4752531302742124  1.0000
  Ge  Ge7       1.0  0.37803168499999995  0.37814202500000005  0.4836744729230436  1.0000
  Ge  Ge8       1.0  0.8780316849999998  0.37814202500000005  0.4644832764747375  1.0000
  Mn  Mn9       1.0  0.25146871499999995  0.8860402150000002  0.5083539400963134  1.0000
  Mn  Mn10      1.0  0.737734895  0.878142025  0.489059399822781  1.0000
  Mn  Mn11      1.0  0.237734895  0.628142025  0.489059399822781  1.0000
  Mn  Mn12      1.0  0.7464226049999999  0.652964065  0.5081159846133115  1.0000
  Al  Al9       1.0  0.591195615  0.8784632050000002  0.5167250110222243  1.0000
  Al  Al10      1.0  0.10232728499999998  0.8763271450000002  0.4959509031967219  1.0000
  Al  Al11      1.0  0.379112305  0.6293040750000001  0.5039737076424463  1.0000
  Al  Al12      1.0  0.909407825  0.6277657850000001  0.5184338012951644  1.0000
  Ge  Ge9       1.0  0.603809065  0.6267389050000001  0.4954191013254779  1.0000
  Ge  Ge10      1.0  0.13266992499999997  0.625397785  0.5155795238180263  1.0000
  Ge  Ge11      1.0  0.3691153649999999  0.8961739350000001  0.5223655554468789  1.0000
  Ge  Ge12      1.0  0.8848335049999999  0.878631605  0.5022074819567758  1.0000
  Mn  Mn13      1.0  0.237734895  0.878142025  0.469868203374475  1.0000
  Mn  Mn14      1.0  0.737734895  0.878142025  0.4506770069261689  1.0000
  Mn  Mn15      1.0  0.237734895  0.628142025  0.45067700692616897  1.0000
  Mn  Mn16      1.0  0.737734895  0.628142025  0.46986820337447494  1.0000
  Al  Al13      1.0  0.5905921749999999  0.878142025  0.47551589306539116  1.0000
  Al  Al14      1.0  0.09059217499999998  0.878142025  0.4563246966170851  1.0000
  Al  Al15      1.0  0.384877615  0.628142025  0.46422051368355877  1.0000
  Al  Al16      1.0  0.8848776149999998  0.628142025  0.48341171013186485  1.0000
  Ge  Ge13      1.0  0.5974381149999999  0.628142025  0.4560619338259064  1.0000
  Ge  Ge14      1.0  0.09743811499999998  0.628142025  0.4752531302742124  1.0000
  Ge  Ge15      1.0  0.37803168499999995  0.878142025  0.4836744729230436  1.0000
  Ge  Ge16      1.0  0.8780316849999998  0.878142025  0.4644832764747375  1.0000
