data_image0
_chemical_formula_structural       COSi12As12Si12As12
_chemical_formula_sum              "C1 O1 Si24 As24"
_cell_length_a       17.85340583
_cell_length_b       10.297406311553866
_cell_length_c       99.77150328
_cell_angle_alpha    90.0
_cell_angle_beta     90.0
_cell_angle_gamma    112.34162601553345

_space_group_name_H-M_alt    "P 1"
_space_group_IT_number       1

loop_
  _space_group_symop_operation_xyz
  'x, y, z'

loop_
  _atom_site_type_symbol
  _atom_site_label
  _atom_site_symmetry_multiplicity
  _atom_site_fract_x
  _atom_site_fract_y
  _atom_site_fract_z
  _atom_site_occupancy
  C   C1        1.0  0.63494275  0.64611012  0.5369101622779687  1.0000
  O   O1        1.0  0.5889356800000001  0.5723067800000001  0.5442781178616997  1.0000
  Si  Si1       1.0  0.36302109000000005  0.59020479  0.4557218821383004  1.0000
  Si  Si2       1.0  0.1367721900000001  0.40979521  0.4743716858781323  1.0000
  Si  Si3       1.0  0.26880296000000004  0.70073006  0.4557218821383004  1.0000
  Si  Si4       1.0  0.23099032000000005  0.29926994  0.4743716858781323  1.0000
  Si  Si5       1.0  0.4348608600000001  0.90818236  0.4743716858781323  1.0000
  Si  Si6       1.0  0.06493242000000009  0.09181764000000005  0.4557218821383004  1.0000
  Si  Si7       1.0  0.8630210900000002  0.59020479  0.4743716858781323  1.0000
  Si  Si8       1.0  0.6367721900000001  0.40979521  0.4557218821383004  1.0000
  Si  Si9       1.0  0.7688029600000003  0.70073006  0.4743716858781323  1.0000
  Si  Si10      1.0  0.7309903200000001  0.29926994  0.4557218821383004  1.0000
  Si  Si11      1.0  0.93486086  0.90818236  0.4557218821383004  1.0000
  Si  Si12      1.0  0.5649324200000001  0.09181764000000005  0.4743716858781323  1.0000
  As  As1       1.0  0.35750211000000004  0.9455250299999999  0.4557218821383004  1.0000
  As  As2       1.0  0.1422911700000001  0.05447497000000004  0.4743716858781323  1.0000
  As  As3       1.0  0.3238828200000001  0.3380397500000001  0.4557218821383004  1.0000
  As  As4       1.0  0.17591046000000007  0.66196025  0.4743716858781323  1.0000
  As  As5       1.0  0.45468760000000014  0.6858653400000001  0.4743716858781323  1.0000
  As  As6       1.0  0.04510568000000011  0.31413466000000007  0.4557218821383004  1.0000
  As  As7       1.0  0.8575021100000001  0.9455250299999999  0.4743716858781323  1.0000
  As  As8       1.0  0.6422911700000001  0.05447497000000004  0.4557218821383004  1.0000
  As  As9       1.0  0.8238828200000001  0.3380397500000001  0.4743716858781323  1.0000
  As  As10      1.0  0.67591046  0.66196025  0.4557218821383004  1.0000
  As  As11      1.0  0.9546876000000001  0.6858653400000001  0.4557218821383004  1.0000
  As  As12      1.0  0.5451056800000001  0.31413466000000007  0.4743716858781323  1.0000
  Si  Si13      1.0  0.36304975000000017  0.5867334300000001  0.4930322886003218  1.0000
  Si  Si14      1.0  0.14020038000000012  0.43165985000000007  0.5026621520609915  1.0000
  Si  Si15      1.0  0.26682477000000004  0.69368508  0.4934315256949725  1.0000
  Si  Si16      1.0  0.2139116000000001  0.2893298  0.5057870654321401  1.0000
  Si  Si17      1.0  0.4448661900000001  0.89297016  0.5071606130336886  1.0000
  Si  Si18      1.0  0.0645351000000001  0.09530311000000004  0.49312290575871714  1.0000
  Si  Si19      1.0  0.8596302700000001  0.56783709  0.5026428815917832  1.0000
  Si  Si20      1.0  0.6369033600000001  0.41342448  0.4929678438305027  1.0000
  Si  Si21      1.0  0.7866507100000001  0.71148138  0.505645693951855  1.0000
  Si  Si22      1.0  0.7329895700000001  0.30617314  0.4934260560805317  1.0000
  Si  Si23      1.0  0.9355249400000001  0.9040519399999999  0.49307268258323794  1.0000
  Si  Si24      1.0  0.5552601500000001  0.10686129000000003  0.5071890562223684  1.0000
  As  As13      1.0  0.3520022200000001  0.9393418  0.4929708009433837  1.0000
  As  As14      1.0  0.13429774000000008  0.07018816000000004  0.5126925058831233  1.0000
  As  As15      1.0  0.3311168200000001  0.3375322800000001  0.4926319653411012  1.0000
  As  As16      1.0  0.1673620800000001  0.6551740600000001  0.5102236120403897  1.0000
  As  As17      1.0  0.4609754700000001  0.6880240700000001  0.510164120658444  1.0000
  As  As18      1.0  0.024242980000000105  0.29625250000000003  0.4904556108278464  1.0000
  As  As19      1.0  0.8666365600000001  0.92938589  0.5127160941548934  1.0000
  As  As20      1.0  0.6478396600000002  0.06040478000000005  0.4929350529995752  1.0000
  As  As21      1.0  0.8312925800000002  0.34465331000000005  0.5104086419652376  1.0000
  As  As22      1.0  0.6688832000000001  0.6626795700000001  0.4926424629426303  1.0000
  As  As23      1.0  0.9757570200000001  0.70270329  0.4904018904411699  1.0000
  As  As24      1.0  0.5374007  0.31076038  0.5098291105039047  1.0000
