data_image0
_chemical_formula_structural       COCa4Cu4Sb4Ca4Cu4Sb4
_chemical_formula_sum              "C1 O1 Ca8 Cu8 Sb8"
_cell_length_a       7.84740885
_cell_length_b       9.463381110515066
_cell_length_c       101.71492528
_cell_angle_alpha    103.8499980007036
_cell_angle_beta     90.0
_cell_angle_gamma    65.50462931621267

_space_group_name_H-M_alt    "P 1"
_space_group_IT_number       1

loop_
  _space_group_symop_operation_xyz
  'x, y, z'

loop_
  _atom_site_type_symbol
  _atom_site_label
  _atom_site_symmetry_multiplicity
  _atom_site_fract_x
  _atom_site_fract_y
  _atom_site_fract_z
  _atom_site_occupancy
  C   C1        1.0  0.4701651449999999  0.68146289  0.5419560411285789  1.0000
  O   O1        1.0  0.475324355  0.66021923  0.5528366553357051  1.0000
  Ca  Ca1       1.0  0.020833334999999984  0.00168805999999999  0.4861386046773847  1.0000
  Ca  Ca2       1.0  0.520833335  0.00168805999999999  0.46386702797247914  1.0000
  Ca  Ca3       1.0  0.770833335  0.50168806  0.452731238061016  1.0000
  Ca  Ca4       1.0  0.27083333499999995  0.50168806  0.4750028147659215  1.0000
  Cu  Cu1       1.0  0.06250000499999997  0.25168806  0.46943492136920034  1.0000
  Cu  Cu2       1.0  0.5625000049999999  0.25168806  0.44716334466429486  1.0000
  Cu  Cu3       1.0  0.4791666649999998  0.75168806  0.4805707112806635  1.0000
  Cu  Cu4       1.0  0.9791666649999998  0.75168806  0.4582991314577372  1.0000
  Sb  Sb1       1.0  0.812500005  0.75168806  0.4805707112806635  1.0000
  Sb  Sb2       1.0  0.3125000049999999  0.75168806  0.4582991314577372  1.0000
  Sb  Sb3       1.0  0.7291666649999998  0.25168806  0.46943492136920034  1.0000
  Sb  Sb4       1.0  0.229166665  0.25168806  0.44716334466429486  1.0000
  Ca  Ca5       1.0  0.9765383749999998  0.00889659999999999  0.5272866699577674  1.0000
  Ca  Ca6       1.0  0.5305047249999999  0.9983119399999999  0.5076030068654398  1.0000
  Ca  Ca7       1.0  0.770833335  0.50168806  0.497274391470827  1.0000
  Ca  Ca8       1.0  0.25227465499999996  0.50759823  0.5176067868529995  1.0000
  Cu  Cu5       1.0  0.03821425499999999  0.24904100999999995  0.512102357651663  1.0000
  Cu  Cu6       1.0  0.5625000049999999  0.25168806  0.4917064980741058  1.0000
  Cu  Cu7       1.0  0.5031315249999999  0.7191575900000001  0.5253431421140379  1.0000
  Cu  Cu8       1.0  0.9784705449999999  0.7480005800000001  0.5026612463437977  1.0000
  Sb  Sb5       1.0  0.8136266849999998  0.76079171  0.5257556936822659  1.0000
  Sb  Sb6       1.0  0.3099581849999999  0.76716693  0.504285049216567  1.0000
  Sb  Sb7       1.0  0.695600075  0.28126885  0.5158240802861466  1.0000
  Sb  Sb8       1.0  0.229166665  0.25168806  0.4917064980741058  1.0000
