data_image0
_chemical_formula_structural       COCa12Al8Ge12Ca12Al8Ge12
_chemical_formula_sum              "C1 O1 Ca24 Al16 Ge24"
_cell_length_a       11.56223352
_cell_length_b       15.00116988
_cell_length_c       100.91588332
_cell_angle_alpha    90.0
_cell_angle_beta     90.0
_cell_angle_gamma    90.0

_space_group_name_H-M_alt    "P 1"
_space_group_IT_number       1

loop_
  _space_group_symop_operation_xyz
  'x, y, z'

loop_
  _atom_site_type_symbol
  _atom_site_label
  _atom_site_symmetry_multiplicity
  _atom_site_fract_x
  _atom_site_fract_y
  _atom_site_fract_z
  _atom_site_occupancy
  C   C1        1.0  0.76657023  0.940694515  0.5388675194275886  1.0000
  O   O1        1.0  0.7222147599999998  0.9653341150000001  0.5485773409114305  1.0000
  Ca  Ca1       1.0  0.39447915  0.9066184549999999  0.45142265908856954  1.0000
  Ca  Ca2       1.0  0.60552085  0.03872449499999999  0.473305015593661  1.0000
  Ca  Ca3       1.0  0.89447915  0.5387244950000001  0.45142265908856954  1.0000
  Ca  Ca4       1.0  0.10552085000000001  0.406618455  0.473305015593661  1.0000
  Ca  Ca5       1.0  0.10506527000000002  0.035102394999999995  0.45142265908856954  1.0000
  Ca  Ca6       1.0  0.89493473  0.9102405550000001  0.473305015593661  1.0000
  Ca  Ca7       1.0  0.60506527  0.410240555  0.45142265908856954  1.0000
  Ca  Ca8       1.0  0.39493473  0.535102395  0.473305015593661  1.0000
  Ca  Ca9       1.0  0.87747586  0.17583624499999997  0.473305015593661  1.0000
  Ca  Ca10      1.0  0.12252414000000002  0.769506705  0.45142265908856954  1.0000
  Ca  Ca11      1.0  0.37747586  0.269506705  0.473305015593661  1.0000
  Ca  Ca12      1.0  0.62252414  0.6758362450000001  0.45142265908856954  1.0000
  Al  Al1       1.0  0.35700897  0.7637072949999999  0.473305015593661  1.0000
  Al  Al2       1.0  0.64299103  0.18163565499999998  0.45142265908856954  1.0000
  Al  Al3       1.0  0.85700897  0.6816356550000001  0.473305015593661  1.0000
  Al  Al4       1.0  0.14299103  0.263707295  0.45142265908856954  1.0000
  Al  Al5       1.0  0.18353185  0.560723355  0.45142265908856954  1.0000
  Al  Al6       1.0  0.81646815  0.38461959500000004  0.473305015593661  1.0000
  Al  Al7       1.0  0.68353185  0.8846195950000001  0.45142265908856954  1.0000
  Al  Al8       1.0  0.31646815  0.06072335499999999  0.473305015593661  1.0000
  Ge  Ge1       1.0  0.42875452  0.11162282499999998  0.45142265908856954  1.0000
  Ge  Ge2       1.0  0.57124548  0.833720125  0.473305015593661  1.0000
  Ge  Ge3       1.0  0.9287545199999999  0.33372012500000003  0.45142265908856954  1.0000
  Ge  Ge4       1.0  0.07124548  0.611622825  0.473305015593661  1.0000
  Ge  Ge5       1.0  0.35977891  0.6729311849999999  0.45142265908856954  1.0000
  Ge  Ge6       1.0  0.64022109  0.27241176500000003  0.473305015593661  1.0000
  Ge  Ge7       1.0  0.85977891  0.7724117650000001  0.45142265908856954  1.0000
  Ge  Ge8       1.0  0.14022109000000002  0.172931185  0.473305015593661  1.0000
  Ge  Ge9       1.0  0.80101156  0.03885051499999998  0.45142265908856954  1.0000
  Ge  Ge10      1.0  0.19898843999999996  0.9064924350000001  0.473305015593661  1.0000
  Ge  Ge11      1.0  0.30101156  0.406492435  0.45142265908856954  1.0000
  Ge  Ge12      1.0  0.6989884399999999  0.538850515  0.473305015593661  1.0000
  Ca  Ca13      1.0  0.39779024  0.9114973350000001  0.494400780143146  1.0000
  Ca  Ca14      1.0  0.59314175  0.04917479499999999  0.5179864807573701  1.0000
  Ca  Ca15      1.0  0.8981169  0.5334215350000001  0.4942851226961137  1.0000
  Ca  Ca16      1.0  0.09352464000000003  0.396006335  0.5179486645433958  1.0000
  Ca  Ca17      1.0  0.09381030000000001  0.034665884999999994  0.49531395409366485  1.0000
  Ca  Ca18      1.0  0.8840925699999999  0.889717335  0.5182551768441527  1.0000
  Ca  Ca19      1.0  0.59425454  0.41080657500000006  0.49534373773205237  1.0000
  Ca  Ca20      1.0  0.3850111  0.5593241350000001  0.5178981898235775  1.0000
  Ca  Ca21      1.0  0.8815729  0.181937005  0.515160732791222  1.0000
  Ca  Ca22      1.0  0.12154658000000002  0.766487675  0.49707463829328297  1.0000
  Ca  Ca23      1.0  0.38183991999999994  0.263562535  0.5149719305025786  1.0000
  Ca  Ca24      1.0  0.62261172  0.6792446649999999  0.49695857952382433  1.0000
  Al  Al9       1.0  0.36613226  0.7876136950000001  0.5174302846368366  1.0000
  Al  Al10      1.0  0.64411975  0.18746245499999997  0.49589453591277527  1.0000
  Al  Al11      1.0  0.86940075  0.656623245  0.5171631509503395  1.0000
  Al  Al12      1.0  0.14346732000000004  0.258127835  0.4958771136178246  1.0000
  Al  Al13      1.0  0.18248941  0.563662645  0.49553674012028737  1.0000
  Al  Al14      1.0  0.7895377  0.38576271500000003  0.5161744119695317  1.0000
  Al  Al15      1.0  0.6830592  0.8821250350000001  0.4954848653672718  1.0000
  Al  Al16      1.0  0.2894689  0.06028192499999999  0.5160874996242265  1.0000
  Ge  Ge13      1.0  0.42570165  0.11301277499999998  0.49556725594233836  1.0000
  Ge  Ge14      1.0  0.57627824  0.8494822750000001  0.5178365577276011  1.0000
  Ge  Ge15      1.0  0.92486825  0.332216575  0.4956149397863522  1.0000
  Ge  Ge16      1.0  0.07878182000000002  0.5949044849999999  0.5181849055936554  1.0000
  Ge  Ge17      1.0  0.35974628999999997  0.6808997350000001  0.49570494936045906  1.0000
  Ge  Ge18      1.0  0.63974788  0.261447055  0.5192070523688076  1.0000
  Ge  Ge19      1.0  0.85994232  0.765736355  0.4957627183451407  1.0000
  Ge  Ge20      1.0  0.13986523000000003  0.184506475  0.5192219288703516  1.0000
  Ge  Ge21      1.0  0.7989595699999998  0.035068564999999996  0.4967113128291957  1.0000
  Ge  Ge22      1.0  0.19981667  0.906431715  0.5178676403026968  1.0000
  Ge  Ge23      1.0  0.2991253  0.411478785  0.4967853369039087  1.0000
  Ge  Ge24      1.0  0.70071263  0.540181405  0.5178945380958508  1.0000
