data_image0
_chemical_formula_structural       COCa4Mn4Sb8Ca4Mn4Sb8
_chemical_formula_sum              "C1 O1 Ca8 Mn8 Sb16"
_cell_length_a       11.196491214145762
_cell_length_b       8.60183846
_cell_length_c       101.79152184
_cell_angle_alpha    90.0
_cell_angle_beta     86.42505426075581
_cell_angle_gamma    90.0

_space_group_name_H-M_alt    "P 1"
_space_group_IT_number       1

loop_
  _space_group_symop_operation_xyz
  'x, y, z'

loop_
  _atom_site_type_symbol
  _atom_site_label
  _atom_site_symmetry_multiplicity
  _atom_site_fract_x
  _atom_site_fract_y
  _atom_site_fract_z
  _atom_site_occupancy
  C   C1        1.0  0.893061185  0.08588099499999997  0.5402513236312455  1.0000
  O   O1        1.0  0.946111865  0.163626555  0.5472347037599283  1.0000
  Ca  Ca1       1.0  0.763036675  0.409605205  0.5258707269625813  1.0000
  Ca  Ca2       1.0  0.307035275  0.135727695  0.514755304076469  1.0000
  Ca  Ca3       1.0  0.6813206750000002  0.383314595  0.4765678327619653  1.0000
  Ca  Ca4       1.0  0.198538685  0.13331459499999998  0.47579961628605905  1.0000
  Mn  Mn1       1.0  0.029019434999999993  0.13325264499999998  0.5031547483834994  1.0000
  Mn  Mn2       1.0  0.942034135  0.38014535499999996  0.5053103681061684  1.0000
  Mn  Mn3       1.0  0.9088787949999999  0.13331459499999998  0.46641484250551013  1.0000
  Mn  Mn4       1.0  0.970980565  0.383314595  0.48595260654251426  1.0000
  Sb  Sb1       1.0  0.5347090350000001  0.14407490499999998  0.5325239005898955  1.0000
  Sb  Sb2       1.0  0.526250165  0.390419475  0.5119165531987366  1.0000
  Sb  Sb3       1.0  0.168521225  0.38330339500000005  0.4999472444775898  1.0000
  Sb  Sb4       1.0  0.8398048850000001  0.13331459499999998  0.4918052885514785  1.0000
  Sb  Sb5       1.0  0.47247641500000004  0.13331459499999998  0.485885866894858  1.0000
  Sb  Sb6       1.0  0.40738294500000005  0.383314595  0.4664815821531663  1.0000
  Sb  Sb7       1.0  0.040054475  0.383314595  0.46056216049654586  1.0000
  Sb  Sb8       1.0  0.7148048850000001  0.13331459499999998  0.4527652962400717  1.0000
  Ca  Ca5       1.0  0.766328555  0.914119005  0.5258040372861152  1.0000
  Ca  Ca6       1.0  0.308491245  0.6359262450000001  0.5149417590797483  1.0000
  Ca  Ca7       1.0  0.6813206750000002  0.8833145950000001  0.4765678327619653  1.0000
  Ca  Ca8       1.0  0.198538685  0.633314595  0.47579961628605905  1.0000
  Mn  Mn5       1.0  0.029019434999999993  0.633252645  0.5031547483834994  1.0000
  Mn  Mn6       1.0  0.941047035  0.8785880550000001  0.5051292693898343  1.0000
  Mn  Mn7       1.0  0.9088787949999999  0.633314595  0.46641484250551013  1.0000
  Mn  Mn8       1.0  0.970980565  0.8833145950000001  0.48595260654251426  1.0000
  Sb  Sb9       1.0  0.539009735  0.643939965  0.5324018147259393  1.0000
  Sb  Sb10      1.0  0.5264371150000001  0.892556365  0.5122238666486139  1.0000
  Sb  Sb11      1.0  0.168521225  0.883303395  0.4999472444775898  1.0000
  Sb  Sb12      1.0  0.8398048850000001  0.633314595  0.4918052885514785  1.0000
  Sb  Sb13      1.0  0.47247641500000004  0.633314595  0.485885866894858  1.0000
  Sb  Sb14      1.0  0.40738294500000005  0.8833145950000001  0.4664815821531663  1.0000
  Sb  Sb15      1.0  0.040054475  0.8833145950000001  0.46056216049654586  1.0000
  Sb  Sb16      1.0  0.7148048850000001  0.633314595  0.4527652962400717  1.0000
