data_image0
_chemical_formula_structural       COCa24Cu12
_chemical_formula_sum              "C1 O1 Ca24 Cu12"
_cell_length_a       10.452207136924198
_cell_length_b       17.022562277941127
_cell_length_c       99.83716853
_cell_angle_alpha    106.34720012931425
_cell_angle_beta     88.5054909994502
_cell_angle_gamma    66.31375037619733

_space_group_name_H-M_alt    "P 1"
_space_group_IT_number       1

loop_
  _space_group_symop_operation_xyz
  'x, y, z'

loop_
  _atom_site_type_symbol
  _atom_site_label
  _atom_site_symmetry_multiplicity
  _atom_site_fract_x
  _atom_site_fract_y
  _atom_site_fract_z
  _atom_site_occupancy
  C   C1        1.0  0.45745214  0.058669465000000025  0.5310476064340995  1.0000
  O   O1        1.0  0.48840766999999996  0.06997132500000001  0.5426160982270363  1.0000
  Ca  Ca1       1.0  0.5155833200000001  0.16655675500000003  0.4584273536453438  1.0000
  Ca  Ca2       1.0  0.85581211  0.15928165500000002  0.5079919989803687  1.0000
  Ca  Ca3       1.0  0.18224998999999997  0.16655675500000003  0.4833322156957999  1.0000
  Ca  Ca4       1.0  0.14913119000000005  0.8351454549999999  0.4662180790181812  1.0000
  Ca  Ca5       1.0  0.50181081  0.830866555  0.5149043917030109  1.0000
  Ca  Ca6       1.0  0.81162374  0.8342453650000001  0.49035956427149824  1.0000
  Ca  Ca7       1.0  0.26042534999999994  0.3348687350000001  0.5155204941082938  1.0000
  Ca  Ca8       1.0  0.57247243  0.3343175550000001  0.4911374087999423  1.0000
  Ca  Ca9       1.0  0.90319085  0.33514545500000004  0.4668247106032812  1.0000
  Ca  Ca10      1.0  0.4281903199999999  0.6665567550000001  0.4827255841106998  1.0000
  Ca  Ca11      1.0  0.76152365  0.6665567550000001  0.4578207220602437  1.0000
  Ca  Ca12      1.0  0.09651035999999999  0.6667762349999999  0.5070380073577059  1.0000
  Ca  Ca13      1.0  0.09420596999999993  0.909965055  0.5061194573432947  1.0000
  Ca  Ca14      1.0  0.4329408199999999  0.9088829850000002  0.48228876083483657  1.0000
  Ca  Ca15      1.0  0.76627415  0.9088829850000002  0.4573839017729636  1.0000
  Ca  Ca16      1.0  0.56622092  0.09155772500000002  0.4906523677226177  1.0000
  Ca  Ca17      1.0  0.8984403500000001  0.09281922500000002  0.46726153387914443  1.0000
  Ca  Ca18      1.0  0.24490261999999996  0.09397156500000002  0.5161988128387793  1.0000
  Ca  Ca19      1.0  0.14364998999999998  0.5928192250000001  0.4665457144065778  1.0000
  Ca  Ca20      1.0  0.4824730599999999  0.5825725450000001  0.5143128285544405  1.0000
  Ca  Ca21      1.0  0.8136045900000003  0.587047945  0.49054925861339416  1.0000
  Ca  Ca22      1.0  0.52106451  0.40888298500000003  0.45809972124553033  1.0000
  Ca  Ca23      1.0  0.8749016800000001  0.393827635  0.5058764795514018  1.0000
  Ca  Ca24      1.0  0.18773117999999994  0.40888298500000003  0.48300458030740323  1.0000
  Cu  Cu1       1.0  0.36480641999999996  0.5182485050000001  0.4874734326854483  1.0000
  Cu  Cu2       1.0  0.7010148399999999  0.5173810050000001  0.4638450244085202  1.0000
  Cu  Cu3       1.0  0.03630033999999992  0.5103873550000001  0.5114669621499379  1.0000
  Cu  Cu4       1.0  0.28806419  0.48686922500000007  0.5086777682487891  1.0000
  Cu  Cu5       1.0  0.63323544  0.48001090500000004  0.4849341441120661  1.0000
  Cu  Cu6       1.0  0.9636996599999998  0.48432120500000003  0.46080040825500473  1.0000
  Cu  Cu7       1.0  0.88934931  0.981508185  0.4858117923767068  1.0000
  Cu  Cu8       1.0  0.2230547099999999  0.9843212050000002  0.4621983270158137  1.0000
  Cu  Cu9       1.0  0.54730426  0.986213345  0.511091527361729  1.0000
  Cu  Cu10      1.0  0.7624637400000001  0.013786655000000016  0.5096317000997878  1.0000
  Cu  Cu11      1.0  0.11003241  0.01706645500000002  0.48697660463595543  1.0000
  Cu  Cu12      1.0  0.44165979999999994  0.017381005000000015  0.46244710863629446  1.0000
