data_image0
_chemical_formula_structural       COAs2Ca2Na2
_chemical_formula_sum              "C1 O1 As2 Ca2 Na2"
_cell_length_a       4.98236314
_cell_length_b       4.98236314
_cell_length_c       98.18450208
_cell_angle_alpha    90.0
_cell_angle_beta     90.0
_cell_angle_gamma    90.0

_space_group_name_H-M_alt    "P 1"
_space_group_IT_number       1

loop_
  _space_group_symop_operation_xyz
  'x, y, z'

loop_
  _atom_site_type_symbol
  _atom_site_label
  _atom_site_symmetry_multiplicity
  _atom_site_fract_x
  _atom_site_fract_y
  _atom_site_fract_z
  _atom_site_occupancy
  C   C1        1.0  0.749999265  0.7500010149999999  0.5274595875906851  1.0000
  O   O1        1.0  0.749999415  0.750002105  0.5397674978367236  1.0000
  As  As1       1.0  0.250007525  0.24999038499999998  0.4986308193112392  1.0000
  As  As2       1.0  0.7500000250000001  0.750000975  0.46023250216327644  1.0000
  Ca  Ca1       1.0  0.7500000250000001  0.250000975  0.4781735350420165  1.0000
  Ca  Ca2       1.0  0.249999975  0.7500096150000001  0.5139350944698566  1.0000
  Na  Na1       1.0  0.250000025  0.750000975  0.4781735350420165  1.0000
  Na  Na2       1.0  0.749995355  0.25000079499999994  0.5146456282654209  1.0000
