data_image0
_chemical_formula_structural       COCo6Fe3Se12
_chemical_formula_sum              "C1 O1 Co6 Fe3 Se12"
_cell_length_a       6.354433061677211
_cell_length_b       6.420022011514076
_cell_length_c       101.00590318
_cell_angle_alpha    93.21885714789633
_cell_angle_beta     93.74033616125415
_cell_angle_gamma    111.9672785722026

_space_group_name_H-M_alt    "P 1"
_space_group_IT_number       1

loop_
  _space_group_symop_operation_xyz
  'x, y, z'

loop_
  _atom_site_type_symbol
  _atom_site_label
  _atom_site_symmetry_multiplicity
  _atom_site_fract_x
  _atom_site_fract_y
  _atom_site_fract_z
  _atom_site_occupancy
  C   C1        1.0  0.50506767  0.21900818999999994  0.5399597593825978  1.0000
  O   O1        1.0  0.48035484999999994  0.27722928999999996  0.5507030176776858  1.0000
  Co  Co1       1.0  0.09331046999999992  0.5610013699999999  0.5201840761652794  1.0000
  Co  Co2       1.0  0.5637511199999999  0.11995147999999996  0.5247412662117157  1.0000
  Co  Co3       1.0  0.2693296399999999  0.76215576  0.48980698911352755  1.0000
  Co  Co4       1.0  0.77689012  0.31353271999999993  0.4909377420818193  1.0000
  Co  Co5       1.0  0.46932963999999994  0.96215576  0.4591098692385186  1.0000
  Co  Co6       1.0  0.97689012  0.5135327199999999  0.46024062527652243  1.0000
  Fe  Fe1       1.0  0.8016178999999998  0.86109098  0.5195279313673751  1.0000
  Fe  Fe2       1.0  0.023109879999999923  0.037844239999999967  0.4903723655976734  1.0000
  Fe  Fe3       1.0  0.22310987999999993  0.23784423999999996  0.4596752457226645  1.0000
  Se  Se1       1.0  0.7032821699999999  0.46051680999999994  0.5124930969633152  1.0000
  Se  Se2       1.0  0.95420848  0.22374868999999997  0.5313954409807655  1.0000
  Se  Se3       1.0  0.4761748799999999  0.75087434  0.531626900334335  1.0000
  Se  Se4       1.0  0.18036380999999987  0.93072734  0.5120206774975747  1.0000
  Se  Se5       1.0  0.88604531  0.6489777999999999  0.4802820104846309  1.0000
  Se  Se6       1.0  0.16017444999999994  0.42671067999999995  0.500462720710716  1.0000
  Se  Se7       1.0  0.6559681900000001  0.9459233499999999  0.5007506289980237  1.0000
  Se  Se8       1.0  0.39025156999999994  0.12976512999999995  0.4799941021973231  1.0000
  Se  Se9       1.0  0.08604530999999992  0.8489778  0.449584890609622  1.0000
  Se  Se10      1.0  0.3601744499999999  0.62671068  0.46976560083570706  1.0000
  Se  Se11      1.0  0.85596819  0.14592334999999998  0.4700535091230148  1.0000
  Se  Se12      1.0  0.59025157  0.32976512999999996  0.4492969823223143  1.0000
