data_image0
_chemical_formula_structural       COSb8V10Sb8V10
_chemical_formula_sum              "C1 O1 Sb16 V20"
_cell_length_a       6.92069404
_cell_length_b       7.236580536842657
_cell_length_c       27.83976387
_cell_angle_alpha    90.0
_cell_angle_beta     90.0
_cell_angle_gamma    103.83267025470407

_space_group_name_H-M_alt    "P 1"
_space_group_IT_number       1

loop_
  _space_group_symop_operation_xyz
  'x, y, z'

loop_
  _atom_site_type_symbol
  _atom_site_label
  _atom_site_symmetry_multiplicity
  _atom_site_fract_x
  _atom_site_fract_y
  _atom_site_fract_z
  _atom_site_occupancy
  C   C1        1.0  0.05907474500000002  0.24409041500000003  0.7757096191066642  1.0000
  O   O1        1.0  0.08417330500000003  0.3702561750000001  0.802083917531806  1.0000
  Sb  Sb1       1.0  0.08238055500000004  0.32629939500000005  0.6609797096975675  1.0000
  Sb  Sb2       1.0  0.34673296500000006  0.38693186500000004  0.4101160750655425  1.0000
  Sb  Sb3       1.0  0.20171517500000005  0.8068607150000001  0.37830277231623444  1.0000
  Sb  Sb4       1.0  0.44372070500000005  0.768897335  0.6328356658329064  1.0000
  Sb  Sb5       1.0  0.31633522500000005  0.26566190500000003  0.5555617942686029  1.0000
  Sb  Sb6       1.0  0.06522195500000001  0.260887815  0.3041267806131733  1.0000
  Sb  Sb7       1.0  0.42020416499999996  0.680816665  0.2723134930077567  1.0000
  Sb  Sb8       1.0  0.170204165  0.680816665  0.5247116884454965  1.0000
  V   V1        1.0  0.25846856500000004  0.03387426500000002  0.4674138817555194  1.0000
  V   V2        1.0  0.008468565000000013  0.03387426500000002  0.21501568631777965  1.0000
  V   V3        1.0  0.184445325  0.737781305  0.19791608246819414  1.0000
  V   V4        1.0  0.43444532500000005  0.737781305  0.45031427790593387  1.0000
  V   V5        1.0  0.24153143500000002  0.9661257350000001  0.28974901865689573  1.0000
  V   V6        1.0  0.491531435  0.9661257350000001  0.5421471989507441  1.0000
  V   V7        1.0  0.26883435499999997  0.06207694500000002  0.6335630269379715  1.0000
  V   V8        1.0  0.02540569500000002  0.10162279500000003  0.39268054941640335  1.0000
  V   V9        1.0  0.33249180500000003  0.32996722500000003  0.2321152901673653  1.0000
  V   V10       1.0  0.08249180500000002  0.32996722500000003  0.484513485605105  1.0000
  Sb  Sb9       1.0  0.581122575  0.32789511500000007  0.6648932244069821  1.0000
  Sb  Sb10      1.0  0.8467329650000002  0.38693186500000004  0.4101160750655425  1.0000
  Sb  Sb11      1.0  0.7017151749999999  0.8068607150000001  0.37830277231623444  1.0000
  Sb  Sb12      1.0  0.943374535  0.7717439550000001  0.6336108513470866  1.0000
  Sb  Sb13      1.0  0.816335225  0.26566190500000003  0.5555617942686029  1.0000
  Sb  Sb14      1.0  0.565221955  0.260887815  0.3041267806131733  1.0000
  Sb  Sb15      1.0  0.9202041649999999  0.680816665  0.2723134930077567  1.0000
  Sb  Sb16      1.0  0.6702041649999999  0.680816665  0.5247116884454965  1.0000
  V   V11       1.0  0.758468565  0.03387426500000002  0.4674138817555194  1.0000
  V   V12       1.0  0.508468565  0.03387426500000002  0.21501568631777965  1.0000
  V   V13       1.0  0.684445325  0.737781305  0.19791608246819414  1.0000
  V   V14       1.0  0.934445325  0.737781305  0.45031427790593387  1.0000
  V   V15       1.0  0.7415314350000001  0.9661257350000001  0.28974901865689573  1.0000
  V   V16       1.0  0.9915314350000001  0.9661257350000001  0.5421471989507441  1.0000
  V   V17       1.0  0.7642952350000001  0.06386167500000002  0.6336070199425565  1.0000
  V   V18       1.0  0.525405695  0.10162279500000003  0.39268054941640335  1.0000
  V   V19       1.0  0.832491805  0.32996722500000003  0.2321152901673653  1.0000
  V   V20       1.0  0.5824918050000002  0.32996722500000003  0.484513485605105  1.0000
