data_image0
_chemical_formula_structural       COCa3Al3Si3Ca3Al3Si3
_chemical_formula_sum              "C1 O1 Ca6 Al6 Si6"
_cell_length_a       7.34580039
_cell_length_b       6.1243304106846175
_cell_length_c       106.74598244
_cell_angle_alpha    73.70008549004648
_cell_angle_beta     90.0
_cell_angle_gamma    53.14995722948181

_space_group_name_H-M_alt    "P 1"
_space_group_IT_number       1

loop_
  _space_group_symop_operation_xyz
  'x, y, z'

loop_
  _atom_site_type_symbol
  _atom_site_label
  _atom_site_symmetry_multiplicity
  _atom_site_fract_x
  _atom_site_fract_y
  _atom_site_fract_z
  _atom_site_occupancy
  C   C1        1.0  0.5179112899999999  0.9146738099999999  0.5494903775757753  1.0000
  O   O1        1.0  0.5323651500000001  0.91688698  0.5606481995943673  1.0000
  Ca  Ca1       1.0  0.7354823000000001  0.7587716  0.4489139571516807  1.0000
  Ca  Ca2       1.0  0.06881563000000002  0.09210492999999997  0.48716258069349716  1.0000
  Ca  Ca3       1.0  0.40214896000000006  0.42543825999999996  0.46803827064377695  1.0000
  Al  Al1       1.0  0.56881563  0.7587716  0.477600423947449  1.0000
  Al  Al2       1.0  0.90214896  0.09210492999999997  0.4584761138977289  1.0000
  Al  Al3       1.0  0.2354823  0.42543825999999996  0.43935180040563254  1.0000
  Si  Si1       1.0  0.90214896  0.7587716  0.477600423947449  1.0000
  Si  Si2       1.0  0.2354823  0.09210492999999997  0.4584761138977289  1.0000
  Si  Si3       1.0  0.5688156299999999  0.42543825999999996  0.43935180040563254  1.0000
  Ca  Ca4       1.0  0.7354823000000001  0.7587716  0.5062868941855935  1.0000
  Ca  Ca5       1.0  0.07180941000000005  0.10945494999999997  0.5427158845775873  1.0000
  Ca  Ca6       1.0  0.40199273999999996  0.41507964999999997  0.5259368137653915  1.0000
  Al  Al4       1.0  0.5860328300000001  0.7351711799999999  0.5351995113251216  1.0000
  Al  Al5       1.0  0.8999952600000001  0.08311301999999997  0.516024653423968  1.0000
  Al  Al6       1.0  0.2354823  0.42543825999999996  0.49672473743954526  1.0000
  Si  Si4       1.0  0.9311843700000001  0.7339643799999999  0.5360177813486149  1.0000
  Si  Si5       1.0  0.23483784000000008  0.09073278999999997  0.515958745690139  1.0000
  Si  Si6       1.0  0.5688156299999999  0.42543825999999996  0.49672473743954526  1.0000
