data_image0
_chemical_formula_structural       COCa4Si8Ca4Si8
_chemical_formula_sum              "C1 O1 Ca8 Si16"
_cell_length_a       7.16542482
_cell_length_b       9.536756969263172
_cell_length_c       98.95871966
_cell_angle_alpha    102.52675782289282
_cell_angle_beta     90.0
_cell_angle_gamma    67.93401871967023

_space_group_name_H-M_alt    "P 1"
_space_group_IT_number       1

loop_
  _space_group_symop_operation_xyz
  'x, y, z'

loop_
  _atom_site_type_symbol
  _atom_site_label
  _atom_site_symmetry_multiplicity
  _atom_site_fract_x
  _atom_site_fract_y
  _atom_site_fract_z
  _atom_site_occupancy
  C   C1        1.0  0.5951593749999999  0.22278311999999997  0.536925015156235  1.0000
  O   O1        1.0  0.6613603349999999  0.26107592999999996  0.5474392060599049  1.0000
  Ca  Ca1       1.0  0.771611915  0.62427738  0.45778640632641215  1.0000
  Ca  Ca2       1.0  0.021611914999999877  0.12427738  0.4891400864970012  1.0000
  Ca  Ca3       1.0  0.5216119149999999  0.12427738  0.4682376340253896  1.0000
  Ca  Ca4       1.0  0.27161191499999987  0.62427738  0.47868885879802375  1.0000
  Si  Si1       1.0  0.47994524499999996  0.87427738  0.4839144741106841  1.0000
  Si  Si2       1.0  0.7299452449999997  0.37427738000000005  0.4734632464117067  1.0000
  Si  Si3       1.0  0.22994524499999988  0.37427738000000005  0.4525607939400951  1.0000
  Si  Si4       1.0  0.9799452450000001  0.87427738  0.4630120187127291  1.0000
  Si  Si5       1.0  0.8132785850000003  0.87427738  0.4839144741106841  1.0000
  Si  Si6       1.0  0.06327858499999983  0.37427738000000005  0.4734632464117067  1.0000
  Si  Si7       1.0  0.5632785849999998  0.37427738000000005  0.4525607939400951  1.0000
  Si  Si8       1.0  0.31327858500000005  0.87427738  0.4630120187127291  1.0000
  Ca  Ca5       1.0  0.7701947949999999  0.6260962  0.5005304626584584  1.0000
  Ca  Ca6       1.0  0.02005475499999988  0.1220928  0.5295574569359256  1.0000
  Ca  Ca7       1.0  0.5185742049999998  0.13323985000000002  0.5119810805252416  1.0000
  Ca  Ca8       1.0  0.26932487499999996  0.62948753  0.5207939977955237  1.0000
  Si  Si9       1.0  0.47149407499999996  0.8779072  0.5266203006924933  1.0000
  Si  Si10      1.0  0.726345705  0.3778923  0.5152876700654382  1.0000
  Si  Si11      1.0  0.22994524499999988  0.37427738000000005  0.49436569888331827  1.0000
  Si  Si12      1.0  0.9766327850000001  0.8713047100000001  0.505105496231762  1.0000
  Si  Si13      1.0  0.8159982349999998  0.87434782  0.5263436705241176  1.0000
  Si  Si14      1.0  0.06563050499999991  0.37436972  0.5154487535644852  1.0000
  Si  Si15      1.0  0.5632785849999998  0.37427738000000005  0.49436569888331827  1.0000
  Si  Si16      1.0  0.31741431499999995  0.87505684  0.5052609933412499  1.0000
