data_image0
_chemical_formula_structural       COCa16Si16Ca16Si16
_chemical_formula_sum              "C1 O1 Ca32 Si32"
_cell_length_a       22.096529230706032
_cell_length_b       6.057689825510122
_cell_length_c       106.34613894
_cell_angle_alpha    98.90001825702271
_cell_angle_beta     99.1070779349604
_cell_angle_gamma    80.89292208524263

_space_group_name_H-M_alt    "P 1"
_space_group_IT_number       1

loop_
  _space_group_symop_operation_xyz
  'x, y, z'

loop_
  _atom_site_type_symbol
  _atom_site_label
  _atom_site_symmetry_multiplicity
  _atom_site_fract_x
  _atom_site_fract_y
  _atom_site_fract_z
  _atom_site_occupancy
  C   C1        1.0  0.804207045  0.031275250000000004  0.5613533616654992  1.0000
  O   O1        1.0  0.804842965  0.15825044  0.570795440255849  1.0000
  Ca  Ca1       1.0  0.6795148249999999  0.53465833  0.46480581709561153  1.0000
  Ca  Ca2       1.0  0.179514825  0.78465833  0.4505653134714832  1.0000
  Ca  Ca3       1.0  0.179514825  0.28465833  0.47904632071973996  1.0000
  Ca  Ca4       1.0  0.6795148249999999  0.03465833000000001  0.4363248132650754  1.0000
  Ca  Ca5       1.0  0.5681481249999999  0.09034167  0.4616339809898239  1.0000
  Ca  Ca6       1.0  0.06814812499999998  0.34034167  0.4473934773656955  1.0000
  Ca  Ca7       1.0  0.06814812499999996  0.84034167  0.47587448461395226  1.0000
  Ca  Ca8       1.0  0.5681481249999999  0.59034167  0.43315297715928774  1.0000
  Ca  Ca9       1.0  0.9295148249999998  0.65965833  0.45768556699240776  1.0000
  Ca  Ca10      1.0  0.429514825  0.90965833  0.44344506336827927  1.0000
  Ca  Ca11      1.0  0.429514825  0.40965833  0.47192606719881547  1.0000
  Ca  Ca12      1.0  0.9295148249999998  0.15965833  0.429204559744151  1.0000
  Ca  Ca13      1.0  0.8181481249999999  0.71534167  0.48299473471715615  1.0000
  Ca  Ca14      1.0  0.31814812499999995  0.96534167  0.4687542310930278  1.0000
  Ca  Ca15      1.0  0.31814812499999995  0.46534167  0.4402732272624917  1.0000
  Ca  Ca16      1.0  0.8181481249999999  0.21534167  0.45451373088661995  1.0000
  Si  Si1       1.0  0.5333533549999999  0.60773906  0.4606429923965819  1.0000
  Si  Si2       1.0  0.03335335499999998  0.85773906  0.44640248877245353  1.0000
  Si  Si3       1.0  0.03335335499999999  0.35773906  0.4748834926029897  1.0000
  Si  Si4       1.0  0.5333533549999999  0.10773906  0.43216198514832516  1.0000
  Si  Si5       1.0  0.7143095949999999  0.017260940000000006  0.4657968056888535  1.0000
  Si  Si6       1.0  0.214309595  0.26726094  0.4515563054824458  1.0000
  Si  Si7       1.0  0.214309595  0.76726094  0.48003730931298194  1.0000
  Si  Si8       1.0  0.7143095949999999  0.51726094  0.43731580185831737  1.0000
  Si  Si9       1.0  0.7833533549999999  0.73273906  0.45352273887565747  1.0000
  Si  Si10      1.0  0.283353355  0.98273906  0.4392822386692496  1.0000
  Si  Si11      1.0  0.283353355  0.48273906  0.46776324249978585  1.0000
  Si  Si12      1.0  0.7833533549999999  0.23273905999999997  0.4820037461239141  1.0000
  Si  Si13      1.0  0.9643095949999999  0.64226094  0.4301955517551135  1.0000
  Si  Si14      1.0  0.4643095949999999  0.89226094  0.47291705920977806  1.0000
  Si  Si15      1.0  0.4643095949999999  0.39226094  0.4444360519615213  1.0000
  Si  Si16      1.0  0.9643095949999999  0.14226094  0.4586765555856496  1.0000
  Ca  Ca17      1.0  0.6764468849999999  0.53924332  0.5218966728231672  1.0000
  Ca  Ca18      1.0  0.179514825  0.78465833  0.5075273245502762  1.0000
  Ca  Ca19      1.0  0.17745699500000003  0.30884362  0.5362367790786357  1.0000
  Ca  Ca20      1.0  0.6795148249999999  0.03465833000000001  0.4932868209261477  1.0000
  Ca  Ca21      1.0  0.566975555  0.09492539  0.5193508674344584  1.0000
  Ca  Ca22      1.0  0.06814812499999998  0.34034167  0.5043554884444884  1.0000
  Ca  Ca23      1.0  0.06868042499999999  0.86472306  0.5332280947009571  1.0000
  Ca  Ca24      1.0  0.5681481249999999  0.59034167  0.49011498482036003  1.0000
  Ca  Ca25      1.0  0.931435935  0.66759882  0.5148693949733464  1.0000
  Ca  Ca26      1.0  0.429514825  0.90965833  0.5004070744470722  1.0000
  Ca  Ca27      1.0  0.4289764149999999  0.43070646  0.5293788219426003  1.0000
  Ca  Ca28      1.0  0.9295148249999998  0.15965833  0.4861665708229439  1.0000
  Ca  Ca29      1.0  0.806411895  0.75408297  0.5408396387221691  1.0000
  Ca  Ca30      1.0  0.31842092499999997  0.97202224  0.5264326579277911  1.0000
  Ca  Ca31      1.0  0.31814812499999995  0.46534167  0.4972352383412845  1.0000
  Ca  Ca32      1.0  0.8181481249999999  0.21534167  0.5114757385476922  1.0000
  Si  Si17      1.0  0.5291797749999999  0.61586995  0.5177296853404512  1.0000
  Si  Si18      1.0  0.03335335499999998  0.85773906  0.5033644998512464  1.0000
  Si  Si19      1.0  0.032164044999999974  0.37994581  0.5310990051491228  1.0000
  Si  Si20      1.0  0.5333533549999999  0.10773906  0.4891239962271181  1.0000
  Si  Si21      1.0  0.7141074749999998  0.023111660000000003  0.5224396734360778  1.0000
  Si  Si22      1.0  0.214309595  0.26726094  0.508518313143518  1.0000
  Si  Si23      1.0  0.21222789499999997  0.78820998  0.5361349685997903  1.0000
  Si  Si24      1.0  0.7143095949999999  0.51726094  0.49427781293711026  1.0000
  Si  Si25      1.0  0.7833533549999999  0.73273906  0.5104847499544504  1.0000
  Si  Si26      1.0  0.283353355  0.98273906  0.49624424633032194  1.0000
  Si  Si27      1.0  0.27930488499999995  0.49452922999999993  0.5248609746811812  1.0000
  Si  Si28      1.0  0.7773670249999999  0.25204819  0.5378832454696149  1.0000
  Si  Si29      1.0  0.9643095949999999  0.64226094  0.4871575594161858  1.0000
  Si  Si30      1.0  0.46192692499999993  0.91053641  0.5290588788644122  1.0000
  Si  Si31      1.0  0.4643095949999999  0.39226094  0.5013980630403142  1.0000
  Si  Si32      1.0  0.9678359549999999  0.15108904  0.5156046731292884  1.0000
