data_image0
_chemical_formula_structural       COCa32Cu16
_chemical_formula_sum              "C1 O1 Ca32 Cu16"
_cell_length_a       12.998329191714015
_cell_length_b       16.001958452870124
_cell_length_c       102.04181765999999
_cell_angle_alpha    81.52744460387183
_cell_angle_beta     86.42049025385651
_cell_angle_gamma    68.70358053472026

_space_group_name_H-M_alt    "P 1"
_space_group_IT_number       1

loop_
  _space_group_symop_operation_xyz
  'x, y, z'

loop_
  _atom_site_type_symbol
  _atom_site_label
  _atom_site_symmetry_multiplicity
  _atom_site_fract_x
  _atom_site_fract_y
  _atom_site_fract_z
  _atom_site_occupancy
  C   C1        1.0  0.63308775  0.5767389650000001  0.5350535448803818  1.0000
  O   O1        1.0  0.60783512  0.6109137550000001  0.5449504121901253  1.0000
  Ca  Ca1       1.0  0.09330562999999992  0.16426410500000002  0.49430042927219847  1.0000
  Ca  Ca2       1.0  0.5302144699999999  0.167460085  0.5126788507701022  1.0000
  Ca  Ca3       1.0  0.85621437  0.834091675  0.505852086937455  1.0000
  Ca  Ca4       1.0  0.2816944599999999  0.8402499550000001  0.5250219498423357  1.0000
  Ca  Ca5       1.0  0.23807252999999998  0.33319555500000003  0.4992104865943556  1.0000
  Ca  Ca6       1.0  0.6763733300000001  0.339042405  0.5197239717439054  1.0000
  Ca  Ca7       1.0  0.70800894  0.6642641050000001  0.4994458032390905  1.0000
  Ca  Ca8       1.0  0.14534555999999987  0.6608745650000001  0.5181787791579573  1.0000
  Ca  Ca9       1.0  0.53716774  0.9102290350000001  0.513889334160531  1.0000
  Ca  Ca10      1.0  0.1024707299999999  0.9065903350000001  0.4947115582860113  1.0000
  Ca  Ca11      1.0  0.2627048399999999  0.10345838500000003  0.5240365841579963  1.0000
  Ca  Ca12      1.0  0.8461704500000001  0.08839023500000001  0.5061782834104781  1.0000
  Ca  Ca13      1.0  0.88766107  0.584624875  0.5292025067254108  1.0000
  Ca  Ca14      1.0  0.46371553000000004  0.589611605  0.511440606044524  1.0000
  Ca  Ca15      1.0  0.92520526  0.405689925  0.5088101371123444  1.0000
  Ca  Ca16      1.0  0.33993834999999994  0.398207545  0.5274578759038915  1.0000
  Ca  Ca17      1.0  0.21830562999999995  0.16426410500000002  0.4550495878098748  1.0000
  Ca  Ca18      1.0  0.6558056300000001  0.16426410500000002  0.47467500854103656  1.0000
  Ca  Ca19      1.0  0.9780013799999999  0.8328528049999999  0.46669904601178613  1.0000
  Ca  Ca20      1.0  0.41550138000000014  0.8328528049999999  0.4863244667429479  1.0000
  Ca  Ca21      1.0  0.36329807000000003  0.33285280500000003  0.46155367518496127  1.0000
  Ca  Ca22      1.0  0.8007980700000001  0.33285280500000003  0.48117909591612307  1.0000
  Ca  Ca23      1.0  0.83300894  0.6642641050000001  0.46019496177676683  1.0000
  Ca  Ca24      1.0  0.2705089399999999  0.6642641050000001  0.47982038250792874  1.0000
  Ca  Ca25      1.0  0.66497073  0.9065903350000001  0.4750861375548496  1.0000
  Ca  Ca26      1.0  0.22747072999999998  0.9065903350000001  0.45546071682368766  1.0000
  Ca  Ca27      1.0  0.4063362799999998  0.09052657500000003  0.485913337729135  1.0000
  Ca  Ca28      1.0  0.96883628  0.09052657500000003  0.4662879169979731  1.0000
  Ca  Ca29      1.0  0.02199861999999989  0.590526575  0.4911017337583371  1.0000
  Ca  Ca30      1.0  0.5844986199999999  0.590526575  0.47147631302717524  1.0000
  Ca  Ca31      1.0  0.04930837999999993  0.406590335  0.46989774466571466  1.0000
  Ca  Ca32      1.0  0.48680838  0.406590335  0.48952316539687657  1.0000
  Cu  Cu1       1.0  0.70550156  0.5173107250000001  0.5208662340318054  1.0000
  Cu  Cu2       1.0  0.2636702999999999  0.5143214450000001  0.5020391502954488  1.0000
  Cu  Cu3       1.0  0.10845366999999986  0.4850270950000001  0.5167072808118712  1.0000
  Cu  Cu4       1.0  0.68183708  0.482028555  0.4982717823103465  1.0000
  Cu  Cu5       1.0  0.70704052  0.9849116450000001  0.5213952348925633  1.0000
  Cu  Cu6       1.0  0.28091773  0.983029095  0.5032529778575701  1.0000
  Cu  Cu7       1.0  0.10044674999999995  0.017145295000000012  0.5162023642674345  1.0000
  Cu  Cu8       1.0  0.66737342  0.015088355000000008  0.4976229690410417  1.0000
  Cu  Cu9       1.0  0.8269699200000001  0.515088355  0.4823531137047998  1.0000
  Cu  Cu10      1.0  0.3894699199999999  0.515088355  0.4627276929736379  1.0000
  Cu  Cu11      1.0  0.24433707999999987  0.482028555  0.4786463615791847  1.0000
  Cu  Cu12      1.0  0.80683708  0.482028555  0.459020940848023  1.0000
  Cu  Cu13      1.0  0.84143359  0.9820285550000001  0.4830019269741047  1.0000
  Cu  Cu14      1.0  0.40393358999999984  0.9820285550000001  0.4633765062429428  1.0000
  Cu  Cu15      1.0  0.2298734199999999  0.015088355000000008  0.47799754830987984  1.0000
  Cu  Cu16      1.0  0.7923734200000001  0.015088355000000008  0.45837212757871804  1.0000
