data_image0
_chemical_formula_structural       COCa2Cu4Si4Ca2Cu4Si4Ca2Cu4Si4Ca2Cu4Si4
_chemical_formula_sum              "C1 O1 Ca8 Cu16 Si16"
_cell_length_a       8.18826152
_cell_length_b       10.06751708
_cell_length_c       98.65891529
_cell_angle_alpha    90.0
_cell_angle_beta     90.0
_cell_angle_gamma    90.0

_space_group_name_H-M_alt    "P 1"
_space_group_IT_number       1

loop_
  _space_group_symop_operation_xyz
  'x, y, z'

loop_
  _atom_site_type_symbol
  _atom_site_label
  _atom_site_symmetry_multiplicity
  _atom_site_fract_x
  _atom_site_fract_y
  _atom_site_fract_z
  _atom_site_occupancy
  C   C1        1.0  0.57140471  0.67421548  0.5345979568279324  1.0000
  O   O1        1.0  0.53779627  0.6760105  0.5462286951698078  1.0000
  Ca  Ca1       1.0  0.12328584000000001  0.060143920000000003  0.4745202187108958  1.0000
  Ca  Ca2       1.0  0.37328584000000004  0.5601439199999999  0.45377130483019223  1.0000
  Cu  Cu1       1.0  0.37328584000000004  0.31014392  0.4745202187108958  1.0000
  Cu  Cu2       1.0  0.12328584000000001  0.31014392  0.45377130483019223  1.0000
  Cu  Cu3       1.0  0.12328584000000001  0.81014392  0.45377130483019223  1.0000
  Cu  Cu4       1.0  0.37328584000000004  0.81014392  0.4745202187108958  1.0000
  Si  Si1       1.0  0.37328584000000004  0.17898807  0.45377130483019223  1.0000
  Si  Si2       1.0  0.12328584000000001  0.44129977  0.4745202187108958  1.0000
  Si  Si3       1.0  0.12328584000000001  0.67898807  0.4745202187108958  1.0000
  Si  Si4       1.0  0.37328584000000004  0.9412997699999999  0.45377130483019223  1.0000
  Ca  Ca3       1.0  0.12237685000000001  0.057187810000000006  0.5150758299745702  1.0000
  Ca  Ca4       1.0  0.37253686  0.55750487  0.4949905750973535  1.0000
  Cu  Cu5       1.0  0.36660798  0.32371141999999997  0.5141120885531473  1.0000
  Cu  Cu6       1.0  0.12266684  0.31016287  0.49572092360125636  1.0000
  Cu  Cu7       1.0  0.12188943  0.80906415  0.4953644348448291  1.0000
  Cu  Cu8       1.0  0.37247964  0.79008633  0.5137164453505092  1.0000
  Si  Si5       1.0  0.37220377  0.17798233000000002  0.49531103792886744  1.0000
  Si  Si6       1.0  0.12250255000000002  0.44711181  0.5170475158894533  1.0000
  Si  Si7       1.0  0.12181005  0.67923453  0.5174569513104021  1.0000
  Si  Si8       1.0  0.37238273  0.94262319  0.4954722657074889  1.0000
  Ca  Ca5       1.0  0.62328584  0.060143920000000003  0.4745202187108958  1.0000
  Ca  Ca6       1.0  0.8732858400000001  0.5601439199999999  0.45377130483019223  1.0000
  Cu  Cu9       1.0  0.8732858400000001  0.31014392  0.4745202187108958  1.0000
  Cu  Cu10      1.0  0.62328584  0.31014392  0.45377130483019223  1.0000
  Cu  Cu11      1.0  0.62328584  0.81014392  0.45377130483019223  1.0000
  Cu  Cu12      1.0  0.8732858400000001  0.81014392  0.4745202187108958  1.0000
  Si  Si9       1.0  0.8732858400000001  0.17898807  0.45377130483019223  1.0000
  Si  Si10      1.0  0.62328584  0.44129977  0.4745202187108958  1.0000
  Si  Si11      1.0  0.62328584  0.67898807  0.4745202187108958  1.0000
  Si  Si12      1.0  0.8732858400000001  0.9412997699999999  0.45377130483019223  1.0000
  Ca  Ca7       1.0  0.62273917  0.0723101  0.5150834290569419  1.0000
  Ca  Ca8       1.0  0.8744656800000001  0.55744078  0.4949500321337981  1.0000
  Cu  Cu13      1.0  0.87818995  0.32384264  0.5141842362629578  1.0000
  Cu  Cu14      1.0  0.6227167100000001  0.31174681000000004  0.4951843226493506  1.0000
  Cu  Cu15      1.0  0.62192858  0.8131582900000001  0.49603169585983764  1.0000
  Cu  Cu16      1.0  0.87319923  0.79215309  0.5139320896467409  1.0000
  Si  Si13      1.0  0.87324432  0.1785636  0.4953341082316946  1.0000
  Si  Si14      1.0  0.6220066099999999  0.42100864  0.5177142104591017  1.0000
  Si  Si15      1.0  0.62698181  0.66432133  0.5168554008620332  1.0000
  Si  Si16      1.0  0.87225305  0.9428121899999999  0.4955134186891247  1.0000
