data_image0
_chemical_formula_structural       CONa20Se10
_chemical_formula_sum              "C1 O1 Na20 Se10"
_cell_length_a       4.90218225
_cell_length_b       14.70654674955374
_cell_length_c       105.00858369
_cell_angle_alpha    98.04946696835664
_cell_angle_beta     90.0
_cell_angle_gamma    90.0

_space_group_name_H-M_alt    "P 1"
_space_group_IT_number       1

loop_
  _space_group_symop_operation_xyz
  'x, y, z'

loop_
  _atom_site_type_symbol
  _atom_site_label
  _atom_site_symmetry_multiplicity
  _atom_site_fract_x
  _atom_site_fract_y
  _atom_site_fract_z
  _atom_site_occupancy
  C   C1        1.0  0.9386597850000001  0.8643065800000002  0.5556332154035809  1.0000
  O   O1        1.0  0.8734142149999999  0.8925123400000001  0.5659908417817734  1.0000
  Na  Na1       1.0  0.06476605499999998  0.14166666000000003  0.4951302589981296  1.0000
  Na  Na2       1.0  0.06476605499999998  0.6750000000000002  0.472904405987553  1.0000
  Na  Na3       1.0  0.06485645499999998  0.6044681200000002  0.5145362144050482  1.0000
  Na  Na4       1.0  0.06476605499999998  0.20833333  0.45067854964309806  1.0000
  Na  Na5       1.0  0.06253017499999998  0.07934754999999999  0.5385670957966756  1.0000
  Na  Na6       1.0  0.06476605499999998  0.9083333300000002  0.48401733249284135  1.0000
  Na  Na7       1.0  0.06476605499999998  0.44166666  0.46179147614838634  1.0000
  Na  Na8       1.0  0.06476605499999998  0.37499999999999994  0.5062431888372962  1.0000
  Na  Na9       1.0  0.06476605499999998  0.9750000000000001  0.4395656231378098  1.0000
  Na  Na10      1.0  0.061340214999999976  0.85922092  0.5294631110038602  1.0000
  Na  Na11      1.0  0.564766055  0.9416666600000001  0.4617914761483864  1.0000
  Na  Na12      1.0  0.564766055  0.47500000000000003  0.4395656231378098  1.0000
  Na  Na13      1.0  0.564766055  0.40833333  0.48401733249284135  1.0000
  Na  Na14      1.0  0.562951105  0.3303359900000001  0.5278247598676667  1.0000
  Na  Na15      1.0  0.564766055  0.875  0.5062431888372962  1.0000
  Na  Na16      1.0  0.564766055  0.175  0.472904405987553  1.0000
  Na  Na17      1.0  0.564766055  0.70833333  0.4506785496430981  1.0000
  Na  Na18      1.0  0.564766055  0.64166666  0.4951302589981296  1.0000
  Na  Na19      1.0  0.565857785  0.60296344  0.5394867294521944  1.0000
  Na  Na20      1.0  0.5625186950000001  0.10628046999999999  0.5165886665630184  1.0000
  Se  Se1       1.0  0.06276693499999998  0.22956789  0.5231312193339748  1.0000
  Se  Se2       1.0  0.06476605499999998  0.7583333300000001  0.5006867239177129  1.0000
  Se  Se3       1.0  0.06476605499999998  0.35833333  0.4340091582182265  1.0000
  Se  Se4       1.0  0.06476605499999998  0.29166665999999997  0.478460867573258  1.0000
  Se  Se5       1.0  0.06476605499999998  0.825  0.4562350145626813  1.0000
  Se  Se6       1.0  0.564766055  0.02499999999999999  0.4895737974124247  1.0000
  Se  Se7       1.0  0.564766055  0.55833333  0.4673479410679697  1.0000
  Se  Se8       1.0  0.564639385  0.4977160500000001  0.5139658411725416  1.0000
  Se  Se9       1.0  0.564766055  0.09166666  0.4451220847235148  1.0000
  Se  Se10      1.0  0.5620168249999999  0.9670175200000001  0.5335987570114663  1.0000
