data_image0
_chemical_formula_structural       COSb4Pd4Sb4Pd4
_chemical_formula_sum              "C1 O1 Sb8 Pd8"
_cell_length_a       5.72568644
_cell_length_b       7.23284663
_cell_length_c       99.23120162000001
_cell_angle_alpha    90.0
_cell_angle_beta     90.0
_cell_angle_gamma    90.0

_space_group_name_H-M_alt    "P 1"
_space_group_IT_number       1

loop_
  _space_group_symop_operation_xyz
  'x, y, z'

loop_
  _atom_site_type_symbol
  _atom_site_label
  _atom_site_symmetry_multiplicity
  _atom_site_fract_x
  _atom_site_fract_y
  _atom_site_fract_z
  _atom_site_occupancy
  C   C1        1.0  0.11390367000000003  5.000000004014267e-08  0.5365062592263621  1.0000
  O   O1        1.0  0.11390372000000003  9.000000004014266e-08  0.5482140694558411  1.0000
  Sb  Sb1       1.0  0.8639036600000001  0.33333337999999996  0.4728271242111867  1.0000
  Sb  Sb2       1.0  0.8639036600000001  0.83333338  0.4517859305441591  1.0000
  Sb  Sb3       1.0  0.3639036600000001  0.66666672  0.4728271242111867  1.0000
  Sb  Sb4       1.0  0.3639036600000001  0.16666672000000002  0.4517859305441591  1.0000
  Pd  Pd1       1.0  0.11390366000000003  0.50000005  0.4517859305441591  1.0000
  Pd  Pd2       1.0  0.11390366000000003  5.000000004014267e-08  0.4728271242111867  1.0000
  Pd  Pd3       1.0  0.6139036600000001  0.50000005  0.4517859305441591  1.0000
  Pd  Pd4       1.0  0.6139036600000001  5.000000004014267e-08  0.4728271242111867  1.0000
  Sb  Sb5       1.0  0.8379010700000001  0.33360466000000005  0.514598744891633  1.0000
  Sb  Sb6       1.0  0.8860963900000001  0.8355512900000002  0.4943812466413237  1.0000
  Sb  Sb7       1.0  0.3899062100000001  0.66639541  0.5145987419458659  1.0000
  Sb  Sb8       1.0  0.34171091000000003  0.16444878000000004  0.4943812495870909  1.0000
  Pd  Pd5       1.0  0.11390361000000003  0.50000001  0.49544565247675937  1.0000
  Pd  Pd6       1.0  0.11390362000000004  4.014267268392935e-17  0.5167691213373052  1.0000
  Pd  Pd7       1.0  0.6139036200000001  0.50000003  0.49301428989692286  1.0000
  Pd  Pd8       1.0  0.6139036600000001  0.0  0.5120542677981474  1.0000
