data_image0
_chemical_formula_structural       COCa4Ge4Ca4Ge4
_chemical_formula_sum              "C1 O1 Ca8 Ge8"
_cell_length_a       8.14154844
_cell_length_b       4.64631521
_cell_length_c       103.07198059000001
_cell_angle_alpha    90.0
_cell_angle_beta     90.0
_cell_angle_gamma    90.0

_space_group_name_H-M_alt    "P 1"
_space_group_IT_number       1

loop_
  _space_group_symop_operation_xyz
  'x, y, z'

loop_
  _atom_site_type_symbol
  _atom_site_label
  _atom_site_symmetry_multiplicity
  _atom_site_fract_x
  _atom_site_fract_y
  _atom_site_fract_z
  _atom_site_occupancy
  C   C1        1.0  0.12500009  0.499997095  0.5526496375375354  1.0000
  O   O1        1.0  0.12500013  0.499998365  0.5641000236503737  1.0000
  Ca  Ca1       1.0  0.12500000000000003  0.500002115  0.48296890060783354  1.0000
  Ca  Ca2       1.0  0.375  2.1150000000301096e-06  0.4587419215605634  1.0000
  Ca  Ca3       1.0  0.12500007000000002  0.999997675  0.5368089220724813  1.0000
  Ca  Ca4       1.0  0.37599251  0.500001735  0.5122315478404407  1.0000
  Ge  Ge1       1.0  0.12500000000000003  0.500002115  0.4523336882734456  1.0000
  Ge  Ge2       1.0  0.375  2.1150000000301096e-06  0.4893771338949514  1.0000
  Ge  Ge3       1.0  0.12500000000000003  2.1150000000301096e-06  0.5058108490274004  1.0000
  Ge  Ge4       1.0  0.375  0.500002115  0.4358999763496262  1.0000
  Ca  Ca5       1.0  0.625  0.500002115  0.48296890060783354  1.0000
  Ca  Ca6       1.0  0.875  2.1150000000301096e-06  0.4587419215605634  1.0000
  Ca  Ca7       1.0  0.62500006  0.9999978849999999  0.5359845513346254  1.0000
  Ca  Ca8       1.0  0.87400754  0.500001725  0.5122315125455152  1.0000
  Ge  Ge5       1.0  0.625  0.500002115  0.4523336882734456  1.0000
  Ge  Ge6       1.0  0.875  2.1150000000301096e-06  0.4893771338949514  1.0000
  Ge  Ge7       1.0  0.625  2.1150000000301096e-06  0.5058108490274004  1.0000
  Ge  Ge8       1.0  0.875  0.500002115  0.4358999763496262  1.0000
