data_image0
_chemical_formula_structural       COCa12Zn12
_chemical_formula_sum              "C1 O1 Ca12 Zn12"
_cell_length_a       9.836406334416335
_cell_length_b       6.201676355200392
_cell_length_c       103.70478885
_cell_angle_alpha    92.66727228959664
_cell_angle_beta     96.91622757472571
_cell_angle_gamma    80.94641301673424

_space_group_name_H-M_alt    "P 1"
_space_group_IT_number       1

loop_
  _space_group_symop_operation_xyz
  'x, y, z'

loop_
  _atom_site_type_symbol
  _atom_site_label
  _atom_site_symmetry_multiplicity
  _atom_site_fract_x
  _atom_site_fract_y
  _atom_site_fract_z
  _atom_site_occupancy
  C   C1        1.0  0.6263367100000001  0.09861924499999994  0.5554921820832064  1.0000
  O   O1        1.0  0.5697947900000001  0.977640815  0.5611892276416165  1.0000
  Ca  Ca1       1.0  0.51359295  0.045515704999999955  0.5049217038336545  1.0000
  Ca  Ca2       1.0  0.7374318400000001  0.27354304499999993  0.5400616592464986  1.0000
  Ca  Ca3       1.0  0.11978192000000004  0.15535848499999994  0.5224798659082989  1.0000
  Ca  Ca4       1.0  0.25434581  0.619492835  0.5034190109270752  1.0000
  Ca  Ca5       1.0  0.4722279900000001  0.840651735  0.5404952771698999  1.0000
  Ca  Ca6       1.0  0.8605302200000002  0.7288621350000001  0.520334725040016  1.0000
  Ca  Ca7       1.0  0.6802596200000001  0.7121823650000001  0.4507538621560641  1.0000
  Ca  Ca8       1.0  0.9024818400000002  0.9344045849999999  0.48686575769114787  1.0000
  Ca  Ca9       1.0  0.29137073  0.8232934750000002  0.46880980829857066  1.0000
  Ca  Ca10      1.0  0.4210124800000001  0.28615950499999987  0.4492511659994141  1.0000
  Ca  Ca11      1.0  0.6432347  0.508381725  0.48536306478456864  1.0000
  Ca  Ca12      1.0  0.03212359000000006  0.39727061499999994  0.4673071153919914  1.0000
  Zn  Zn1       1.0  0.57589646  0.5389225449999999  0.5162540631089162  1.0000
  Zn  Zn2       1.0  0.96672902  0.420427135  0.4973061513321786  1.0000
  Zn  Zn3       1.0  0.18735959000000005  0.6345546649999999  0.5321315584092464  1.0000
  Zn  Zn4       1.0  0.19009863000000005  0.1334702949999999  0.49297861728604453  1.0000
  Zn  Zn5       1.0  0.4166413700000001  0.3386260249999999  0.530381200370399  1.0000
  Zn  Zn6       1.0  0.8001861200000001  0.24205914499999998  0.5112695597855008  1.0000
  Zn  Zn7       1.0  0.7445068  0.19820490499999993  0.4611942557970947  1.0000
  Zn  Zn8       1.0  0.13339569000000004  0.08709379499999995  0.4431383064045176  1.0000
  Zn  Zn9       1.0  0.3556179100000001  0.30931602499999994  0.47925020193960133  1.0000
  Zn  Zn10      1.0  0.35676529  0.8001369649999999  0.43881077235838345  1.0000
  Zn  Zn11      1.0  0.5789875200000001  0.022359185000000004  0.47492266789346727  1.0000
  Zn  Zn12      1.0  0.96787641  0.9112480749999999  0.4568667217509607  1.0000
