data_image0
_chemical_formula_structural       COCa30As18
_chemical_formula_sum              "C1 O1 Ca30 As18"
_cell_length_a       6.88960236
_cell_length_b       22.84894683803257
_cell_length_c       104.5443606
_cell_angle_alpha    79.1066053642153
_cell_angle_beta     90.0
_cell_angle_gamma    90.0

_space_group_name_H-M_alt    "P 1"
_space_group_IT_number       1

loop_
  _space_group_symop_operation_xyz
  'x, y, z'

loop_
  _atom_site_type_symbol
  _atom_site_label
  _atom_site_symmetry_multiplicity
  _atom_site_fract_x
  _atom_site_fract_y
  _atom_site_fract_z
  _atom_site_occupancy
  C   C1        1.0  0.8749645149999999  0.12297105499999997  0.547388854659797  1.0000
  O   O1        1.0  0.874964605  0.12631418499999997  0.5583497189447084  1.0000
  Ca  Ca1       1.0  0.12496712499999998  0.5978454249999999  0.4508288311318364  1.0000
  Ca  Ca2       1.0  0.12983994499999998  0.270698905  0.504695837996136  1.0000
  Ca  Ca3       1.0  0.12496712499999998  0.931178755  0.4783644813614711  1.0000
  Ca  Ca4       1.0  0.624967125  0.820067645  0.44165028105529147  1.0000
  Ca  Ca5       1.0  0.6171218749999998  0.4837646849999999  0.4993076712016626  1.0000
  Ca  Ca6       1.0  0.624967125  0.15340097499999997  0.4691859312849262  1.0000
  Ca  Ca7       1.0  0.12496712499999998  0.820067645  0.44165028105529147  1.0000
  Ca  Ca8       1.0  0.13280161499999998  0.48376891499999997  0.4993068715664438  1.0000
  Ca  Ca9       1.0  0.12496712499999998  0.15340097499999997  0.4691859312849262  1.0000
  Ca  Ca10      1.0  0.624967125  0.5978454249999999  0.4508288311318364  1.0000
  Ca  Ca11      1.0  0.6200980349999998  0.270702275  0.5046963832019671  1.0000
  Ca  Ca12      1.0  0.624967125  0.931178755  0.4783644813614711  1.0000
  Ca  Ca13      1.0  0.874967125  0.957710135  0.4464454786837675  1.0000
  Ca  Ca14      1.0  0.8749602649999999  0.611058635  0.5076406532943233  1.0000
  Ca  Ca15      1.0  0.874967125  0.291043475  0.47398112560912437  1.0000
  Ca  Ca16      1.0  0.3749597649999999  0.7081149449999999  0.5142969325044852  1.0000
  Ca  Ca17      1.0  0.37496712499999996  0.37562319499999997  0.4809679978094959  1.0000
  Ca  Ca18      1.0  0.37496712499999996  0.04228986499999997  0.453432350884139  1.0000
  Ca  Ca19      1.0  0.37496712499999996  0.624376805  0.4805561559333667  1.0000
  Ca  Ca20      1.0  0.37496712499999996  0.291043475  0.45302050900800983  1.0000
  Ca  Ca21      1.0  0.3749581149999999  0.940093995  0.5083258118099144  1.0000
  Ca  Ca22      1.0  0.874967125  0.460202925  0.46699425340875295  1.0000
  Ca  Ca23      1.0  0.8749643549999999  0.11973243499999997  0.5227628357787267  1.0000
  Ca  Ca24      1.0  0.874949715  0.813678315  0.5008784554604615  1.0000
  Ca  Ca25      1.0  0.874967125  0.708956535  0.4665824115326237  1.0000
  Ca  Ca26      1.0  0.8749829449999998  0.37137930499999994  0.5225634292242722  1.0000
  Ca  Ca27      1.0  0.8749671549999999  0.044495974999999965  0.49247235630945635  1.0000
  Ca  Ca28      1.0  0.37496712499999996  0.793536255  0.4735692837329952  1.0000
  Ca  Ca29      1.0  0.37496712499999996  0.460202925  0.44603363680763825  1.0000
  Ca  Ca30      1.0  0.374964255  0.12792860499999997  0.5004152320651143  1.0000
  As  As1       1.0  0.874967125  0.8388798749999999  0.46607788796951405  1.0000
  As  As2       1.0  0.8749670649999999  0.4916903349999999  0.5211311900278073  1.0000
  As  As3       1.0  0.8749663249999999  0.169925745  0.49568514522996243  1.0000
  As  As4       1.0  0.37496712499999996  0.708956535  0.45534531623526303  1.0000
  As  As5       1.0  0.374963025  0.366630155  0.5108476663372993  1.0000
  As  As6       1.0  0.37496712499999996  0.04228986499999997  0.4828809664648978  1.0000
  As  As7       1.0  0.37496712499999996  0.505546545  0.4707399529426323  1.0000
  As  As8       1.0  0.37496712499999996  0.17221321499999998  0.4432043027129976  1.0000
  As  As9       1.0  0.375018555  0.836223765  0.49695399780386995  1.0000
  As  As10      1.0  0.874967125  0.579033185  0.476810459703765  1.0000
  As  As11      1.0  0.874967125  0.24569985499999997  0.44927480947413034  1.0000
  As  As12      1.0  0.8750328749999999  0.931384505  0.5067439945676642  1.0000
  As  As13      1.0  0.874974795  0.710699585  0.5193427596013009  1.0000
  As  As14      1.0  0.874967125  0.37562319499999997  0.49220509310685656  1.0000
  As  As15      1.0  0.874967125  0.04228986499999997  0.46466944618149963  1.0000
  As  As16      1.0  0.37496712499999996  0.9123665150000001  0.4539368744472486  1.0000
  As  As17      1.0  0.374965605  0.587489225  0.507669403815141  1.0000
  As  As18      1.0  0.37496712499999996  0.24569985499999997  0.48147252137260554  1.0000
