data_image0
_chemical_formula_structural       COCa8Ga8
_chemical_formula_sum              "C1 O1 Ca8 Ga8"
_cell_length_a       6.114425670705269
_cell_length_b       6.22089434082185
_cell_length_c       105.51759215
_cell_angle_alpha    85.53973237411773
_cell_angle_beta     89.38794861162087
_cell_angle_gamma    103.07081900198416

_space_group_name_H-M_alt    "P 1"
_space_group_IT_number       1

loop_
  _space_group_symop_operation_xyz
  'x, y, z'

loop_
  _atom_site_type_symbol
  _atom_site_label
  _atom_site_symmetry_multiplicity
  _atom_site_fract_x
  _atom_site_fract_y
  _atom_site_fract_z
  _atom_site_occupancy
  C   C1        1.0  0.4516039500000001  0.64234616  0.5542662959943264  1.0000
  O   O1        1.0  0.60529558  0.61564266  0.5610226218937733  1.0000
  Ca  Ca1       1.0  0.5531869500000001  0.47684854  0.4612191755272877  1.0000
  Ca  Ca2       1.0  0.9698536200000001  0.31018187  0.4892694671150053  1.0000
  Ca  Ca3       1.0  0.7228012500000001  0.02315146000000002  0.43897737810622667  1.0000
  Ca  Ca4       1.0  0.13946792000000002  0.85648479  0.46702766969394427  1.0000
  Ca  Ca5       1.0  0.3854242500000001  0.13124852000000004  0.5183977112553471  1.0000
  Ca  Ca6       1.0  0.81768465  0.90675092  0.5454588227347965  1.0000
  Ca  Ca7       1.0  0.5561345800000002  0.68981813  0.4950779646476969  1.0000
  Ca  Ca8       1.0  0.97945085  0.5160122  0.521998204191123  1.0000
  Ga  Ga1       1.0  0.67210572  9.113000000002017e-05  0.46922486931810803  1.0000
  Ga  Ga2       1.0  0.2554390500000001  0.16675780000000007  0.4411745777303904  1.0000
  Ga  Ga3       1.0  0.43721581  0.16657553000000005  0.4870722674908415  1.0000
  Ga  Ga4       1.0  0.02054915000000004  0.33324220000000004  0.4590219759031239  1.0000
  Ga  Ga5       1.0  0.5138607100000001  0.64361369  0.5243589493639133  1.0000
  Ga  Ga6       1.0  0.08877239000000002  0.83342447  0.49727516427186075  1.0000
  Ga  Ga7       1.0  0.27782685  0.7877057  0.5422728300964039  1.0000
  Ga  Ga8       1.0  0.8538824800000001  0.99990887  0.5151225624445942  1.0000
