data_image0
_chemical_formula_structural       COCaAl2Si2CaAl2Si2CaAl2Si2CaAl2Si2
_chemical_formula_sum              "C1 O1 Ca4 Al8 Si8"
_cell_length_a       8.368399042039222
_cell_length_b       7.15621018
_cell_length_c       103.47359613
_cell_angle_alpha    90.0
_cell_angle_beta     119.99999999193909
_cell_angle_gamma    90.0

_space_group_name_H-M_alt    "P 1"
_space_group_IT_number       1

loop_
  _space_group_symop_operation_xyz
  'x, y, z'

loop_
  _atom_site_type_symbol
  _atom_site_label
  _atom_site_symmetry_multiplicity
  _atom_site_fract_x
  _atom_site_fract_y
  _atom_site_fract_z
  _atom_site_occupancy
  C   C1        1.0  0.34557805  0.13701238  0.5353039202784022  1.0000
  O   O1        1.0  0.46514583  0.10588186  0.547221982643873  1.0000
  Ca  Ca1       1.0  0.047959910000000015  0.1579658  0.46625713991324486  1.0000
  Al  Al1       1.0  0.21462658  0.52803276  0.45277801735612694  1.0000
  Al  Al2       1.0  0.38129324  0.78789884  0.4797362624703627  1.0000
  Si  Si1       1.0  0.21462658  0.8941181399999999  0.45277801735612694  1.0000
  Si  Si2       1.0  0.38129324  0.4218134599999999  0.4797362624703627  1.0000
  Ca  Ca2       1.0  0.06169840000000002  0.17995523  0.5081488131341336  1.0000
  Al  Al3       1.0  0.21779356  0.52384409  0.4929059971346834  1.0000
  Al  Al4       1.0  0.27359662  0.71572734  0.5176102247353663  1.0000
  Si  Si3       1.0  0.21468284  0.88957979  0.49409283701587986  1.0000
  Si  Si4       1.0  0.48349802000000003  0.45834077  0.5206478795518261  1.0000
  Ca  Ca3       1.0  0.54795991  0.1579658  0.46625713991324486  1.0000
  Al  Al5       1.0  0.71462658  0.52803276  0.45277801735612705  1.0000
  Al  Al6       1.0  0.88129324  0.78789884  0.4797362624703627  1.0000
  Si  Si5       1.0  0.71462658  0.8941181399999999  0.45277801735612705  1.0000
  Si  Si6       1.0  0.88129324  0.4218134599999999  0.4797362624703627  1.0000
  Ca  Ca4       1.0  0.5452367  0.13813198999999998  0.5058815159900999  1.0000
  Al  Al7       1.0  0.70970663  0.5227091899999999  0.49328282484639296  1.0000
  Al  Al8       1.0  0.95204009  0.7190483999999999  0.5179428075004042  1.0000
  Si  Si7       1.0  0.72655099  0.8895306599999999  0.4941056119880526  1.0000
  Si  Si8       1.0  0.79191519  0.4525254999999999  0.521276315015037  1.0000
