data_image0
_chemical_formula_structural       COCa2Ge4Ir4Ca2Ge4Ir4Ca2Ge4Ir4Ca2Ge4Ir4
_chemical_formula_sum              "C1 O1 Ca8 Ge16 Ir16"
_cell_length_a       8.44594186
_cell_length_b       8.44594186
_cell_length_c       101.60594769
_cell_angle_alpha    90.0
_cell_angle_beta     90.0
_cell_angle_gamma    90.0

_space_group_name_H-M_alt    "P 1"
_space_group_IT_number       1

loop_
  _space_group_symop_operation_xyz
  'x, y, z'

loop_
  _atom_site_type_symbol
  _atom_site_label
  _atom_site_symmetry_multiplicity
  _atom_site_fract_x
  _atom_site_fract_y
  _atom_site_fract_z
  _atom_site_occupancy
  C   C1        1.0  0.618692135  0.12474534500000002  0.5467963272625826  1.0000
  O   O1        1.0  0.618692015  0.12475508500000002  0.5581865964510452  1.0000
  Ca  Ca1       1.0  0.11869781500000001  0.12474448500000002  0.5196665518033978  1.0000
  Ca  Ca2       1.0  0.36869952500000003  0.374744195  0.46773539855705554  1.0000
  Ge  Ge1       1.0  0.11869952500000001  0.12474419500000002  0.454807462485201  1.0000
  Ge  Ge2       1.0  0.356084285  0.387359075  0.532221615515343  1.0000
  Ge  Ge3       1.0  0.36921960499999995  0.374223335  0.5070613321397451  1.0000
  Ge  Ge4       1.0  0.11869952500000001  0.12474419500000002  0.4806633346289102  1.0000
  Ir  Ir1       1.0  0.36869952500000003  0.12474419500000002  0.44181340354895493  1.0000
  Ir  Ir2       1.0  0.11869952500000001  0.374744195  0.44181340354895493  1.0000
  Ir  Ir3       1.0  0.11869952500000001  0.374744195  0.4936573935651561  1.0000
  Ir  Ir4       1.0  0.36869952500000003  0.12474419500000002  0.4936573935651561  1.0000
  Ca  Ca3       1.0  0.11869268500000002  0.624747285  0.5184143483092514  1.0000
  Ca  Ca4       1.0  0.36869952500000003  0.8747441950000001  0.46773539855705554  1.0000
  Ge  Ge5       1.0  0.11869952500000001  0.624744195  0.454807462485201  1.0000
  Ge  Ge6       1.0  0.356086175  0.862129705  0.5322217586047612  1.0000
  Ge  Ge7       1.0  0.369218725  0.875264465  0.5070615094461981  1.0000
  Ge  Ge8       1.0  0.11869952500000001  0.624744195  0.4806633346289102  1.0000
  Ir  Ir5       1.0  0.36869952500000003  0.624744195  0.44181340354895493  1.0000
  Ir  Ir6       1.0  0.11869952500000001  0.8747441950000001  0.44181340354895493  1.0000
  Ir  Ir7       1.0  0.11869952500000001  0.8747441950000001  0.4936573935651561  1.0000
  Ir  Ir8       1.0  0.36869952500000003  0.624744195  0.4936573935651561  1.0000
  Ca  Ca5       1.0  0.618696715  0.12473527500000002  0.5212231531495811  1.0000
  Ca  Ca6       1.0  0.868699525  0.374744195  0.46773539855705554  1.0000
  Ge  Ge9       1.0  0.618699525  0.12474419500000002  0.454807462485201  1.0000
  Ge  Ge10      1.0  0.8813073149999999  0.387352545  0.5322216870600521  1.0000
  Ge  Ge11      1.0  0.8681783149999999  0.374223275  0.5070614285695705  1.0000
  Ge  Ge12      1.0  0.618699525  0.12474419500000002  0.4806633346289102  1.0000
  Ir  Ir9       1.0  0.868699525  0.12474419500000002  0.44181340354895493  1.0000
  Ir  Ir10      1.0  0.618699525  0.374744195  0.44181340354895493  1.0000
  Ir  Ir11      1.0  0.618699525  0.374744195  0.4936573935651561  1.0000
  Ir  Ir12      1.0  0.868699525  0.12474419500000002  0.4936573935651561  1.0000
  Ca  Ca7       1.0  0.618696565  0.624740835  0.5196664553735726  1.0000
  Ca  Ca8       1.0  0.868699525  0.8747441950000001  0.46773539855705554  1.0000
  Ge  Ge13      1.0  0.618699525  0.624744195  0.454807462485201  1.0000
  Ge  Ge14      1.0  0.8813060349999999  0.862135575  0.5322217306090055  1.0000
  Ge  Ge15      1.0  0.8681790049999999  0.875264725  0.5070615374419538  1.0000
  Ge  Ge16      1.0  0.618699525  0.624744195  0.4806633346289102  1.0000
  Ir  Ir13      1.0  0.868699525  0.624744195  0.44181340354895493  1.0000
  Ir  Ir14      1.0  0.618699525  0.8747441950000001  0.44181340354895493  1.0000
  Ir  Ir15      1.0  0.618699525  0.8747441950000001  0.4936573935651561  1.0000
  Ir  Ir16      1.0  0.868699525  0.624744195  0.4936573935651561  1.0000
