data_image0
_chemical_formula_structural       COCa8As4Ca8As4
_chemical_formula_sum              "C1 O1 Ca16 As8"
_cell_length_a       4.63297104
_cell_length_b       18.564283168876536
_cell_length_c       102.43079728000001
_cell_angle_alpha    119.94228491363288
_cell_angle_beta     90.0
_cell_angle_gamma    90.0

_space_group_name_H-M_alt    "P 1"
_space_group_IT_number       1

loop_
  _space_group_symop_operation_xyz
  'x, y, z'

loop_
  _atom_site_type_symbol
  _atom_site_label
  _atom_site_symmetry_multiplicity
  _atom_site_fract_x
  _atom_site_fract_y
  _atom_site_fract_z
  _atom_site_occupancy
  C   C1        1.0  0.75000001  0.13419890500000003  0.5503062070334328  1.0000
  O   O1        1.0  0.75000003  0.165845725  0.5634230405717783  1.0000
  Ca  Ca1       1.0  0.7499999700000001  0.5604540650000001  0.4713491966823827  1.0000
  Ca  Ca2       1.0  0.7499999700000001  0.060454065000000015  0.4713491966823827  1.0000
  Ca  Ca3       1.0  0.24999997000000002  0.381237915  0.45513721068680285  1.0000
  Ca  Ca4       1.0  0.7499999700000001  0.23967021500000002  0.46494605266344124  1.0000
  Ca  Ca5       1.0  0.24999997000000002  0.060454065000000015  0.4487340666678614  1.0000
  Ca  Ca6       1.0  0.24999997000000002  0.5604540650000001  0.4487340666678614  1.0000
  Ca  Ca7       1.0  0.7499999700000001  0.8812379150000001  0.4777523375352063  1.0000
  Ca  Ca8       1.0  0.24999997000000002  0.7396702150000001  0.44233092581503797  1.0000
  As  As1       1.0  0.24999997000000002  0.19484539500000003  0.4382760502252156  1.0000
  As  As2       1.0  0.7499999700000001  0.426062735  0.43657695942822183  1.0000
  As  As3       1.0  0.7499999700000001  0.694845395  0.4608911770736189  1.0000
  As  As4       1.0  0.24999997000000002  0.9260627349999999  0.4591920862766253  1.0000
  Ca  Ca9       1.0  0.7499999700000001  0.517609035  0.5214409356437231  1.0000
  Ca  Ca10      1.0  0.74999996  0.07218876500000002  0.5215125405643877  1.0000
  Ca  Ca11      1.0  0.24999997000000002  0.37539059500000005  0.4936094112212822  1.0000
  Ca  Ca12      1.0  0.7499999700000001  0.25691414500000004  0.5082319459139298  1.0000
  Ca  Ca13      1.0  0.24999997000000002  0.06204652500000002  0.49456139952803085  1.0000
  Ca  Ca14      1.0  0.24999997000000002  0.5892610250000001  0.5002937128350616  1.0000
  Ca  Ca15      1.0  0.7499999700000001  0.8759599650000001  0.5192566562871997  1.0000
  Ca  Ca16      1.0  0.24999997000000002  0.7396702150000001  0.48756117951184463  1.0000
  As  As5       1.0  0.24999997000000002  0.19484539500000003  0.4835063039220223  1.0000
  As  As6       1.0  0.7499999700000001  0.426062735  0.48180721312502856  1.0000
  As  As7       1.0  0.7499999700000001  0.701834075  0.5036835327118808  1.0000
  As  As8       1.0  0.24999997000000002  0.9395459349999999  0.5080379832039124  1.0000
