data_image0
_chemical_formula_structural       Co2Re6Co2Re6CO
_chemical_formula_sum              "Co4 Re12 C1 O1"
_cell_length_a       5.42982054
_cell_length_b       5.429820543784064
_cell_length_c       100.54690114
_cell_angle_alpha    90.0
_cell_angle_beta     90.0
_cell_angle_gamma    119.9999999769466

_space_group_name_H-M_alt    "P 1"
_space_group_IT_number       1

loop_
  _space_group_symop_operation_xyz
  'x, y, z'

loop_
  _atom_site_type_symbol
  _atom_site_label
  _atom_site_symmetry_multiplicity
  _atom_site_fract_x
  _atom_site_fract_y
  _atom_site_fract_z
  _atom_site_occupancy
  Co  Co1       1.0  0.32689817499999996  0.666210075  0.47630633072508666  1.0000
  Co  Co2       1.0  0.660231515  0.33287673500000003  0.4546057965303679  1.0000
  Re  Re1       1.0  0.15992215499999998  0.332258035  0.4546057965303679  1.0000
  Re  Re2       1.0  0.660850215  0.8331860950000001  0.4546057965303679  1.0000
  Re  Re3       1.0  0.159922155  0.8331860950000001  0.4546057965303679  1.0000
  Re  Re4       1.0  0.8272075350000001  0.666828775  0.47630633072508666  1.0000
  Re  Re5       1.0  0.32627947500000004  0.16590071500000003  0.47630633072508666  1.0000
  Re  Re6       1.0  0.8272075350000001  0.16590071500000003  0.47630633072508666  1.0000
  Co  Co3       1.0  0.32738774499999995  0.6664541650000001  0.5199483488307207  1.0000
  Co  Co4       1.0  0.662593455  0.33406003500000003  0.4981960974878641  1.0000
  Re  Re7       1.0  0.16517297500000003  0.3360439250000001  0.49826974042218014  1.0000
  Re  Re8       1.0  0.662417065  0.8339678349999999  0.4985522935353456  1.0000
  Re  Re9       1.0  0.165176885  0.8346530849999999  0.49826975561255443  1.0000
  Re  Re10      1.0  0.8400778449999999  0.670336545  0.5192843532680868  1.0000
  Re  Re11      1.0  0.325168635  0.165346915  0.5185340277705712  1.0000
  Re  Re12      1.0  0.840075295  0.17527006500000003  0.5192841740216706  1.0000
  C   C1        1.0  0.6117589150000001  0.8086272349999999  0.5333921672595267  1.0000
  O   O1        1.0  0.6153690850000001  0.8104471050000001  0.545394203469632  1.0000
