data_image0
_chemical_formula_structural       COFe3Ni3Pt6Fe3Ni3Pt6
_chemical_formula_sum              "C1 O1 Fe6 Ni6 Pt12"
_cell_length_a       5.42843723
_cell_length_b       5.299667809157144
_cell_length_c       109.26239924000001
_cell_angle_alpha    92.28296425850478
_cell_angle_beta     90.0
_cell_angle_gamma    59.19293207907472

_space_group_name_H-M_alt    "P 1"
_space_group_IT_number       1

loop_
  _space_group_symop_operation_xyz
  'x, y, z'

loop_
  _atom_site_type_symbol
  _atom_site_label
  _atom_site_symmetry_multiplicity
  _atom_site_fract_x
  _atom_site_fract_y
  _atom_site_fract_z
  _atom_site_occupancy
  C   C1        1.0  0.10470117999999994  0.11435134500000001  0.5527376680231553  1.0000
  O   O1        1.0  0.12276398999999995  0.12839275500000003  0.5634141721478083  1.0000
  Fe  Fe1       1.0  0.75212897  0.7479676350000001  0.43658582785219174  1.0000
  Fe  Fe2       1.0  0.08546229999999995  0.08130096500000002  0.47651254364064105  1.0000
  Fe  Fe3       1.0  0.41879562999999986  0.41463429500000004  0.45654918754311863  1.0000
  Ni  Ni1       1.0  0.91879563  0.41463429500000004  0.45654918754311863  1.0000
  Ni  Ni2       1.0  0.2521289699999999  0.7479676350000001  0.43658582785219174  1.0000
  Ni  Ni3       1.0  0.5854622999999999  0.08130096500000002  0.47651254364064105  1.0000
  Pt  Pt1       1.0  0.4187956299999997  0.914634295  0.4565491875431187  1.0000
  Pt  Pt2       1.0  0.75212897  0.24796763500000002  0.43658582785219174  1.0000
  Pt  Pt3       1.0  0.08546229999999991  0.5813009650000001  0.476512543640641  1.0000
  Pt  Pt4       1.0  0.9187956299999996  0.914634295  0.4565491875431187  1.0000
  Pt  Pt5       1.0  0.2521289699999999  0.24796763500000002  0.43658582785219174  1.0000
  Pt  Pt6       1.0  0.5854622999999999  0.5813009650000001  0.476512543640641  1.0000
  Fe  Fe4       1.0  0.75212897  0.7479676350000001  0.4964759033315679  1.0000
  Fe  Fe5       1.0  0.08120436999999996  0.09284138500000003  0.5367686864188499  1.0000
  Fe  Fe6       1.0  0.41691897  0.418262125  0.5166835354706655  1.0000
  Ni  Ni4       1.0  0.9157962199999997  0.420686895  0.5161379776192109  1.0000
  Ni  Ni5       1.0  0.2521289699999999  0.7479676350000001  0.4964759033315679  1.0000
  Ni  Ni6       1.0  0.5831000099999999  0.08946397500000003  0.5360423695430001  1.0000
  Pt  Pt7       1.0  0.4162161699999999  0.9177478250000001  0.5163401317737424  1.0000
  Pt  Pt8       1.0  0.75212897  0.24796763500000002  0.4964759033315679  1.0000
  Pt  Pt9       1.0  0.08788410999999992  0.578911605  0.5361840754477577  1.0000
  Pt  Pt10      1.0  0.91686269  0.9186990349999999  0.5163479905492896  1.0000
  Pt  Pt11      1.0  0.2521289699999999  0.24796763500000002  0.4964759033315679  1.0000
  Pt  Pt12      1.0  0.5873265199999999  0.577716865  0.536314767567855  1.0000
