data_image0
_chemical_formula_structural       COCa18Cu18Sn18
_chemical_formula_sum              "C1 O1 Ca18 Cu18 Sn18"
_cell_length_a       12.376086293171568
_cell_length_b       12.115483934236636
_cell_length_c       107.01345111
_cell_angle_alpha    82.30812561788485
_cell_angle_beta     86.11055168430562
_cell_angle_gamma    111.36560100582008

_space_group_name_H-M_alt    "P 1"
_space_group_IT_number       1

loop_
  _space_group_symop_operation_xyz
  'x, y, z'

loop_
  _atom_site_type_symbol
  _atom_site_label
  _atom_site_symmetry_multiplicity
  _atom_site_fract_x
  _atom_site_fract_y
  _atom_site_fract_z
  _atom_site_occupancy
  C   C1        1.0  0.17196575500000003  0.8507789450000001  0.5367531042036232  1.0000
  O   O1        1.0  0.17219276500000003  0.796624715  0.5472269158968778  1.0000
  Ca  Ca1       1.0  0.27784588500000007  0.694259175  0.5346971478385921  1.0000
  Ca  Ca2       1.0  0.5971980050000001  0.7694435250000001  0.506320098043892  1.0000
  Ca  Ca3       1.0  0.9305313350000002  0.8527768550000001  0.47749704726107073  1.0000
  Ca  Ca4       1.0  0.22110952500000003  0.35017235500000005  0.5347225697703994  1.0000
  Ca  Ca5       1.0  0.5115086950000001  0.4385573549999999  0.5058638867778531  1.0000
  Ca  Ca6       1.0  0.844842035  0.5218906950000001  0.4770408359950318  1.0000
  Ca  Ca7       1.0  0.03537415500000001  0.049207525000000044  0.5250494590011536  1.0000
  Ca  Ca8       1.0  0.37390158500000004  0.12761939500000002  0.49666008908113407  1.0000
  Ca  Ca9       1.0  0.7072349150000001  0.2109527250000001  0.4678370382983128  1.0000
  Ca  Ca10      1.0  0.741273045  0.07776885500000004  0.5174398827537539  1.0000
  Ca  Ca11      1.0  0.06593864500000002  0.15660086500000003  0.48663607610132387  1.0000
  Ca  Ca12      1.0  0.399271975  0.239934195  0.4578130253185025  1.0000
  Ca  Ca13      1.0  0.484029205  0.569083245  0.45819271829918456  1.0000
  Ca  Ca14      1.0  0.8101469150000001  0.40288588500000005  0.5161794391633829  1.0000
  Ca  Ca15      1.0  0.150695875  0.48574990500000004  0.4870157690820059  1.0000
  Ca  Ca16      1.0  0.28647668500000006  0.791590315  0.4961347232430468  1.0000
  Ca  Ca17      1.0  0.619810015  0.874923655  0.46731166900145915  1.0000
  Ca  Ca18      1.0  0.9633229950000001  0.711911805  0.5247248399551883  1.0000
  Cu  Cu1       1.0  0.34349359500000004  0.745907865  0.4682244062812642  1.0000
  Cu  Cu2       1.0  0.6780371350000001  0.601905145  0.5244907022338597  1.0000
  Cu  Cu3       1.0  0.010160265000000012  0.662574525  0.4970474570640856  1.0000
  Cu  Cu4       1.0  0.228297985  0.9260591649999999  0.5202316362944448  1.0000
  Cu  Cu5       1.0  0.5598884350000001  0.996583145  0.49185562067084815  1.0000
  Cu  Cu6       1.0  0.8932217650000001  0.07991648500000005  0.4630325664292606  1.0000
  Cu  Cu7       1.0  0.32305480500000006  0.5508730949999999  0.5108362782887167  1.0000
  Cu  Cu8       1.0  0.6527768749999999  0.635097275  0.4815961348859436  1.0000
  Cu  Cu9       1.0  0.9861102050000001  0.7184306049999999  0.4527730841031223  1.0000
  Cu  Cu10      1.0  0.010668125000000013  0.28686344500000005  0.5102372960701412  1.0000
  Cu  Cu11      1.0  0.34392988500000005  0.37454085500000006  0.4825633788628033  1.0000
  Cu  Cu12      1.0  0.6772632150000001  0.45787418500000004  0.453740328079982  1.0000
  Cu  Cu13      1.0  0.318047365  0.16452932500000003  0.5220966722222197  1.0000
  Cu  Cu14      1.0  0.6565063950000001  0.27435980500000007  0.4960328556599734  1.0000
  Cu  Cu15      1.0  0.9898397350000001  0.3576931350000001  0.467209804877152  1.0000
  Cu  Cu16      1.0  0.550332735  0.8109214950000001  0.531164917411529  1.0000
  Cu  Cu17      1.0  0.8731532250000001  0.8960579550000001  0.5054441274491362  1.0000
  Cu  Cu18      1.0  0.20648655500000002  0.9793912949999999  0.4766210766663149  1.0000
  Sn  Sn1       1.0  0.456182605  0.9445714150000001  0.5169097818646945  1.0000
  Sn  Sn2       1.0  0.786000165  0.017242185000000052  0.4873895026084696  1.0000
  Sn  Sn3       1.0  0.11933349500000001  0.10057552500000004  0.4585664518256483  1.0000
  Sn  Sn4       1.0  0.43365384500000004  0.0034168550000000164  0.472187844553273  1.0000
  Sn  Sn5       1.0  0.769802885  0.8252599349999998  0.5304554034004684  1.0000
  Sn  Sn6       1.0  0.10032051500000001  0.9200835150000001  0.5010108953360943  1.0000
  Sn  Sn7       1.0  0.461281615  0.567730515  0.5318618173021405  1.0000
  Sn  Sn8       1.0  0.7848995750000001  0.645665945  0.5015002657940023  1.0000
  Sn  Sn9       1.0  0.11823291500000001  0.7289992750000001  0.472677215011181  1.0000
  Sn  Sn10      1.0  0.09545953500000001  0.5291229749999999  0.5169345846773462  1.0000
  Sn  Sn11      1.0  0.430205915  0.625921675  0.4861652342541223  1.0000
  Sn  Sn12      1.0  0.7635392550000001  0.7092550049999999  0.457342183471301  1.0000
  Sn  Sn13      1.0  0.21078707500000002  0.36350456500000006  0.4625204061606481  1.0000
  Sn  Sn14      1.0  0.543682855  0.19820955499999998  0.5206626054845205  1.0000
  Sn  Sn15      1.0  0.8774537450000002  0.280171225  0.4913434604022357  1.0000
  Sn  Sn16      1.0  0.23029171500000004  0.293750735  0.5066301453077208  1.0000
  Sn  Sn17      1.0  0.563625055  0.37708406499999997  0.4778070945248994  1.0000
  Sn  Sn18      1.0  0.9420819950000001  0.27290856500000005  0.5347079495655356  1.0000
