data_image0
_chemical_formula_structural       COCa3Al6Si6Ca3Al6Si6
_chemical_formula_sum              "C1 O1 Ca6 Al12 Si12"
_cell_length_a       8.289684539959069
_cell_length_b       11.070351359444418
_cell_length_c       103.47359613
_cell_angle_alpha    100.8933946554572
_cell_angle_beta     75.38196989742288
_cell_angle_gamma    67.5700613401429

_space_group_name_H-M_alt    "P 1"
_space_group_IT_number       1

loop_
  _space_group_symop_operation_xyz
  'x, y, z'

loop_
  _atom_site_type_symbol
  _atom_site_label
  _atom_site_symmetry_multiplicity
  _atom_site_fract_x
  _atom_site_fract_y
  _atom_site_fract_z
  _atom_site_occupancy
  C   C1        1.0  0.625947955  0.7521321949999998  0.5364013919666998  1.0000
  O   O1        1.0  0.596887095  0.7761531849999999  0.5485343999515793  1.0000
  Ca  Ca1       1.0  0.270785175  0.26677977500000005  0.49377617848495703  1.0000
  Ca  Ca2       1.0  0.30700399500000003  0.577434395  0.5190743468594922  1.0000
  Ca  Ca3       1.0  0.282157565  0.9349665349999998  0.5071158568345525  1.0000
  Al  Al1       1.0  0.639200865  0.026913505000000008  0.5017043960911229  1.0000
  Al  Al2       1.0  0.654744635  0.3518289950000001  0.5259447747718292  1.0000
  Al  Al3       1.0  0.638969535  0.716351015  0.515281360895231  1.0000
  Al  Al4       1.0  0.895116795  0.1680235550000001  0.49956223156259033  1.0000
  Al  Al5       1.0  0.857013185  0.4706926149999999  0.5185221633256516  1.0000
  Al  Al6       1.0  0.8691282749999999  0.845263225  0.5123248201968414  1.0000
  Si  Si1       1.0  0.0069375149999999905  0.910284555  0.4919029644847852  1.0000
  Si  Si2       1.0  0.9930624849999999  0.23879397500000005  0.5205170840878094  1.0000
  Si  Si3       1.0  0.00909388499999999  0.585532535  0.5062457870914048  1.0000
  Si  Si4       1.0  0.527665445  0.281272485  0.5087569733028163  1.0000
  Si  Si5       1.0  0.534632835  0.623275005  0.4956493892501397  1.0000
  Si  Si6       1.0  0.527082985  0.9730864949999999  0.5241426367183799  1.0000
  Ca  Ca4       1.0  0.270785175  0.26677977500000005  0.4533388140485926  1.0000
  Ca  Ca5       1.0  0.270785175  0.6001131050000001  0.4802970559278393  1.0000
  Ca  Ca6       1.0  0.270785175  0.933446445  0.46681793337072136  1.0000
  Al  Al7       1.0  0.6408521349999999  0.03231301499999999  0.46133462028317196  1.0000
  Al  Al8       1.0  0.6408521349999999  0.365646345  0.4882928621624185  1.0000
  Al  Al9       1.0  0.6408521349999999  0.6989796749999999  0.4748137396053006  1.0000
  Al  Al10      1.0  0.9007182149999999  0.16791320499999995  0.4588221271361419  1.0000
  Al  Al11      1.0  0.9007182149999999  0.501246545  0.48578036901538857  1.0000
  Al  Al12      1.0  0.9007182149999999  0.8345798749999997  0.4723012496932598  1.0000
  Si  Si7       1.0  0.0069375149999999905  0.910284555  0.4514656000484208  1.0000
  Si  Si8       1.0  0.0069375149999999905  0.243617885  0.47842384516265646  1.0000
  Si  Si9       1.0  0.0069375149999999905  0.576951215  0.46494472260553865  1.0000
  Si  Si10      1.0  0.534632835  0.28994166499999996  0.4686911473708931  1.0000
  Si  Si11      1.0  0.534632835  0.623275005  0.4552120248137752  1.0000
  Si  Si12      1.0  0.534632835  0.9566083350000001  0.4821702666930218  1.0000
