data_image0
_chemical_formula_structural       COAu6Cu6
_chemical_formula_sum              "C1 O1 Au6 Cu6"
_cell_length_a       4.695655435608284
_cell_length_b       5.515267593832359
_cell_length_c       99.4365998
_cell_angle_alpha    84.88137579046258
_cell_angle_beta     87.46416466668339
_cell_angle_gamma    78.16566712116752

_space_group_name_H-M_alt    "P 1"
_space_group_IT_number       1

loop_
  _space_group_symop_operation_xyz
  'x, y, z'

loop_
  _atom_site_type_symbol
  _atom_site_label
  _atom_site_symmetry_multiplicity
  _atom_site_fract_x
  _atom_site_fract_y
  _atom_site_fract_z
  _atom_site_occupancy
  C   C1        1.0  0.54508817  0.17144931  0.5345147586584099  1.0000
  O   O1        1.0  0.4538733199999999  0.14260965999999997  0.5454340383863049  1.0000
  Au  Au1       1.0  0.73985254  0.4328910899999999  0.49198192900345933  1.0000
  Au  Au2       1.0  0.67232784  0.7023755399999999  0.5152938193438461  1.0000
  Au  Au3       1.0  0.17834430999999992  0.05916668999999997  0.5049964830590717  1.0000
  Au  Au4       1.0  0.3633223599999999  0.5589110899999999  0.4545659616136952  1.0000
  Au  Au5       1.0  0.2799890299999999  0.8089110899999998  0.4792354513640611  1.0000
  Au  Au6       1.0  0.8216556899999998  0.18391108999999997  0.4669007064888781  1.0000
  Cu  Cu1       1.0  0.20321568999999995  0.55353767  0.5041369606073063  1.0000
  Cu  Cu2       1.0  0.73074687  0.94108891  0.49150111969990984  1.0000
  Cu  Cu3       1.0  0.6329675300000001  0.21080689999999994  0.5160493184598928  1.0000
  Cu  Cu4       1.0  0.8216556899999999  0.6839110899999999  0.466900706488878  1.0000
  Cu  Cu5       1.0  0.3633223599999999  0.05891108999999998  0.45456596161369517  1.0000
  Cu  Cu6       1.0  0.2799890299999999  0.30891108999999994  0.47923545136406104  1.0000
