data_image0
_chemical_formula_structural       COMn16Ge8Mn16Ge8
_chemical_formula_sum              "C1 O1 Mn32 Ge16"
_cell_length_a       7.12663214
_cell_length_b       6.489196089380514
_cell_length_c       108.93517654
_cell_angle_alpha    78.70113479284342
_cell_angle_beta     90.0
_cell_angle_gamma    90.0

_space_group_name_H-M_alt    "P 1"
_space_group_IT_number       1

loop_
  _space_group_symop_operation_xyz
  'x, y, z'

loop_
  _atom_site_type_symbol
  _atom_site_label
  _atom_site_symmetry_multiplicity
  _atom_site_fract_x
  _atom_site_fract_y
  _atom_site_fract_z
  _atom_site_occupancy
  C   C1        1.0  0.6797905750000001  0.37672034  0.5575349570098023  1.0000
  O   O1        1.0  0.7175824549999998  0.27387669  0.5673800776068041  1.0000
  Mn  Mn1       1.0  0.08333333499999998  0.5556106  0.45495842324334573  1.0000
  Mn  Mn2       1.0  0.08333333499999998  0.05561059999999998  0.4847430934263188  1.0000
  Mn  Mn3       1.0  0.5833333349999998  0.3056106  0.4698507583348322  1.0000
  Mn  Mn4       1.0  0.5833333349999998  0.8056106000000001  0.4400660917260193  1.0000
  Mn  Mn5       1.0  0.08333333499999998  0.3056106  0.4400660917260193  1.0000
  Mn  Mn6       1.0  0.08333333499999998  0.8056106000000001  0.4698507583348322  1.0000
  Mn  Mn7       1.0  0.5833333349999998  0.05561059999999998  0.45495842324334573  1.0000
  Mn  Mn8       1.0  0.5833333349999998  0.5556106  0.4847430934263188  1.0000
  Mn  Mn9       1.0  0.41666666499999994  0.18061059999999998  0.432619922393196  1.0000
  Mn  Mn10      1.0  0.41666666499999994  0.6806106  0.462404592576169  1.0000
  Mn  Mn11      1.0  0.9166666649999998  0.9306106000000002  0.44751225748468254  1.0000
  Mn  Mn12      1.0  0.9166666649999998  0.43061059999999995  0.47729692409349544  1.0000
  Mn  Mn13      1.0  0.2500000049999999  0.6806106  0.432619922393196  1.0000
  Mn  Mn14      1.0  0.2500000049999999  0.18061059999999998  0.46240459257616906  1.0000
  Mn  Mn15      1.0  0.750000005  0.43061059999999995  0.44751225748468254  1.0000
  Mn  Mn16      1.0  0.750000005  0.9306106000000002  0.47729692409349544  1.0000
  Ge  Ge1       1.0  0.41666666499999994  0.43061059999999995  0.44751225748468254  1.0000
  Ge  Ge2       1.0  0.41666666499999994  0.9306106000000002  0.47729692409349544  1.0000
  Ge  Ge3       1.0  0.9166666649999998  0.18061059999999998  0.46240459257616906  1.0000
  Ge  Ge4       1.0  0.9166666649999998  0.6806106  0.432619922393196  1.0000
  Ge  Ge5       1.0  0.2500000049999999  0.43061059999999995  0.47729692409349544  1.0000
  Ge  Ge6       1.0  0.2500000049999999  0.9306106000000002  0.44751225748468254  1.0000
  Ge  Ge7       1.0  0.750000005  0.18061059999999998  0.432619922393196  1.0000
  Ge  Ge8       1.0  0.750000005  0.6806106  0.462404592576169  1.0000
  Mn  Mn17      1.0  0.08528921499999999  0.5006184499999999  0.5136785217160117  1.0000
  Mn  Mn18      1.0  0.08481214499999998  0.9913809700000001  0.5394249056243373  1.0000
  Mn  Mn19      1.0  0.5519267649999999  0.31331164  0.5288103755748538  1.0000
  Mn  Mn20      1.0  0.5833333349999998  0.8056106000000001  0.4996354249436451  1.0000
  Mn  Mn21      1.0  0.08333333499999998  0.3056106  0.49963542494364516  1.0000
  Mn  Mn22      1.0  0.09463126499999998  0.7600171800000001  0.5288691383416501  1.0000
  Mn  Mn23      1.0  0.5617980349999999  0.008619029999999974  0.5175423389377793  1.0000
  Mn  Mn24      1.0  0.6055392849999999  0.52944769  0.5422538569461604  1.0000
  Mn  Mn25      1.0  0.41666666499999994  0.18061059999999998  0.492189259184982  1.0000
  Mn  Mn26      1.0  0.40217818499999997  0.68764159  0.5237233234914928  1.0000
  Mn  Mn27      1.0  0.9166666649999998  0.9306106000000002  0.5070815942764685  1.0000
  Mn  Mn28      1.0  0.8979038949999999  0.44402477  0.5381854798173277  1.0000
  Mn  Mn29      1.0  0.2500000049999999  0.6806106  0.49218925918498196  1.0000
  Mn  Mn30      1.0  0.24067270499999996  0.16317028  0.5232371626556306  1.0000
  Mn  Mn31      1.0  0.750000005  0.43061059999999995  0.5070815942764685  1.0000
  Mn  Mn32      1.0  0.7474863049999999  0.8641400300000001  0.5360770291406851  1.0000
  Ge  Ge9       1.0  0.41666666499999994  0.43061059999999995  0.5070815942764685  1.0000
  Ge  Ge10      1.0  0.423483515  0.9087016900000001  0.541049540114167  1.0000
  Ge  Ge11      1.0  0.8799181549999998  0.17650065  0.5232608414665318  1.0000
  Ge  Ge12      1.0  0.9166666649999998  0.6806106  0.49218925918498196  1.0000
  Ge  Ge13      1.0  0.24403453499999994  0.39877342999999993  0.5395301467695426  1.0000
  Ge  Ge14      1.0  0.2500000049999999  0.9306106000000002  0.5070815942764685  1.0000
  Ge  Ge15      1.0  0.750000005  0.18061059999999998  0.492189259184982  1.0000
  Ge  Ge16      1.0  0.753436205  0.6607209900000001  0.520601902219899  1.0000
