data_image0
_chemical_formula_structural       COCa2Si4Zn4Ca2Si4Zn4
_chemical_formula_sum              "C1 O1 Ca4 Si8 Zn8"
_cell_length_a       5.967984303370713
_cell_length_b       8.58632308
_cell_length_c       101.76059572
_cell_angle_alpha    90.0
_cell_angle_beta     86.45901314440748
_cell_angle_gamma    111.08071146821737

_space_group_name_H-M_alt    "P 1"
_space_group_IT_number       1

loop_
  _space_group_symop_operation_xyz
  'x, y, z'

loop_
  _atom_site_type_symbol
  _atom_site_label
  _atom_site_symmetry_multiplicity
  _atom_site_fract_x
  _atom_site_fract_y
  _atom_site_fract_z
  _atom_site_occupancy
  C   C1        1.0  0.12566750999999995  0.2975502649999999  0.538478574477586  1.0000
  O   O1        1.0  0.11432449999999995  0.36609923499999997  0.5482990923112105  1.0000
  Ca  Ca1       1.0  0.13417803999999997  0.026742494999999974  0.49817939287357704  1.0000
  Ca  Ca2       1.0  0.89658168  0.47325750499999997  0.46145437472804485  1.0000
  Si  Si1       1.0  0.5454697900000001  0.39983918499999993  0.5155253519159796  1.0000
  Si  Si2       1.0  0.15788551  0.20094286499999997  0.5229311609994408  1.0000
  Si  Si3       1.0  0.22356215999999998  0.30500263499999997  0.4764584311404839  1.0000
  Si  Si4       1.0  0.8196011900000001  0.204012385  0.4854641895937363  1.0000
  Zn  Zn1       1.0  0.7380827899999999  0.18535051499999997  0.514412632700609  1.0000
  Zn  Zn2       1.0  0.58408168  0.3951325049999999  0.4907147758458106  1.0000
  Zn  Zn3       1.0  0.45908168000000005  0.11388250499999998  0.4712078417673001  1.0000
  Zn  Zn4       1.0  0.33408168  0.3326325049999999  0.45170090768878957  1.0000
  Ca  Ca3       1.0  0.13796380999999996  0.5418496449999999  0.5035569552215099  1.0000
  Ca  Ca4       1.0  0.89658168  0.973257505  0.46145437472804485  1.0000
  Si  Si5       1.0  0.45989688  0.8943023449999998  0.5160106719514151  1.0000
  Si  Si6       1.0  0.10341831999999998  0.896188935  0.5268262400529393  1.0000
  Si  Si7       1.0  0.22356215999999998  0.805002635  0.4764584311404839  1.0000
  Si  Si8       1.0  0.8196011900000001  0.7040123849999999  0.4854641895937363  1.0000
  Zn  Zn5       1.0  0.70404988  0.712396945  0.5179364651480537  1.0000
  Zn  Zn6       1.0  0.58408168  0.8951325050000001  0.4907147758458106  1.0000
  Zn  Zn7       1.0  0.45908168000000005  0.6138825050000001  0.4712078417673001  1.0000
  Zn  Zn8       1.0  0.33408168  0.8326325050000001  0.45170090768878957  1.0000
