data_image0
_chemical_formula_structural       COZn3Pd3Zn3Pd3Zn3Pd3Zn3Pd3
_chemical_formula_sum              "C1 O1 Zn12 Pd12"
_cell_length_a       6.578037372244028
_cell_length_b       6.89943056
_cell_length_c       103.28252904
_cell_angle_alpha    90.0
_cell_angle_beta     108.43494879537806
_cell_angle_gamma    90.0

_space_group_name_H-M_alt    "P 1"
_space_group_IT_number       1

loop_
  _space_group_symop_operation_xyz
  'x, y, z'

loop_
  _atom_site_type_symbol
  _atom_site_label
  _atom_site_symmetry_multiplicity
  _atom_site_fract_x
  _atom_site_fract_y
  _atom_site_fract_z
  _atom_site_occupancy
  C   C1        1.0  0.66885063  0.14316418000000003  0.5382540466145845  1.0000
  O   O1        1.0  0.66312372  0.15618490000000002  0.549384463009796  1.0000
  Zn  Zn1       1.0  0.9908327199999999  0.37849105000000005  0.5228343300879085  1.0000
  Zn  Zn2       1.0  0.67262642  0.36958762000000006  0.49742611636404693  1.0000
  Zn  Zn3       1.0  0.34558262999999995  0.37173051  0.5113200686723002  1.0000
  Pd  Pd1       1.0  0.012008760000000005  0.12252352000000004  0.5045512421734236  1.0000
  Pd  Pd2       1.0  0.6795793  0.12650399000000004  0.5198056264361824  1.0000
  Pd  Pd3       1.0  0.3425006099999999  0.12293003000000004  0.49089646512654694  1.0000
  Zn  Zn4       1.0  0.009167280000000005  0.37293003  0.48418297817798117  1.0000
  Zn  Zn5       1.0  0.67583395  0.37293003  0.4573290271612439  1.0000
  Zn  Zn6       1.0  0.3425006099999999  0.37293003  0.47075600105837545  1.0000
  Pd  Pd4       1.0  0.009167280000000005  0.12293003000000004  0.4640425141098097  1.0000
  Pd  Pd5       1.0  0.67583395  0.12293003000000004  0.47746949122941545  1.0000
  Pd  Pd6       1.0  0.3425006099999999  0.12293003000000004  0.45061553699020396  1.0000
  Zn  Zn7       1.0  0.9874611  0.8702145800000001  0.5229724324444054  1.0000
  Zn  Zn8       1.0  0.67204979  0.87747648  0.4974792324071246  1.0000
  Zn  Zn9       1.0  0.34868455  0.87638138  0.5115045843254329  1.0000
  Pd  Pd7       1.0  0.023577320000000006  0.62532986  0.5047025212271324  1.0000
  Pd  Pd8       1.0  0.67209846  0.62322204  0.5167161984796722  1.0000
  Pd  Pd9       1.0  0.3425006099999999  0.62293003  0.49089646512654694  1.0000
  Zn  Zn10      1.0  0.009167280000000005  0.87293003  0.48418297817798117  1.0000
  Zn  Zn11      1.0  0.67583395  0.87293003  0.4573290271612439  1.0000
  Zn  Zn12      1.0  0.3425006099999999  0.87293003  0.47075600105837545  1.0000
  Pd  Pd10      1.0  0.009167280000000005  0.62293003  0.4640425141098097  1.0000
  Pd  Pd11      1.0  0.67583395  0.62293003  0.47746949122941545  1.0000
  Pd  Pd12      1.0  0.3425006099999999  0.62293003  0.45061553699020396  1.0000
