data_image0
_chemical_formula_structural       COIr12Rh4
_chemical_formula_sum              "C1 O1 Ir12 Rh4"
_cell_length_a       4.74500082
_cell_length_b       4.745000817027763
_cell_length_c       102.88327175
_cell_angle_alpha    90.0
_cell_angle_beta     90.0
_cell_angle_gamma    109.44917963093827

_space_group_name_H-M_alt    "P 1"
_space_group_IT_number       1

loop_
  _space_group_symop_operation_xyz
  'x, y, z'

loop_
  _atom_site_type_symbol
  _atom_site_label
  _atom_site_symmetry_multiplicity
  _atom_site_fract_x
  _atom_site_fract_y
  _atom_site_fract_z
  _atom_site_occupancy
  C   C1        1.0  0.7212914349999999  0.47246075  0.549650125361564  1.0000
  O   O1        1.0  0.696917325  0.4480820999999999  0.5609961553559775  1.0000
  Ir  Ir1       1.0  0.7526752549999999  0.0038463899999999483  0.4390038446440225  1.0000
  Ir  Ir2       1.0  0.25267525499999993  0.50384639  0.4656386171353281  1.0000
  Ir  Ir3       1.0  0.25267525499999993  0.50384639  0.4390038446440225  1.0000
  Ir  Ir4       1.0  0.7526752549999999  0.0038463899999999483  0.4656386171353281  1.0000
  Ir  Ir5       1.0  0.752675255  0.50384639  0.4789560049790674  1.0000
  Ir  Ir6       1.0  0.25267525499999993  0.0038463899999999483  0.45232122929158886  1.0000
  Ir  Ir7       1.0  0.7526752549999999  0.0038463899999999483  0.4922733896266338  1.0000
  Ir  Ir8       1.0  0.2503385249999999  0.50122711  0.5190470038655359  1.0000
  Ir  Ir9       1.0  0.25267525499999993  0.50384639  0.4922733896266338  1.0000
  Ir  Ir10      1.0  0.7500577849999999  0.001503459999999901  0.5190470102578815  1.0000
  Ir  Ir11      1.0  0.7480225449999999  0.49919655999999996  0.5316050961078483  1.0000
  Ir  Ir12      1.0  0.25154685499999996  0.002718239999999948  0.505611539809056  1.0000
  Rh  Rh1       1.0  0.752675255  0.50384639  0.45232122929158886  1.0000
  Rh  Rh2       1.0  0.25267525499999993  0.0038463899999999483  0.4789560049790674  1.0000
  Rh  Rh3       1.0  0.7512191749999999  0.5023943099999999  0.5055270074301327  1.0000
  Rh  Rh4       1.0  0.24732474499999996  0.99849654  0.5311922944064026  1.0000
