data_image0
_chemical_formula_structural       COCa4Rh2Zn2
_chemical_formula_sum              "C1 O1 Ca4 Rh2 Zn2"
_cell_length_a       5.0884321
_cell_length_b       5.0884321
_cell_length_c       98.78451872
_cell_angle_alpha    90.0
_cell_angle_beta     90.0
_cell_angle_gamma    90.0

_space_group_name_H-M_alt    "P 1"
_space_group_IT_number       1

loop_
  _space_group_symop_operation_xyz
  'x, y, z'

loop_
  _atom_site_type_symbol
  _atom_site_label
  _atom_site_symmetry_multiplicity
  _atom_site_fract_x
  _atom_site_fract_y
  _atom_site_fract_z
  _atom_site_occupancy
  C   C1        1.0  0.75  4.7000000001296844e-07  0.5343572156635815  1.0000
  O   O1        1.0  0.7500003700000001  7.600000000129685e-07  0.5461317306934554  1.0000
  Ca  Ca1       1.0  0.74999989  0.99999982  0.5080154748846757  1.0000
  Ca  Ca2       1.0  0.7499996299999999  1.8000000001296842e-07  0.4720799531139968  1.0000
  Ca  Ca3       1.0  0.24999963  0.50000018  0.4720799531139968  1.0000
  Ca  Ca4       1.0  0.25000047  0.49999938  0.5087296030856111  1.0000
  Rh  Rh1       1.0  0.7499996299999999  0.50000018  0.4538682693065444  1.0000
  Rh  Rh2       1.0  0.25000078  0.9999985100000002  0.49212890734454956  1.0000
  Zn  Zn1       1.0  0.24999963  1.8000000001296842e-07  0.4538682693065444  1.0000
  Zn  Zn2       1.0  0.74999939  0.50000043  0.4897151366004487  1.0000
