data_image0
_chemical_formula_structural       COCa4Si4Ca4Si4
_chemical_formula_sum              "C1 O1 Ca8 Si8"
_cell_length_a       4.60286915
_cell_length_b       11.50116305232406
_cell_length_c       101.50537888
_cell_angle_alpha    69.97591404852842
_cell_angle_beta     90.0
_cell_angle_gamma    90.0

_space_group_name_H-M_alt    "P 1"
_space_group_IT_number       1

loop_
  _space_group_symop_operation_xyz
  'x, y, z'

loop_
  _atom_site_type_symbol
  _atom_site_label
  _atom_site_symmetry_multiplicity
  _atom_site_fract_x
  _atom_site_fract_y
  _atom_site_fract_z
  _atom_site_occupancy
  C   C1        1.0  0.7500000600000001  0.522118975  0.5338195842978223  1.0000
  O   O1        1.0  0.75  0.4560703549999999  0.545764999420639  1.0000
  Ca  Ca1       1.0  0.7499999500000001  0.3657654349999999  0.45693491192626257  1.0000
  Ca  Ca2       1.0  0.24999995000000003  0.14303203499999992  0.4849752866183325  1.0000
  Ca  Ca3       1.0  0.24999995000000003  0.8657654349999999  0.4763337477488239  1.0000
  Ca  Ca4       1.0  0.7499999500000001  0.643032035  0.4655764507957712  1.0000
  Si  Si1       1.0  0.7499999500000001  0.07344248499999993  0.4682763621426729  1.0000
  Si  Si2       1.0  0.24999995000000003  0.43535498499999986  0.4736338364019222  1.0000
  Si  Si3       1.0  0.24999995000000003  0.5734424849999998  0.48767519796523423  1.0000
  Si  Si4       1.0  0.7499999500000001  0.935354985  0.4542350005793609  1.0000
  Ca  Ca5       1.0  0.7499999500000001  0.36218619499999993  0.49558946361640693  1.0000
  Ca  Ca6       1.0  0.24999995000000003  0.15622481499999993  0.5224252668221213  1.0000
  Ca  Ca7       1.0  0.24999995000000003  0.8659730849999999  0.5147396311942328  1.0000
  Ca  Ca8       1.0  0.74999994  0.639688445  0.5052747653828362  1.0000
  Si  Si5       1.0  0.7499999500000001  0.06464501499999994  0.5093734755679763  1.0000
  Si  Si6       1.0  0.24999995000000003  0.441520135  0.5118647454520253  1.0000
  Si  Si7       1.0  0.24999994000000003  0.574131765  0.5251484567720102  1.0000
  Si  Si8       1.0  0.7499999500000001  0.935354985  0.49303267222448344  1.0000
