data_image0
_chemical_formula_structural       COGa18Rh4
_chemical_formula_sum              "C1 O1 Ga18 Rh4"
_cell_length_a       6.5376921890403725
_cell_length_b       6.49738749
_cell_length_c       34.13327485
_cell_angle_alpha    90.0
_cell_angle_beta     86.92953139104381
_cell_angle_gamma    90.0

_space_group_name_H-M_alt    "P 1"
_space_group_IT_number       1

loop_
  _space_group_symop_operation_xyz
  'x, y, z'

loop_
  _atom_site_type_symbol
  _atom_site_label
  _atom_site_symmetry_multiplicity
  _atom_site_fract_x
  _atom_site_fract_y
  _atom_site_fract_z
  _atom_site_occupancy
  C   C1        1.0  0.7626119400000001  0.084926655  0.6204820300538127  1.0000
  O   O1        1.0  0.7581888200000001  0.044578364999999995  0.6539664319067794  1.0000
  Ga  Ga1       1.0  0.98718669  0.768736585  0.48496793026085944  1.0000
  Ga  Ga2       1.0  0.98718669  0.24612816499999995  0.3536198347894401  1.0000
  Ga  Ga3       1.0  0.23893984000000001  0.6727733149999999  0.6095143274799298  1.0000
  Ga  Ga4       1.0  0.21881517000000003  0.372909485  0.4654127732678363  1.0000
  Ga  Ga5       1.0  0.5795926  0.8331798749999999  0.5519649895690908  1.0000
  Ga  Ga6       1.0  0.62105701  0.24670156499999996  0.41582835234284127  1.0000
  Ga  Ga7       1.0  0.42032905000000004  0.7475055249999999  0.40489134319190817  1.0000
  Ga  Ga8       1.0  0.40943941000000006  0.249555595  0.5368702772962578  1.0000
  Ga  Ga9       1.0  0.6182896200000001  0.560084555  0.4747121343644317  1.0000
  Ga  Ga10      1.0  0.5831468300000001  0.480876505  0.5909594019956931  1.0000
  Ga  Ga11      1.0  0.40681685000000006  0.9529566749999999  0.47738166356464057  1.0000
  Ga  Ga12      1.0  0.40681685000000006  0.06190807500000001  0.3460335680932211  1.0000
  Ga  Ga13      1.0  0.012813310000000015  0.44236371499999994  0.5550527521209758  1.0000
  Ga  Ga14      1.0  0.9294674300000001  0.555154015  0.4066709102364408  1.0000
  Ga  Ga15      1.0  0.12638452000000003  0.035282985  0.4199858558156362  1.0000
  Ga  Ga16      1.0  0.11522237  0.964717015  0.5566794404902272  1.0000
  Ga  Ga17      1.0  0.80211098  0.16415629499999998  0.48715211248652984  1.0000
  Ga  Ga18      1.0  0.80211098  0.8507084549999999  0.3558040170151105  1.0000
  Rh  Rh1       1.0  0.2933721000000001  0.632489655  0.5187515220596148  1.0000
  Rh  Rh2       1.0  0.28097666000000004  0.38417087499999997  0.3898352262434485  1.0000
  Rh  Rh3       1.0  0.7605832100000001  0.886627835  0.43262474749351615  1.0000
  Rh  Rh4       1.0  0.7681776600000001  0.15285417499999998  0.5665996472566495  1.0000
