data_image0
_chemical_formula_structural       COCa10Cu40In10
_chemical_formula_sum              "C1 O1 Ca10 Cu40 In10"
_cell_length_a       5.22177535
_cell_length_b       15.665326042059519
_cell_length_c       107.29093492
_cell_angle_alpha    98.04946698790245
_cell_angle_beta     90.0
_cell_angle_gamma    90.0

_space_group_name_H-M_alt    "P 1"
_space_group_IT_number       1

loop_
  _space_group_symop_operation_xyz
  'x, y, z'

loop_
  _atom_site_type_symbol
  _atom_site_label
  _atom_site_symmetry_multiplicity
  _atom_site_fract_x
  _atom_site_fract_y
  _atom_site_fract_z
  _atom_site_occupancy
  C   C1        1.0  0.620374175  0.20683157500000002  0.5593845299911813  1.0000
  O   O1        1.0  0.6203745850000001  0.15859677500000005  0.5668536038646657  1.0000
  Ca  Ca1       1.0  0.12037601500000003  0.20852726500000002  0.5335913425345651  1.0000
  Ca  Ca2       1.0  0.12037558500000002  0.747479135  0.5084528765600562  1.0000
  Ca  Ca3       1.0  0.12037558500000002  0.347479135  0.43893920339129233  1.0000
  Ca  Ca4       1.0  0.12037558500000002  0.280812465  0.48528165101190707  1.0000
  Ca  Ca5       1.0  0.12037558500000002  0.814145795  0.4621104254637578  1.0000
  Ca  Ca6       1.0  0.620375585  0.014145795000000018  0.4968672620481398  1.0000
  Ca  Ca7       1.0  0.620375585  0.547479135  0.4736960399756743  1.0000
  Ca  Ca8       1.0  0.620378195  0.48469074500000003  0.5206106998240286  1.0000
  Ca  Ca9       1.0  0.620375585  0.08081246500000003  0.45052481442752507  1.0000
  Ca  Ca10      1.0  0.620366765  0.9570332650000001  0.5451340080235143  1.0000
  Cu  Cu1       1.0  0.8690944750000001  0.189444725  0.5055713158391405  1.0000
  Cu  Cu2       1.0  0.8690944750000001  0.722778055  0.4824000902909913  1.0000
  Cu  Cu3       1.0  0.8765795550000001  0.6592584850000001  0.5288571972398142  1.0000
  Cu  Cu4       1.0  0.8690944750000001  0.256111395  0.4592288647428421  1.0000
  Cu  Cu5       1.0  0.8690944750000001  0.7894447250000001  0.43605764267037656  1.0000
  Cu  Cu6       1.0  0.620375585  0.8889322850000001  0.45334700699587105  1.0000
  Cu  Cu7       1.0  0.620363815  0.7663057350000001  0.5440399357971947  1.0000
  Cu  Cu8       1.0  0.620375585  0.355598945  0.47651822906833663  1.0000
  Cu  Cu9       1.0  0.620378075  0.28308662500000004  0.5230508660987411  1.0000
  Cu  Cu10      1.0  0.620375585  0.8222656150000001  0.4996894546164858  1.0000
  Cu  Cu11      1.0  0.620375585  0.8554281350000001  0.4766369688491598  1.0000
  Cu  Cu12      1.0  0.620375585  0.38876146500000003  0.4534657467766943  1.0000
  Cu  Cu13      1.0  0.620375585  0.32209479500000004  0.499808194397309  1.0000
  Cu  Cu14      1.0  0.620373615  0.267772355  0.5458802442563483  1.0000
  Cu  Cu15      1.0  0.620383905  0.7885984950000001  0.5222061706992308  1.0000
  Cu  Cu16      1.0  0.371656695  0.189444725  0.5055713158391405  1.0000
  Cu  Cu17      1.0  0.371656695  0.722778055  0.4824000902909913  1.0000
  Cu  Cu18      1.0  0.3641837150000001  0.6592574850000001  0.5288556818417391  1.0000
  Cu  Cu19      1.0  0.371656695  0.256111395  0.4592288647428421  1.0000
  Cu  Cu20      1.0  0.371656695  0.7894447250000001  0.43605764267037656  1.0000
  Cu  Cu21      1.0  0.36909447500000003  0.989444725  0.47081447925475856  1.0000
  Cu  Cu22      1.0  0.36909447500000003  0.5227780549999999  0.44764325370660935  1.0000
  Cu  Cu23      1.0  0.36909447500000003  0.4561113950000001  0.4939857013272241  1.0000
  Cu  Cu24      1.0  0.361113985  0.387042275  0.5388003079252625  1.0000
  Cu  Cu25      1.0  0.373518575  0.920807665  0.5169733343131673  1.0000
  Cu  Cu26      1.0  0.12037558500000002  0.15559894500000002  0.44176139248395463  1.0000
  Cu  Cu27      1.0  0.12036383500000003  0.010555275000000015  0.5333653779128791  1.0000
  Cu  Cu28      1.0  0.12037558500000002  0.6222656150000001  0.4649326180321038  1.0000
  Cu  Cu29      1.0  0.12037558500000002  0.5555989449999998  0.5112750656527185  1.0000
  Cu  Cu30      1.0  0.12037558500000002  0.08893228500000001  0.488103843580253  1.0000
  Cu  Cu31      1.0  0.12037558500000002  0.122094795  0.465051357812927  1.0000
  Cu  Cu32      1.0  0.12037558500000002  0.655428135  0.4418801322647779  1.0000
  Cu  Cu33      1.0  0.12037558500000002  0.5887614649999999  0.4882225833610762  1.0000
  Cu  Cu34      1.0  0.12037714500000003  0.5211178750000002  0.533604206039785  1.0000
  Cu  Cu35      1.0  0.12037558500000002  0.05542813500000002  0.5113938054335417  1.0000
  Cu  Cu36      1.0  0.8716566950000001  0.989444725  0.47081447925475856  1.0000
  Cu  Cu37      1.0  0.8716566950000001  0.5227780549999999  0.44764325370660935  1.0000
  Cu  Cu38      1.0  0.8716566950000001  0.4561113950000001  0.4939857013272241  1.0000
  Cu  Cu39      1.0  0.8796361649999999  0.387043605  0.5388009752565249  1.0000
  Cu  Cu40      1.0  0.8672436350000001  0.920806225  0.516972034407479  1.0000
  In  In1       1.0  0.12037558500000002  0.897479135  0.4910744582678653  1.0000
  In  In2       1.0  0.12037558500000002  0.4308124650000001  0.46790323271971607  1.0000
  In  In3       1.0  0.12037558500000002  0.364145795  0.5142456803403308  1.0000
  In  In4       1.0  0.12037558500000002  0.964145795  0.44473200717156686  1.0000
  In  In5       1.0  0.12036843500000002  0.8249431250000001  0.5403858001126813  1.0000
  In  In6       1.0  0.620375585  0.16414579500000004  0.4794888437559488  1.0000
  In  In7       1.0  0.620375585  0.697479135  0.4563176216834833  1.0000
  In  In8       1.0  0.620375585  0.6308124650000001  0.502660069304098  1.0000
  In  In9       1.0  0.620375585  0.23081246500000002  0.43314639613533407  1.0000
  In  In10      1.0  0.620376755  0.09687261500000001  0.5259129803695879  1.0000
