data_image0
_chemical_formula_structural       COCu48Ga16
_chemical_formula_sum              "C1 O1 Cu48 Ga16"
_cell_length_a       10.10483815360437
_cell_length_b       6.82954727964767
_cell_length_c       108.81303196
_cell_angle_alpha    90.77112575896808
_cell_angle_beta     95.16233696592104
_cell_angle_gamma    70.62061415239044

_space_group_name_H-M_alt    "P 1"
_space_group_IT_number       1

loop_
  _space_group_symop_operation_xyz
  'x, y, z'

loop_
  _atom_site_type_symbol
  _atom_site_label
  _atom_site_symmetry_multiplicity
  _atom_site_fract_x
  _atom_site_fract_y
  _atom_site_fract_z
  _atom_site_occupancy
  C   C1        1.0  0.19275214500000004  0.15966764499999977  0.5602047116345997  1.0000
  O   O1        1.0  0.24609287500000007  0.1611478549999998  0.5700895136768581  1.0000
  Cu  Cu1       1.0  0.566191675  0.6028499349999998  0.4372829163689089  1.0000
  Cu  Cu2       1.0  0.2745250050000001  0.3528499349999997  0.4521451932223004  1.0000
  Cu  Cu3       1.0  0.9828583449999999  0.10284993499999978  0.46700747364263895  1.0000
  Cu  Cu4       1.0  0.691191675  0.8528499349999996  0.4818697540629774  1.0000
  Cu  Cu5       1.0  0.629185455  0.7288374849999997  0.4597524603587288  1.0000
  Cu  Cu6       1.0  0.33751878500000004  0.4788374849999997  0.47461474077906723  1.0000
  Cu  Cu7       1.0  0.2125187850000001  0.22883748499999979  0.43002790308499883  1.0000
  Cu  Cu8       1.0  0.9208521150000002  0.9788374849999996  0.44489018350533727  1.0000
  Cu  Cu9       1.0  0.4192061950000001  0.9808125849999998  0.44477276317653325  1.0000
  Cu  Cu10      1.0  0.12753953500000004  0.7308125849999998  0.4596350435968717  1.0000
  Cu  Cu11      1.0  0.8358728650000001  0.4808125849999996  0.4744973240172103  1.0000
  Cu  Cu12      1.0  0.710872865  0.23081258499999974  0.4299104863231418  1.0000
  Cu  Cu13      1.0  0.6004749850000001  0.3971500749999998  0.4696410790342939  1.0000
  Cu  Cu14      1.0  0.3088083150000001  0.1471500749999997  0.4845033558876854  1.0000
  Cu  Cu15      1.0  0.18380831500000006  0.8971500749999998  0.439916518193617  1.0000
  Cu  Cu16      1.0  0.892141655  0.6471500749999998  0.4547787986139555  1.0000
  Cu  Cu17      1.0  0.5374812050000001  0.27116251499999977  0.44717153147752703  1.0000
  Cu  Cu18      1.0  0.24581454500000008  0.021162514999999816  0.4620338118978656  1.0000
  Cu  Cu19      1.0  0.9541478750000002  0.7711625149999995  0.476896088751257  1.0000
  Cu  Cu20      1.0  0.8291478750000001  0.5211625149999998  0.4323092510571886  1.0000
  Cu  Cu21      1.0  0.7474604650000001  0.019187414999999743  0.4621512286597227  1.0000
  Cu  Cu22      1.0  0.45579379500000006  0.7691874149999997  0.4770135090800611  1.0000
  Cu  Cu23      1.0  0.3307937950000001  0.5191874149999999  0.4324266713859927  1.0000
  Cu  Cu24      1.0  0.03912713500000005  0.2691874149999998  0.44728894823938414  1.0000
  Cu  Cu25      1.0  0.39952500500000004  0.6028499349999996  0.49673203091636886  1.0000
  Cu  Cu26      1.0  0.10785834500000005  0.3528499349999998  0.5115943113367073  1.0000
  Cu  Cu27      1.0  0.827931995  0.10099263499999973  0.5267647046402469  1.0000
  Cu  Cu28      1.0  0.5386100450000001  0.8394082149999997  0.5397700324443028  1.0000
  Cu  Cu29      1.0  0.46196707500000006  0.7257443549999999  0.5191528183074334  1.0000
  Cu  Cu30      1.0  0.17314641500000005  0.4700585849999998  0.5337825480501478  1.0000
  Cu  Cu31      1.0  0.04585211500000005  0.22883748499999984  0.4894770211994058  1.0000
  Cu  Cu32      1.0  0.754185455  0.9788374849999998  0.5043392980527972  1.0000
  Cu  Cu33      1.0  0.25253953500000004  0.9808125849999997  0.5042218812909401  1.0000
  Cu  Cu34      1.0  0.9624844250000001  0.7267798449999998  0.5187867746377531  1.0000
  Cu  Cu35      1.0  0.674773095  0.47358375499999966  0.5340002352595583  1.0000
  Cu  Cu36      1.0  0.544206195  0.23081258499999982  0.4893596008706016  1.0000
  Cu  Cu37      1.0  0.437437345  0.3978632849999998  0.5298557067815968  1.0000
  Cu  Cu38      1.0  0.14666092500000005  0.12372291499999981  0.5434101803464809  1.0000
  Cu  Cu39      1.0  0.01714165500000005  0.8971500749999997  0.4993656363080239  1.0000
  Cu  Cu40      1.0  0.7254749850000001  0.6471500749999998  0.5142279167283624  1.0000
  Cu  Cu41      1.0  0.3708145450000001  0.27116251499999977  0.5066206495919341  1.0000
  Cu  Cu42      1.0  0.08352884500000006  0.027929124999999815  0.5215235753735143  1.0000
  Cu  Cu43      1.0  0.7954515350000001  0.7718888549999998  0.5360479589030721  1.0000
  Cu  Cu44      1.0  0.6624812050000001  0.5211625149999998  0.49175836917159554  1.0000
  Cu  Cu45      1.0  0.5810922350000001  0.02252473499999979  0.520821147198588  1.0000
  Cu  Cu46      1.0  0.2920061850000001  0.7600532049999996  0.5361017841335364  1.0000
  Cu  Cu47      1.0  0.16412713500000004  0.5191874149999997  0.49187578593345255  1.0000
  Cu  Cu48      1.0  0.8724604650000002  0.26918741499999976  0.506738066353791  1.0000
  Ga  Ga1       1.0  0.3923611050000001  0.6458333349999996  0.4547005183947527  1.0000
  Ga  Ga2       1.0  0.10069444500000006  0.3958333349999998  0.4695627988150912  1.0000
  Ga  Ga3       1.0  0.809027775  0.1458333349999997  0.48442507923542966  1.0000
  Ga  Ga4       1.0  0.684027775  0.8958333349999997  0.4398382415413612  1.0000
  Ga  Ga5       1.0  0.7743055550000001  0.3541666649999997  0.45222347344150315  1.0000
  Ga  Ga6       1.0  0.482638885  0.10416666499999978  0.4670857538618416  1.0000
  Ga  Ga7       1.0  0.19097221500000006  0.8541666649999998  0.4819480307152331  1.0000
  Ga  Ga8       1.0  0.06597221500000006  0.6041666649999999  0.43736119302116466  1.0000
  Ga  Ga9       1.0  0.22569444500000008  0.6458333349999996  0.5141496365091597  1.0000
  Ga  Ga10      1.0  0.9349389050000001  0.3973854449999998  0.5301990789360463  1.0000
  Ga  Ga11      1.0  0.647034945  0.14051033499999974  0.5431283736975193  1.0000
  Ga  Ga12      1.0  0.5173611050000001  0.8958333349999996  0.4992873560888211  1.0000
  Ga  Ga13      1.0  0.6076388850000001  0.3541666649999999  0.5116725915559102  1.0000
  Ga  Ga14      1.0  0.3250782250000001  0.10436911499999982  0.5281650844715952  1.0000
  Ga  Ga15      1.0  0.03411550500000005  0.8303090949999997  0.5412158694484169  1.0000
  Ga  Ga16      1.0  0.899305555  0.6041666649999999  0.49681031113557156  1.0000
