data_image0
_chemical_formula_structural       COAl8Ca12Si8
_chemical_formula_sum              "C1 O1 Al8 Ca12 Si8"
_cell_length_a       6.157196630310117
_cell_length_b       9.851046388503848
_cell_length_c       106.82179922
_cell_angle_alpha    88.85642609635471
_cell_angle_beta     86.33848877511323
_cell_angle_gamma    71.78914727294372

_space_group_name_H-M_alt    "P 1"
_space_group_IT_number       1

loop_
  _space_group_symop_operation_xyz
  'x, y, z'

loop_
  _atom_site_type_symbol
  _atom_site_label
  _atom_site_symmetry_multiplicity
  _atom_site_fract_x
  _atom_site_fract_y
  _atom_site_fract_z
  _atom_site_occupancy
  C   C1        1.0  0.42909887500000005  0.06858160000000002  0.5529314531025251  1.0000
  O   O1        1.0  0.2526821950000001  0.06858222000000003  0.5596045455184273  1.0000
  Al  Al1       1.0  0.636379135  0.92891024  0.5400435682011696  1.0000
  Al  Al2       1.0  0.2133313049999999  0.9314184000000001  0.5122085872326425  1.0000
  Al  Al3       1.0  0.4967566950000001  0.20845365000000002  0.5400295422343613  1.0000
  Al  Al4       1.0  0.07608352500000011  0.20591396000000003  0.5122085872326425  1.0000
  Al  Al5       1.0  0.7966646349999998  0.9314184000000001  0.4834833348216206  1.0000
  Al  Al6       1.0  0.37999797500000004  0.9314184000000001  0.45475807896356824  1.0000
  Al  Al7       1.0  0.6594168550000001  0.20591396000000003  0.48348333482162054  1.0000
  Al  Al8       1.0  0.24275019500000006  0.20591396000000003  0.45475807896356824  1.0000
  Ca  Ca1       1.0  0.06767105500000008  0.06876380000000001  0.5408643095929172  1.0000
  Ca  Ca2       1.0  0.6447074150000002  0.06866618000000002  0.5122085872326425  1.0000
  Ca  Ca3       1.0  0.663568785  0.44615708000000004  0.5264138926929711  1.0000
  Ca  Ca4       1.0  0.24981919500000002  0.44177595000000003  0.4978459593036163  1.0000
  Ca  Ca5       1.0  0.622928965  0.69555641  0.4978459593036163  1.0000
  Ca  Ca6       1.0  0.04124834500000008  0.69103554  0.5264063747196093  1.0000
  Ca  Ca7       1.0  0.2280407450000001  0.06866618000000002  0.4834833348216206  1.0000
  Ca  Ca8       1.0  0.8113740850000001  0.06866618000000002  0.45475807896356824  1.0000
  Ca  Ca9       1.0  0.8331525250000001  0.44177595000000003  0.4691207068925944  1.0000
  Ca  Ca10      1.0  0.41648586500000007  0.44177595000000003  0.4403954544815725  1.0000
  Ca  Ca11      1.0  0.7895956350000001  0.69555641  0.4403954544815725  1.0000
  Ca  Ca12      1.0  0.20626229500000004  0.69555641  0.4691207068925944  1.0000
  Si  Si1       1.0  0.49032535500000013  0.77450492  0.526527299994026  1.0000
  Si  Si2       1.0  0.08066317500000005  0.780088  0.49784595930361636  1.0000
  Si  Si3       1.0  0.7920849949999998  0.35724436  0.49784595930361636  1.0000
  Si  Si4       1.0  0.19642769500000004  0.36268163  0.5265347903911444  1.0000
  Si  Si5       1.0  0.6639965050000001  0.780088  0.4691207068925944  1.0000
  Si  Si6       1.0  0.24732983500000003  0.780088  0.4403954544815725  1.0000
  Si  Si7       1.0  0.9587516549999999  0.35724436  0.4403954544815726  1.0000
  Si  Si8       1.0  0.3754183250000001  0.35724436  0.4691207068925944  1.0000
