data_image0
_chemical_formula_structural       COCa4Se4Ca4Se4Ca4Se4Ca4Se4
_chemical_formula_sum              "C1 O1 Ca16 Se16"
_cell_length_a       8.542042
_cell_length_b       8.542042
_cell_length_c       106.24081497
_cell_angle_alpha    90.0
_cell_angle_beta     90.0
_cell_angle_gamma    90.0

_space_group_name_H-M_alt    "P 1"
_space_group_IT_number       1

loop_
  _space_group_symop_operation_xyz
  'x, y, z'

loop_
  _atom_site_type_symbol
  _atom_site_label
  _atom_site_symmetry_multiplicity
  _atom_site_fract_x
  _atom_site_fract_y
  _atom_site_fract_z
  _atom_site_occupancy
  C   C1        1.0  0.44719982999999996  0.302989775  0.5499555317874849  1.0000
  O   O1        1.0  0.49158070999999987  0.258608855  0.5595160883537256  1.0000
  Ca  Ca1       1.0  0.12334138999999997  0.12684823500000003  0.49733716480365686  1.0000
  Ca  Ca2       1.0  0.37453615999999995  0.37565345499999997  0.5252818082732931  1.0000
  Ca  Ca3       1.0  0.12334138999999997  0.12684823500000003  0.4404839116462744  1.0000
  Ca  Ca4       1.0  0.37334138999999994  0.37684823500000003  0.4689105365193681  1.0000
  Se  Se1       1.0  0.12525447999999997  0.12389218500000002  0.5262171716203118  1.0000
  Se  Se2       1.0  0.37334138999999994  0.37684823500000003  0.49733716480365686  1.0000
  Se  Se3       1.0  0.12334138999999997  0.12684823500000003  0.4689105365193681  1.0000
  Se  Se4       1.0  0.37334138999999994  0.37684823500000003  0.4404839116462744  1.0000
  Ca  Ca5       1.0  0.12334138999999997  0.626848235  0.49733716480365686  1.0000
  Ca  Ca6       1.0  0.37445198999999996  0.8741856249999999  0.5247384765255805  1.0000
  Ca  Ca7       1.0  0.12334138999999997  0.626848235  0.4404839116462744  1.0000
  Ca  Ca8       1.0  0.37334138999999994  0.8768482349999999  0.4689105365193681  1.0000
  Se  Se5       1.0  0.12467372999999997  0.625515815  0.5262357865120884  1.0000
  Se  Se6       1.0  0.37334138999999994  0.8768482349999999  0.49733716480365686  1.0000
  Se  Se7       1.0  0.12334138999999997  0.626848235  0.4689105365193681  1.0000
  Se  Se8       1.0  0.37334138999999994  0.8768482349999999  0.4404839116462744  1.0000
  Ca  Ca9       1.0  0.62334139  0.12684823500000003  0.49733716480365686  1.0000
  Ca  Ca10      1.0  0.876004  0.37573760500000003  0.5247384799367755  1.0000
  Ca  Ca11      1.0  0.62334139  0.12684823500000003  0.4404839116462744  1.0000
  Ca  Ca12      1.0  0.8733413899999998  0.37684823500000003  0.4689105365193681  1.0000
  Se  Se9       1.0  0.62703792  0.12315176500000002  0.525928451476447  1.0000
  Se  Se10      1.0  0.8733413899999998  0.37684823500000003  0.49733716480365686  1.0000
  Se  Se11      1.0  0.62334139  0.12684823500000003  0.4689105365193681  1.0000
  Se  Se12      1.0  0.8733413899999998  0.37684823500000003  0.4404839116462744  1.0000
  Ca  Ca13      1.0  0.62334139  0.626848235  0.49733716480365686  1.0000
  Ca  Ca14      1.0  0.87665861  0.8735310149999999  0.5248273211025126  1.0000
  Ca  Ca15      1.0  0.62334139  0.626848235  0.4404839116462744  1.0000
  Ca  Ca16      1.0  0.8733413899999998  0.8768482349999999  0.4689105365193681  1.0000
  Se  Se13      1.0  0.6262974999999998  0.624935045  0.526217175031507  1.0000
  Se  Se14      1.0  0.8733413899999998  0.8768482349999999  0.49733716480365686  1.0000
  Se  Se15      1.0  0.62334139  0.626848235  0.4689105365193681  1.0000
  Se  Se16      1.0  0.8733413899999998  0.8768482349999999  0.4404839116462744  1.0000
