data_image0
_chemical_formula_structural       COCa6Cu12Si12Ca6Cu12Si12
_chemical_formula_sum              "C1 O1 Ca12 Cu24 Si24"
_cell_length_a       8.18826152
_cell_length_b       12.976999913414275
_cell_length_c       113.47262253
_cell_angle_alpha    61.25262795638027
_cell_angle_beta     90.0
_cell_angle_gamma    90.0

_space_group_name_H-M_alt    "P 1"
_space_group_IT_number       1

loop_
  _space_group_symop_operation_xyz
  'x, y, z'

loop_
  _atom_site_type_symbol
  _atom_site_label
  _atom_site_symmetry_multiplicity
  _atom_site_fract_x
  _atom_site_fract_y
  _atom_site_fract_z
  _atom_site_occupancy
  C   C1        1.0  0.6235677800000001  0.462479015  0.5431473870449351  1.0000
  O   O1        1.0  0.6235664900000001  0.436543815  0.5546929192756134  1.0000
  Ca  Ca1       1.0  0.12356954000000003  0.708333335  0.4696445856933228  1.0000
  Ca  Ca2       1.0  0.12357009000000005  0.04474870499999998  0.5329556813663594  1.0000
  Ca  Ca3       1.0  0.12356954000000003  0.374999995  0.5015705141967058  1.0000
  Ca  Ca4       1.0  0.37122593000000004  0.705123085  0.5177967447419235  1.0000
  Ca  Ca5       1.0  0.37356954000000003  0.04166666499999997  0.48560754994501437  1.0000
  Ca  Ca6       1.0  0.37356954000000003  0.374999995  0.4536816252727424  1.0000
  Cu  Cu1       1.0  0.37356954000000003  0.791666665  0.4856075499450143  1.0000
  Cu  Cu2       1.0  0.37356954000000003  0.12499999499999997  0.4536816252727424  1.0000
  Cu  Cu3       1.0  0.37071385000000007  0.45005165499999994  0.5183619140845597  1.0000
  Cu  Cu4       1.0  0.12356954000000003  0.624999995  0.5015705141967058  1.0000
  Cu  Cu5       1.0  0.12356954000000003  0.9583333350000001  0.46964458569332285  1.0000
  Cu  Cu6       1.0  0.12357338000000004  0.306764665  0.5303437753911131  1.0000
  Cu  Cu7       1.0  0.12356947000000004  0.8201786849999999  0.5314526675163697  1.0000
  Cu  Cu8       1.0  0.12356954000000003  0.12499999499999997  0.5015705141967058  1.0000
  Cu  Cu9       1.0  0.12356954000000003  0.45833333499999995  0.4696445856933228  1.0000
  Cu  Cu10      1.0  0.3739989600000001  0.9548103549999999  0.5177186781907552  1.0000
  Cu  Cu11      1.0  0.37356954000000003  0.291666665  0.48560754994501437  1.0000
  Cu  Cu12      1.0  0.37356954000000003  0.624999995  0.4536816252727424  1.0000
  Si  Si1       1.0  0.37356954000000003  0.5812813849999999  0.49319596964834994  1.0000
  Si  Si2       1.0  0.37356954000000003  0.9146147149999999  0.46127004497607804  1.0000
  Si  Si3       1.0  0.37120156000000004  0.23286206499999995  0.5270307684197978  1.0000
  Si  Si4       1.0  0.12356954000000003  0.835385285  0.4939820944933702  1.0000
  Si  Si5       1.0  0.12356954000000003  0.16871861499999996  0.46205616598998717  1.0000
  Si  Si6       1.0  0.12357559000000004  0.5046648650000001  0.5255349915387022  1.0000
  Si  Si7       1.0  0.12357030000000004  0.919336545  0.5083639591883481  1.0000
  Si  Si8       1.0  0.12356954000000003  0.24794804499999998  0.47723300539665836  1.0000
  Si  Si9       1.0  0.12356954000000003  0.5812813849999999  0.4453070807243865  1.0000
  Si  Si10      1.0  0.37356954000000003  0.835385285  0.4460932055694067  1.0000
  Si  Si11      1.0  0.37261918  0.16620610499999997  0.5104396590209795  1.0000
  Si  Si12      1.0  0.37356954000000003  0.5020519449999999  0.47801913024167864  1.0000
  Ca  Ca7       1.0  0.6235695400000001  0.708333335  0.4696445856933228  1.0000
  Ca  Ca8       1.0  0.6235706400000001  0.046990974999999977  0.5330517426464297  1.0000
  Ca  Ca9       1.0  0.6235695400000001  0.374999995  0.5015705141967058  1.0000
  Ca  Ca10      1.0  0.8759130600000001  0.705123775  0.5177968175330346  1.0000
  Ca  Ca11      1.0  0.8735695400000001  0.04166666499999997  0.48560754994501437  1.0000
  Ca  Ca12      1.0  0.8735695400000001  0.374999995  0.4536816252727424  1.0000
  Cu  Cu13      1.0  0.8735695400000001  0.791666665  0.4856075499450143  1.0000
  Cu  Cu14      1.0  0.8735695400000001  0.12499999499999997  0.4536816252727424  1.0000
  Cu  Cu15      1.0  0.87643053  0.450051505  0.5183629599778937  1.0000
  Cu  Cu16      1.0  0.6235695400000001  0.624999995  0.5015705141967058  1.0000
  Cu  Cu17      1.0  0.6235695400000001  0.9583333350000001  0.46964458569332285  1.0000
  Cu  Cu18      1.0  0.6235723599999999  0.29971797499999997  0.5305174664756848  1.0000
  Cu  Cu19      1.0  0.6235704400000001  0.8246643650000001  0.5314894193652856  1.0000
  Cu  Cu20      1.0  0.6235695400000001  0.12499999499999997  0.5015705141967058  1.0000
  Cu  Cu21      1.0  0.6235695400000001  0.45833333499999995  0.4696445856933228  1.0000
  Cu  Cu22      1.0  0.8731414800000001  0.9548104949999999  0.5177185977374218  1.0000
  Cu  Cu23      1.0  0.8735695400000001  0.291666665  0.48560754994501437  1.0000
  Cu  Cu24      1.0  0.8735695400000001  0.624999995  0.4536816252727424  1.0000
  Si  Si13      1.0  0.8735695400000001  0.5812813849999999  0.49319596964834994  1.0000
  Si  Si14      1.0  0.8735695400000001  0.9146147149999999  0.46127004497607804  1.0000
  Si  Si15      1.0  0.8759424700000001  0.23286322499999995  0.52703074160202  1.0000
  Si  Si16      1.0  0.6235695400000001  0.835385285  0.4939820944933702  1.0000
  Si  Si17      1.0  0.6235695400000001  0.16871861499999996  0.46205616598998717  1.0000
  Si  Si18      1.0  0.62357473  0.499560575  0.5257095561166079  1.0000
  Si  Si19      1.0  0.62357004  0.9187553850000001  0.508309473126086  1.0000
  Si  Si20      1.0  0.6235695400000001  0.24794804499999998  0.47723300539665836  1.0000
  Si  Si21      1.0  0.6235695400000001  0.5812813849999999  0.4453070807243865  1.0000
  Si  Si22      1.0  0.8735695400000001  0.835385285  0.4460932055694067  1.0000
  Si  Si23      1.0  0.8745207800000001  0.16620674499999996  0.5104396781765351  1.0000
  Si  Si24      1.0  0.8735695400000001  0.5020519449999999  0.47801913024167864  1.0000
