data_image0
_chemical_formula_structural       COCa20Cu4Pb12
_chemical_formula_sum              "C1 O1 Ca20 Cu4 Pb12"
_cell_length_a       6.8739836
_cell_length_b       16.91644187
_cell_length_c       109.06684906000001
_cell_angle_alpha    90.0
_cell_angle_beta     90.0
_cell_angle_gamma    90.0

_space_group_name_H-M_alt    "P 1"
_space_group_IT_number       1

loop_
  _space_group_symop_operation_xyz
  'x, y, z'

loop_
  _atom_site_type_symbol
  _atom_site_label
  _atom_site_symmetry_multiplicity
  _atom_site_fract_x
  _atom_site_fract_y
  _atom_site_fract_z
  _atom_site_occupancy
  C   C1        1.0  0.7287743199999998  0.10308631500000005  0.5390630740553143  1.0000
  O   O1        1.0  0.7067273099999998  0.10058570500000007  0.5498914552061391  1.0000
  Ca  Ca1       1.0  0.83374212  0.506701775  0.5062806564969148  1.0000
  Ca  Ca2       1.0  0.83374212  0.006701775000000053  0.4615066837032792  1.0000
  Ca  Ca3       1.0  0.5988898699999999  0.361758365  0.5273274719219913  1.0000
  Ca  Ca4       1.0  0.5837421199999999  0.840035105  0.483484378678078  1.0000
  Ca  Ca5       1.0  0.33374212  0.506701775  0.4606881008592412  1.0000
  Ca  Ca6       1.0  0.33374212  0.006701775000000053  0.5054620736528768  1.0000
  Ca  Ca7       1.0  0.83374212  0.6339870950000002  0.47208623976865954  1.0000
  Ca  Ca8       1.0  0.86024181  0.12155329500000006  0.5174499681680973  1.0000
  Ca  Ca9       1.0  0.09479409999999995  0.676047405  0.5259054039811337  1.0000
  Ca  Ca10      1.0  0.08374211999999995  0.17336844500000004  0.483484378678078  1.0000
  Ca  Ca11      1.0  0.33374212  0.879416455  0.4501085447938608  1.0000
  Ca  Ca12      1.0  0.33374212  0.3794164550000001  0.49488251758749635  1.0000
  Ca  Ca13      1.0  0.83374212  0.3794164550000001  0.47208623976865954  1.0000
  Ca  Ca14      1.0  0.81238358  0.8988624750000002  0.517540827095608  1.0000
  Ca  Ca15      1.0  0.5980443599999999  0.647736225  0.5273174640435925  1.0000
  Ca  Ca16      1.0  0.5837421199999999  0.17336844500000004  0.483484378678078  1.0000
  Ca  Ca17      1.0  0.33374212  0.13398709500000006  0.4501085447938608  1.0000
  Ca  Ca18      1.0  0.33374212  0.6339870950000002  0.49488251758749635  1.0000
  Ca  Ca19      1.0  0.09685672999999995  0.3366139250000001  0.5262996477663763  1.0000
  Ca  Ca20      1.0  0.08374211999999995  0.840035105  0.483484378678078  1.0000
  Cu  Cu1       1.0  0.5837421199999999  0.506701775  0.483484378678078  1.0000
  Cu  Cu2       1.0  0.5258070499999999  0.03907795500000005  0.5287365231734783  1.0000
  Cu  Cu3       1.0  0.08374211999999995  0.506701775  0.483484378678078  1.0000
  Cu  Cu4       1.0  0.17002484999999992  0.993298225  0.5288343990780052  1.0000
  Pb  Pb1       1.0  0.83374212  0.804918685  0.45677966615271437  1.0000
  Pb  Pb2       1.0  0.83374212  0.304918685  0.50155363894635  1.0000
  Pb  Pb3       1.0  0.3045887699999999  0.5051846450000002  0.5194358729573862  1.0000
  Pb  Pb4       1.0  0.33374212  0.006701775000000053  0.47484893000290423  1.0000
  Pb  Pb5       1.0  0.83374212  0.20848486500000007  0.45677966615271437  1.0000
  Pb  Pb6       1.0  0.83374212  0.7084848650000001  0.50155363894635  1.0000
  Pb  Pb7       1.0  0.9162578800000001  0.5062981750000001  0.5374572429843582  1.0000
  Pb  Pb8       1.0  0.83374212  0.006701775000000053  0.49211983093516964  1.0000
  Pb  Pb9       1.0  0.33374212  0.304918685  0.46541511840980604  1.0000
  Pb  Pb10      1.0  0.39310287  0.801019475  0.5121150740894613  1.0000
  Pb  Pb11      1.0  0.33374212  0.7084848650000001  0.46541511840980604  1.0000
  Pb  Pb12      1.0  0.3905231799999999  0.20735443500000006  0.5124738962893474  1.0000
