data_image0
_chemical_formula_structural       COCa12Ge12Au12
_chemical_formula_sum              "C1 O1 Ca12 Ge12 Au12"
_cell_length_a       23.394836626656794
_cell_length_b       4.60802636
_cell_length_c       101.74519096
_cell_angle_alpha    90.0
_cell_angle_beta     70.16985629678861
_cell_angle_gamma    90.0

_space_group_name_H-M_alt    "P 1"
_space_group_IT_number       1

loop_
  _space_group_symop_operation_xyz
  'x, y, z'

loop_
  _atom_site_type_symbol
  _atom_site_label
  _atom_site_symmetry_multiplicity
  _atom_site_fract_x
  _atom_site_fract_y
  _atom_site_fract_z
  _atom_site_occupancy
  C   C1        1.0  0.97499793  0.376851995  0.539748193038358  1.0000
  O   O1        1.0  0.9603967  0.20642726499999997  0.5488080778741509  1.0000
  Ca  Ca1       1.0  0.02500207  0.746836835  0.5203147437160616  1.0000
  Ca  Ca2       1.0  0.03004486  0.268210095  0.487936113739874  1.0000
  Ca  Ca3       1.0  0.52124903  0.26792277499999995  0.519805171098048  1.0000
  Ca  Ca4       1.0  0.5288306800000001  0.768210095  0.4880308202824936  1.0000
  Ca  Ca5       1.0  0.86331006  0.768210095  0.46254354367351785  1.0000
  Ca  Ca6       1.0  0.19556547999999999  0.268210095  0.4691799625284951  1.0000
  Ca  Ca7       1.0  0.69638571  0.269920065  0.5144548411328802  1.0000
  Ca  Ca8       1.0  0.36420981  0.768836265  0.49418714180140133  1.0000
  Ca  Ca9       1.0  0.69648809  0.768210095  0.46902007776635496  1.0000
  Ca  Ca10      1.0  0.36238745  0.268210095  0.462703428435658  1.0000
  Ca  Ca11      1.0  0.86326365  0.27473270499999997  0.4942036968819554  1.0000
  Ca  Ca12      1.0  0.20051051  0.7665505749999999  0.5150903646539864  1.0000
  Ge  Ge1       1.0  0.92027018  0.257091975  0.5186676879247315  1.0000
  Ge  Ge2       1.0  0.4158414800000001  0.264174795  0.5079930992822043  1.0000
  Ge  Ge3       1.0  0.62587561  0.7685047549999999  0.505695331478977  1.0000
  Ge  Ge4       1.0  0.25828392999999994  0.768210095  0.48053158719623185  1.0000
  Ge  Ge5       1.0  0.80059161  0.268210095  0.45119192212584913  1.0000
  Ge  Ge6       1.0  0.29706805  0.267861525  0.5161874835082059  1.0000
  Ge  Ge7       1.0  0.13305588  0.768210095  0.4900585836452775  1.0000
  Ge  Ge8       1.0  0.75354184  0.768326185  0.49423867596376697  1.0000
  Ge  Ge9       1.0  0.46036198  0.768210095  0.4642294661513279  1.0000
  Ge  Ge10      1.0  0.59851356  0.268210095  0.46749404317075305  1.0000
  Ge  Ge11      1.0  0.09851356  0.268210095  0.45345340665886086  1.0000
  Ge  Ge12      1.0  0.9603619800000001  0.768210095  0.47827009954315214  1.0000
  Au  Au1       1.0  0.09699017  0.768210095  0.46715126626539355  1.0000
  Au  Au2       1.0  0.9618853700000001  0.268210095  0.4645722399366194  1.0000
  Au  Au3       1.0  0.46188537  0.268210095  0.4776896701819452  1.0000
  Au  Au4       1.0  0.59699017  0.768210095  0.45403383602006786  1.0000
  Au  Au5       1.0  0.29112647999999997  0.768210095  0.4522783048262452  1.0000
  Au  Au6       1.0  0.269511  0.26774602499999994  0.4926993529987569  1.0000
  Au  Au7       1.0  0.79835756  0.793572735  0.5145056951204324  1.0000
  Au  Au8       1.0  0.43571899000000003  0.771509735  0.5173471004435749  1.0000
  Au  Au9       1.0  0.6219757  0.268286935  0.49130758740740776  1.0000
  Au  Au10      1.0  0.12367080000000001  0.264512065  0.5056404682041064  1.0000
  Au  Au11      1.0  0.93353213  0.759036045  0.5054122539538141  1.0000
  Au  Au12      1.0  0.7677490600000001  0.268210095  0.4794452013757678  1.0000
