data_image0
_chemical_formula_structural       COIr8V8
_chemical_formula_sum              "C1 O1 Ir8 V8"
_cell_length_a       5.26441028
_cell_length_b       5.264410278530605
_cell_length_c       98.49031829
_cell_angle_alpha    90.0
_cell_angle_beta     90.0
_cell_angle_gamma    95.88584018112057

_space_group_name_H-M_alt    "P 1"
_space_group_IT_number       1

loop_
  _space_group_symop_operation_xyz
  'x, y, z'

loop_
  _atom_site_type_symbol
  _atom_site_label
  _atom_site_symmetry_multiplicity
  _atom_site_fract_x
  _atom_site_fract_y
  _atom_site_fract_z
  _atom_site_occupancy
  C   C1        1.0  0.37494946500000004  0.07903454499999998  0.5347959269974496  1.0000
  O   O1        1.0  0.39754962499999996  0.05793307499999999  0.546629923456451  1.0000
  Ir  Ir1       1.0  0.09121563500000004  0.349496795  0.4947757389163174  1.0000
  Ir  Ir2       1.0  0.6585031050000001  0.9420669250000001  0.4949793620256635  1.0000
  Ir  Ir3       1.0  0.9087843650000001  0.683102515  0.5135590335179082  1.0000
  Ir  Ir4       1.0  0.33131343500000004  0.11958714499999998  0.5160516520589166  1.0000
  Ir  Ir5       1.0  0.09463061500000004  0.371163745  0.453370076543549  1.0000
  Ir  Ir6       1.0  0.6556570049999999  0.9321901350000001  0.453370076543549  1.0000
  Ir  Ir7       1.0  0.9036939549999999  0.6841531850000001  0.4740322363337887  1.0000
  Ir  Ir8       1.0  0.34266756500000006  0.123126795  0.4740322363337887  1.0000
  V   V1        1.0  0.589049685  0.433243645  0.49539454581981945  1.0000
  V   V2        1.0  0.17830158500000007  0.8481959950000001  0.4942677167304216  1.0000
  V   V3        1.0  0.424177275  0.611958995  0.5153995212234384  1.0000
  V   V4        1.0  0.8508590050000001  0.19154016499999998  0.5159813275701777  1.0000
  V   V5        1.0  0.592828985  0.43399176500000003  0.453370076543549  1.0000
  V   V6        1.0  0.16687142500000005  0.8599493250000001  0.453370076543549  1.0000
  V   V7        1.0  0.40549558500000005  0.6213251649999999  0.4740322363337887  1.0000
  V   V8        1.0  0.8314531449999999  0.195367605  0.4740322363337887  1.0000
