data_image0
_chemical_formula_structural       COCaZn5CaZn5
_chemical_formula_sum              "C1 O1 Ca2 Zn10"
_cell_length_a       5.47516194
_cell_length_b       5.475161940109388
_cell_length_c       100.20074973999999
_cell_angle_alpha    90.0
_cell_angle_beta     90.0
_cell_angle_gamma    119.9999999993391

_space_group_name_H-M_alt    "P 1"
_space_group_IT_number       1

loop_
  _space_group_symop_operation_xyz
  'x, y, z'

loop_
  _atom_site_type_symbol
  _atom_site_label
  _atom_site_symmetry_multiplicity
  _atom_site_fract_x
  _atom_site_fract_y
  _atom_site_fract_z
  _atom_site_occupancy
  C   C1        1.0  0.39235686000000003  0.166602415  0.5384027102383062  1.0000
  O   O1        1.0  0.48929575999999997  0.16665856499999998  0.5487493162459687  1.0000
  Ca  Ca1       1.0  0.15757444999999998  0.16673091499999998  0.47277942852344207  1.0000
  Zn  Zn1       1.0  0.6575744499999999  0.16673091499999998  0.45125068375403127  1.0000
  Zn  Zn2       1.0  0.6575744499999999  0.6667309149999999  0.45125068375403127  1.0000
  Zn  Zn3       1.0  0.15757444999999995  0.6667309149999999  0.45125068375403127  1.0000
  Zn  Zn4       1.0  0.4909077799999999  0.8333975849999999  0.47277942852344207  1.0000
  Zn  Zn5       1.0  0.82424112  0.500064245  0.47277942852344207  1.0000
  Ca  Ca2       1.0  0.17757161  0.166690345  0.5152491893463529  1.0000
  Zn  Zn6       1.0  0.67003932  0.16691302499999996  0.4949331342512877  1.0000
  Zn  Zn7       1.0  0.6671482200000001  0.665485065  0.49447658491620416  1.0000
  Zn  Zn8       1.0  0.16802414999999996  0.6678101849999999  0.49447628652779574  1.0000
  Zn  Zn9       1.0  0.50093172  0.825182055  0.5171256214301616  1.0000
  Zn  Zn10      1.0  0.8424255500000001  0.5081956649999999  0.5171075674244369  1.0000
