data_image0
_chemical_formula_structural       COSi8As16Si8As16
_chemical_formula_sum              "C1 O1 Si16 As32"
_cell_length_a       15.34733189
_cell_length_b       11.080575493617962
_cell_length_c       99.79112032
_cell_angle_alpha    109.63784250845052
_cell_angle_beta     90.0
_cell_angle_gamma    90.0

_space_group_name_H-M_alt    "P 1"
_space_group_IT_number       1

loop_
  _space_group_symop_operation_xyz
  'x, y, z'

loop_
  _atom_site_type_symbol
  _atom_site_label
  _atom_site_symmetry_multiplicity
  _atom_site_fract_x
  _atom_site_fract_y
  _atom_site_fract_z
  _atom_site_occupancy
  C   C1        1.0  0.24709944  0.73694024  0.533881136294148  1.0000
  O   O1        1.0  0.25600809999999996  0.7004401800000001  0.5434286577519811  1.0000
  Si  Si1       1.0  0.76500318  0.19644952000000002  0.46198019542279944  1.0000
  Si  Si2       1.0  0.23480435999999996  0.79596946  0.4843523919631499  1.0000
  Si  Si3       1.0  0.26500318  0.29596946  0.46569396810710634  1.0000
  Si  Si4       1.0  0.7348043599999999  0.6964495200000002  0.480638619278843  1.0000
  Si  Si5       1.0  0.64728546  0.41322509  0.4887280013317393  1.0000
  Si  Si6       1.0  0.35252207999999996  0.57919389  0.45760458605421006  1.0000
  Si  Si7       1.0  0.14728546  0.07919389000000002  0.4762630099102536  1.0000
  Si  Si8       1.0  0.85252208  0.9132250900000001  0.4700695774756958  1.0000
  As  As1       1.0  0.61575755  0.10505544000000001  0.45856965645765313  1.0000
  As  As2       1.0  0.38404998999999995  0.8873635400000001  0.48776293092829615  1.0000
  As  As3       1.0  0.11575755000000001  0.38736354  0.4691045070722527  1.0000
  As  As4       1.0  0.8840499900000001  0.60505544  0.4772280803136967  1.0000
  As  As5       1.0  0.5460560299999999  0.23396901000000003  0.4820387294929136  1.0000
  As  As6       1.0  0.45375150999999997  0.75844997  0.46429385789303573  1.0000
  As  As7       1.0  0.046056030000000005  0.25844997  0.4829522817490793  1.0000
  As  As8       1.0  0.95375151  0.73396901  0.46338030563687005  1.0000
  As  As9       1.0  0.88971287  0.05150550000000002  0.4565713422480187  1.0000
  As  As10      1.0  0.11009466999999999  0.9409134800000001  0.4897612451379306  1.0000
  As  As11      1.0  0.38971287000000004  0.44091348  0.4711028212818871  1.0000
  As  As12      1.0  0.61009467  0.5515055  0.47522976610406226  1.0000
  As  As13      1.0  0.79560736  0.33915198  0.4859638259931401  1.0000
  As  As14      1.0  0.20420017999999998  0.653267  0.4603687613928092  1.0000
  As  As15      1.0  0.29560736000000004  0.15326700000000004  0.47902718524885274  1.0000
  As  As16      1.0  0.70420018  0.83915198  0.46730540213709654  1.0000
  Si  Si9       1.0  0.76301158  0.19875045  0.4999852732792188  1.0000
  Si  Si10      1.0  0.236734  0.81898076  0.5200160346585918  1.0000
  Si  Si11      1.0  0.27210787999999997  0.27920955000000003  0.5034017172623471  1.0000
  Si  Si12      1.0  0.74104998  0.67438062  0.5142207640330784  1.0000
  Si  Si13      1.0  0.64350001  0.39124771  0.5200713740510748  1.0000
  Si  Si14      1.0  0.35252207999999996  0.57919389  0.49492143376629716  1.0000
  Si  Si15      1.0  0.15658603  0.07511427000000001  0.5155921163916282  1.0000
  Si  Si16      1.0  0.85189315  0.8806621600000002  0.5022720019414505  1.0000
  As  As17      1.0  0.61575755  0.10505544000000001  0.4958865041697402  1.0000
  As  As18      1.0  0.38131677999999997  0.89708947  0.5244750218063612  1.0000
  As  As19      1.0  0.123889  0.36594559000000004  0.5078171123612932  1.0000
  As  As20      1.0  0.8763105099999999  0.6067132700000001  0.5171331320373117  1.0000
  As  As21      1.0  0.51820617  0.26486759000000004  0.5153147178724755  1.0000
  As  As22      1.0  0.45205069999999997  0.76182359  0.5025248638868953  1.0000
  As  As23      1.0  0.057820489999999995  0.24915978000000003  0.521225643857766  1.0000
  As  As24      1.0  0.95394397  0.7232263400000001  0.5030185001044742  1.0000
  As  As25      1.0  0.88971287  0.05150550000000002  0.4938881899601058  1.0000
  As  As26      1.0  0.11654611000000001  0.9484945  0.5294043296052591  1.0000
  As  As27      1.0  0.38003096000000003  0.4480870900000001  0.5110468168677745  1.0000
  As  As28      1.0  0.6053751100000001  0.5667072000000001  0.5131610939280112  1.0000
  As  As29      1.0  0.78575167  0.3418431  0.5234644218633615  1.0000
  As  As30      1.0  0.20421013999999998  0.65328922  0.4978535259635572  1.0000
  As  As31      1.0  0.30717121999999997  0.12258252  0.5147920431766809  1.0000
  As  As32      1.0  0.70532145  0.8429308100000001  0.5058410151101126  1.0000
