data_image0
_chemical_formula_structural       COCa10Al10Si10Ca10Al10Si10
_chemical_formula_sum              "C1 O1 Ca20 Al20 Si20"
_cell_length_a       7.34806948
_cell_length_b       22.373808493668836
_cell_length_c       99.69686923
_cell_angle_alpha    95.44024060194745
_cell_angle_beta     90.0
_cell_angle_gamma    80.54857299406

_space_group_name_H-M_alt    "P 1"
_space_group_IT_number       1

loop_
  _space_group_symop_operation_xyz
  'x, y, z'

loop_
  _atom_site_type_symbol
  _atom_site_label
  _atom_site_symmetry_multiplicity
  _atom_site_fract_x
  _atom_site_fract_y
  _atom_site_fract_z
  _atom_site_occupancy
  C   C1        1.0  0.891334265  0.25003063999999997  0.5413584128228732  1.0000
  O   O1        1.0  0.8996936249999999  0.22442998999999997  0.550987545269404  1.0000
  Ca  Ca1       1.0  0.6590035449999999  0.70186288  0.48516181056513213  1.0000
  Ca  Ca2       1.0  0.159003545  0.70186288  0.4638852657853528  1.0000
  Ca  Ca3       1.0  0.858027225  0.30381549999999996  0.47669273621411407  1.0000
  Ca  Ca4       1.0  0.358027225  0.30381549999999996  0.45541619143433476  1.0000
  Ca  Ca5       1.0  0.959130475  0.10160899999999996  0.47239048090158736  1.0000
  Ca  Ca6       1.0  0.4591304749999999  0.10160899999999996  0.45111393612180806  1.0000
  Ca  Ca7       1.0  0.5579002949999998  0.9040693800000001  0.48946406587765867  1.0000
  Ca  Ca8       1.0  0.057900294999999914  0.9040693800000001  0.46818752109787937  1.0000
  Ca  Ca9       1.0  0.758515385  0.50283919  0.4809272733896231  1.0000
  Ca  Ca10      1.0  0.258515385  0.50283919  0.45965072860984374  1.0000
  Al  Al1       1.0  0.8811642949999998  0.5908747  0.4615238199052658  1.0000
  Al  Al2       1.0  0.38116429500000004  0.5908747  0.4828003646850451  1.0000
  Al  Al3       1.0  0.9691998049999998  0.41480368  0.4577776373144216  1.0000
  Al  Al4       1.0  0.469199805  0.41480368  0.4790541820942009  1.0000
  Al  Al5       1.0  0.746327145  0.19388233999999996  0.45307719316050127  1.0000
  Al  Al6       1.0  0.24632714499999997  0.19388233999999996  0.47435373794028063  1.0000
  Al  Al7       1.0  0.8418487149999999  0.002839189999999954  0.4490124547305959  1.0000
  Al  Al8       1.0  0.34184871499999997  0.002839189999999954  0.4702889995103752  1.0000
  Al  Al9       1.0  0.4373702949999999  0.81179604  0.46622426108046994  1.0000
  Al  Al10      1.0  0.9373702949999997  0.81179604  0.48750080883896557  1.0000
  Si  Si1       1.0  0.644995315  0.39654601  0.45738917696055753  1.0000
  Si  Si2       1.0  0.14499531499999993  0.39654601  0.4786657217403369  1.0000
  Si  Si3       1.0  0.07153500499999994  0.21013328999999997  0.4534229565945091  1.0000
  Si  Si4       1.0  0.5715350050000001  0.21013328999999997  0.47469950137428846  1.0000
  Si  Si5       1.0  0.7788290949999997  0.79554509  0.4658784976464621  1.0000
  Si  Si6       1.0  0.2788290949999999  0.79554509  0.4871550424262414  1.0000
  Si  Si7       1.0  0.5387021249999999  0.60913237  0.4619122802591299  1.0000
  Si  Si8       1.0  0.03870212499999995  0.60913237  0.4831888250389092  1.0000
  Si  Si9       1.0  0.17518205499999995  0.002839189999999954  0.4490124547305959  1.0000
  Si  Si10      1.0  0.675182055  0.002839189999999954  0.4702889995103752  1.0000
  Ca  Ca11      1.0  0.6529977949999999  0.70131208  0.5283285961137528  1.0000
  Ca  Ca12      1.0  0.16198016499999993  0.69966499  0.5070979920759118  1.0000
  Ca  Ca13      1.0  0.8603349049999999  0.30270542  0.5189495477540343  1.0000
  Ca  Ca14      1.0  0.358027225  0.30381549999999996  0.4979692809938935  1.0000
  Ca  Ca15      1.0  0.9223377349999998  0.10121465999999997  0.5165256262776683  1.0000
  Ca  Ca16      1.0  0.4591304749999999  0.10160899999999996  0.49366702568136667  1.0000
  Ca  Ca17      1.0  0.559727315  0.8985648200000002  0.5302081095215796  1.0000
  Ca  Ca18      1.0  0.056040014999999985  0.90557748  0.5118172110788521  1.0000
  Ca  Ca19      1.0  0.8031735550000001  0.50521331  0.5256477931199123  1.0000
  Ca  Ca20      1.0  0.236273195  0.50469229  0.5001173286574728  1.0000
  Al  Al11      1.0  0.8759168949999998  0.59872934  0.5048823692536984  1.0000
  Al  Al12      1.0  0.36975151500000003  0.57012226  0.5261171077498039  1.0000
  Al  Al13      1.0  0.9691998049999998  0.41480368  0.5003307268739803  1.0000
  Al  Al14      1.0  0.4453737849999999  0.43474625  0.522022409391064  1.0000
  Al  Al15      1.0  0.746327145  0.19388233999999996  0.49563028272005993  1.0000
  Al  Al16      1.0  0.24786173499999997  0.18911680999999997  0.5181405403140129  1.0000
  Al  Al17      1.0  0.8418487149999999  0.002839189999999954  0.49156554429015464  1.0000
  Al  Al18      1.0  0.330833385  0.012258479999999954  0.5148114941791296  1.0000
  Al  Al19      1.0  0.44392516499999995  0.7993829199999999  0.5086792912984863  1.0000
  Al  Al20      1.0  0.9536971849999996  0.7948821800000001  0.532221030697622  1.0000
  Si  Si11      1.0  0.644995315  0.39654601  0.49994226652011625  1.0000
  Si  Si12      1.0  0.13902719499999996  0.40122866  0.5212179861954725  1.0000
  Si  Si13      1.0  0.07153500499999994  0.21013328999999997  0.49597604913278415  1.0000
  Si  Si14      1.0  0.5749604749999999  0.20475541  0.5167449312886557  1.0000
  Si  Si15      1.0  0.7858924849999998  0.7993957200000001  0.509253948231344  1.0000
  Si  Si16      1.0  0.2830404449999999  0.80747312  0.5301587968727574  1.0000
  Si  Si17      1.0  0.5310502349999999  0.60450455  0.5060025721247327  1.0000
  Si  Si18      1.0  0.030800195000000013  0.61174689  0.5266690877152506  1.0000
  Si  Si19      1.0  0.17518205499999995  0.002839189999999954  0.49156554429015464  1.0000
  Si  Si20      1.0  0.6755686649999997  0.9971608100000002  0.5128506588368118  1.0000
