data_image0
_chemical_formula_structural       COAl32Ca16
_chemical_formula_sum              "C1 O1 Al32 Ca16"
_cell_length_a       14.00850514
_cell_length_b       5.71894828
_cell_length_c       109.62203592
_cell_angle_alpha    90.0
_cell_angle_beta     90.0
_cell_angle_gamma    90.0

_space_group_name_H-M_alt    "P 1"
_space_group_IT_number       1

loop_
  _space_group_symop_operation_xyz
  'x, y, z'

loop_
  _atom_site_type_symbol
  _atom_site_label
  _atom_site_symmetry_multiplicity
  _atom_site_fract_x
  _atom_site_fract_y
  _atom_site_fract_z
  _atom_site_occupancy
  C   C1        1.0  0.8229667400000001  0.622025495  0.5509752765897586  1.0000
  O   O1        1.0  0.8753063400000001  0.622025575  0.5605792708088568  1.0000
  Al  Al1       1.0  0.4913094  0.8720254550000001  0.5071911521052151  1.0000
  Al  Al2       1.0  0.15797607  0.8720254550000001  0.47707096534821286  1.0000
  Al  Al3       1.0  0.8246427400000002  0.8720254550000001  0.4469507785912106  1.0000
  Al  Al4       1.0  0.8224334000000001  0.8779745550000001  0.5364497870297954  1.0000
  Al  Al5       1.0  0.4913094  0.12202545499999998  0.4846010111338578  1.0000
  Al  Al6       1.0  0.15797607  0.12202545499999998  0.4544808243768555  1.0000
  Al  Al7       1.0  0.15529447  0.12202545499999998  0.5442195268616254  1.0000
  Al  Al8       1.0  0.8246427400000002  0.12202545499999998  0.5147212015052827  1.0000
  Al  Al9       1.0  0.4913094  0.372025455  0.5071911521052151  1.0000
  Al  Al10      1.0  0.15797607  0.372025455  0.47707096534821286  1.0000
  Al  Al11      1.0  0.8246427400000002  0.372025455  0.4469507785912106  1.0000
  Al  Al12      1.0  0.8224334100000001  0.366076325  0.5364497942586405  1.0000
  Al  Al13      1.0  0.32464274000000004  0.622025455  0.5147212015052827  1.0000
  Al  Al14      1.0  0.9913094000000001  0.622025455  0.4846010111338578  1.0000
  Al  Al15      1.0  0.65797607  0.622025455  0.4544808243768555  1.0000
  Al  Al16      1.0  0.6721042700000002  0.622025465  0.54597886872701  1.0000
  Al  Al17      1.0  0.4913094  0.372025455  0.4620108701625005  1.0000
  Al  Al18      1.0  0.50351433  0.379655595  0.551396111036731  1.0000
  Al  Al19      1.0  0.15797607  0.372025455  0.5222512472909276  1.0000
  Al  Al20      1.0  0.8246427400000002  0.372025455  0.49213106053392525  1.0000
  Al  Al21      1.0  0.4869570200000001  0.622025465  0.5292292442475709  1.0000
  Al  Al22      1.0  0.15797607  0.622025455  0.49966110631957017  1.0000
  Al  Al23      1.0  0.8246427400000002  0.622025455  0.46954091956256794  1.0000
  Al  Al24      1.0  0.4913094  0.622025455  0.4394207291911431  1.0000
  Al  Al25      1.0  0.4913094  0.8720254550000001  0.4620108701625005  1.0000
  Al  Al26      1.0  0.5035143400000001  0.8643953150000001  0.5513961146511536  1.0000
  Al  Al27      1.0  0.15797607  0.8720254550000001  0.5222512472909276  1.0000
  Al  Al28      1.0  0.8246427400000002  0.8720254550000001  0.49213106053392525  1.0000
  Al  Al29      1.0  0.32464274000000004  0.12202545499999998  0.46954091956256794  1.0000
  Al  Al30      1.0  0.9913094000000001  0.12202545499999998  0.4394207291911431  1.0000
  Al  Al31      1.0  0.9889314100000002  0.12202544499999998  0.530537574852068  1.0000
  Al  Al32      1.0  0.65797607  0.12202545499999998  0.49966110631957017  1.0000
  Ca  Ca1       1.0  0.6163094  0.622025455  0.4846010111338578  1.0000
  Ca  Ca2       1.0  0.28297607  0.622025455  0.4544808243768555  1.0000
  Ca  Ca3       1.0  0.28531981  0.622025465  0.5461668909883429  1.0000
  Ca  Ca4       1.0  0.9496427400000002  0.622025455  0.5147212015052827  1.0000
  Ca  Ca5       1.0  0.69964274  0.622025455  0.5147212015052827  1.0000
  Ca  Ca6       1.0  0.3663094  0.622025455  0.4846010111338578  1.0000
  Ca  Ca7       1.0  0.03297607000000001  0.622025455  0.4544808243768555  1.0000
  Ca  Ca8       1.0  0.008690600000000012  0.622025505  0.5478783092250652  1.0000
  Ca  Ca9       1.0  0.28297607  0.12202545499999998  0.49966110631957017  1.0000
  Ca  Ca10      1.0  0.9496427400000002  0.12202545499999998  0.46954091956256794  1.0000
  Ca  Ca11      1.0  0.6163094  0.12202545499999998  0.4394207291911431  1.0000
  Ca  Ca12      1.0  0.6216532200000001  0.12202545499999998  0.5304317409452228  1.0000
  Ca  Ca13      1.0  0.3663094  0.12202545499999998  0.4394207291911431  1.0000
  Ca  Ca14      1.0  0.36740524  0.12202545499999998  0.5299561190811555  1.0000
  Ca  Ca15      1.0  0.03297607000000001  0.12202545499999998  0.49966110631957017  1.0000
  Ca  Ca16      1.0  0.69964274  0.12202545499999998  0.46954091956256794  1.0000
