data_image0
_chemical_formula_structural       CONa10
_chemical_formula_sum              "C1 O1 Na10"
_cell_length_a       6.641829813838051
_cell_length_b       7.278446700000086
_cell_length_c       106.3064854
_cell_angle_alpha    75.79258748500078
_cell_angle_beta     68.53851725576767
_cell_angle_gamma    90.00000000919752

_space_group_name_H-M_alt    "P 1"
_space_group_IT_number       1

loop_
  _space_group_symop_operation_xyz
  'x, y, z'

loop_
  _atom_site_type_symbol
  _atom_site_label
  _atom_site_symmetry_multiplicity
  _atom_site_fract_x
  _atom_site_fract_y
  _atom_site_fract_z
  _atom_site_occupancy
  C   C1        1.0  0.7905920449999999  0.17928738500000002  0.5311309392448504  1.0000
  O   O1        1.0  0.7091612950000001  0.17302586500000003  0.5431020726372742  1.0000
  Na  Na1       1.0  0.40367887500000005  0.856645435  0.52298194881814  1.0000
  Na  Na2       1.0  0.5824343449999999  0.23939589500000003  0.49105058066829743  1.0000
  Na  Na3       1.0  0.9842323150000001  0.060604105000000005  0.5079272406640628  1.0000
  Na  Na4       1.0  0.7824343450000001  0.639395895  0.45689792736272594  1.0000
  Na  Na5       1.0  0.18243434500000003  0.43939589500000004  0.47397425401551163  1.0000
  Na  Na6       1.0  0.415767685  0.739395895  0.4910505806682974  1.0000
  Na  Na7       1.0  0.615767685  0.139395895  0.45689792736272583  1.0000
  Na  Na8       1.0  0.01576768500000005  0.9393958950000001  0.47397425401551174  1.0000
  Na  Na9       1.0  0.834270815  0.5485143450000001  0.5072999418044728  1.0000
  Na  Na10      1.0  0.25461922500000006  0.353430985  0.5227650487322616  1.0000
