data_image0
_chemical_formula_structural       CONa12
_chemical_formula_sum              "C1 O1 Na12"
_cell_length_a       7.669324471733026
_cell_length_b       6.18636823
_cell_length_c       108.3466223
_cell_angle_alpha    90.0
_cell_angle_beta     120.00000003565755
_cell_angle_gamma    90.0

_space_group_name_H-M_alt    "P 1"
_space_group_IT_number       1

loop_
  _space_group_symop_operation_xyz
  'x, y, z'

loop_
  _atom_site_type_symbol
  _atom_site_label
  _atom_site_symmetry_multiplicity
  _atom_site_fract_x
  _atom_site_fract_y
  _atom_site_fract_z
  _atom_site_occupancy
  C   C1        1.0  0.23187881999999999  0.25000002499999996  0.5401917443449868  1.0000
  O   O1        1.0  0.3174963499999999  0.24999998499999998  0.5527260090637152  1.0000
  Na  Na1       1.0  0.34022576  0.25000001499999996  0.44727399093628495  1.0000
  Na  Na2       1.0  0.1735591  0.7500000149999999  0.4590715068333494  1.0000
  Na  Na3       1.0  0.34022576  0.25000001499999996  0.48266653154897  1.0000
  Na  Na4       1.0  0.1735591  0.7500000149999999  0.49446404744603445  1.0000
  Na  Na5       1.0  0.33065171  0.25000002499999996  0.5182671484471711  1.0000
  Na  Na6       1.0  0.15977423999999998  0.749999995  0.5288296310217938  1.0000
  Na  Na7       1.0  0.84022576  0.25000001499999996  0.44727399093628495  1.0000
  Na  Na8       1.0  0.6735591  0.7500000149999999  0.4590715068333494  1.0000
  Na  Na9       1.0  0.84022576  0.25000001499999996  0.48266653154897  1.0000
  Na  Na10      1.0  0.6735591  0.7500000149999999  0.49446404744603445  1.0000
  Na  Na11      1.0  0.8276430899999999  0.25000002499999996  0.5177963922644818  1.0000
  Na  Na12      1.0  0.6566197800000001  0.749999995  0.5284638774285941  1.0000
