data_image0
_chemical_formula_structural       COCa18Zn6
_chemical_formula_sum              "C1 O1 Ca18 Zn6"
_cell_length_a       7.0305841670593345
_cell_length_b       13.231146431846033
_cell_length_c       107.93301550999999
_cell_angle_alpha    84.72050384765254
_cell_angle_beta     85.80817287056036
_cell_angle_gamma    79.3253339369241

_space_group_name_H-M_alt    "P 1"
_space_group_IT_number       1

loop_
  _space_group_symop_operation_xyz
  'x, y, z'

loop_
  _atom_site_type_symbol
  _atom_site_label
  _atom_site_symmetry_multiplicity
  _atom_site_fract_x
  _atom_site_fract_y
  _atom_site_fract_z
  _atom_site_occupancy
  C   C1        1.0  0.9273867100000002  0.26411317000000006  0.5330068991185006  1.0000
  O   O1        1.0  0.009944430000000065  0.26525717000000004  0.5428077601544711  1.0000
  Ca  Ca1       1.0  0.5532932  0.5719248  0.4628986075653628  1.0000
  Ca  Ca2       1.0  0.7153063700000001  0.9048561900000001  0.5212443061419957  1.0000
  Ca  Ca3       1.0  0.6366265400000001  0.7385914700000001  0.4921860768701301  1.0000
  Ca  Ca4       1.0  0.37423036000000004  0.26140853000000003  0.4961955967011224  1.0000
  Ca  Ca5       1.0  0.2908970300000001  0.09474186000000002  0.4669081309108512  1.0000
  Ca  Ca6       1.0  0.48653687999999995  0.42255861000000006  0.5242111980066424  1.0000
  Ca  Ca7       1.0  0.1395416100000001  0.39740497  0.4655188049396041  1.0000
  Ca  Ca8       1.0  0.3045681100000001  0.73458236  0.5232586219722121  1.0000
  Ca  Ca9       1.0  0.22287494000000005  0.5640716400000001  0.4948062707298755  1.0000
  Ca  Ca10      1.0  0.78798196  0.43592836  0.49357540284137713  1.0000
  Ca  Ca11      1.0  0.70464863  0.26926169000000005  0.4642879370511058  1.0000
  Ca  Ca12      1.0  0.87053989  0.60088479  0.5214529758296023  1.0000
  Ca  Ca13      1.0  0.8351777399999999  0.18491541000000006  0.5154518332692942  1.0000
  Ca  Ca14      1.0  0.7677921700000001  0.016687530000000023  0.4864797091502962  1.0000
  Ca  Ca15      1.0  0.6844588300000001  0.8500208700000002  0.45719223984552887  1.0000
  Ca  Ca16      1.0  0.2835826600000001  0.16527216000000003  0.5322793070622734  1.0000
  Ca  Ca17      1.0  0.2430647300000001  0.98331247  0.5019019644209565  1.0000
  Ca  Ca18      1.0  0.15973140000000005  0.8166458000000001  0.47261449863068505  1.0000
  Zn  Zn1       1.0  0.10884820000000008  0.9666121100000001  0.5288699401467682  1.0000
  Zn  Zn2       1.0  0.02080133  0.7921414900000001  0.5015961400049468  1.0000
  Zn  Zn3       1.0  0.9374680000000002  0.62547482  0.4723086742146755  1.0000
  Zn  Zn4       1.0  0.06143124000000009  0.36919038  0.5159859277172997  1.0000
  Zn  Zn5       1.0  0.9900555700000001  0.20785851000000005  0.4867855335663057  1.0000
  Zn  Zn6       1.0  0.9067222300000001  0.04119185000000002  0.45749806426153844  1.0000
