data_image0
_chemical_formula_structural       COCa8Zn8Ca8Zn8Ca8Zn8Ca8Zn8
_chemical_formula_sum              "C1 O1 Ca32 Zn32"
_cell_length_a       8.76319336
_cell_length_b       23.621350522159634
_cell_length_c       100.82315894
_cell_angle_alpha    79.25652088288288
_cell_angle_beta     90.0
_cell_angle_gamma    90.0

_space_group_name_H-M_alt    "P 1"
_space_group_IT_number       1

loop_
  _space_group_symop_operation_xyz
  'x, y, z'

loop_
  _atom_site_type_symbol
  _atom_site_label
  _atom_site_symmetry_multiplicity
  _atom_site_fract_x
  _atom_site_fract_y
  _atom_site_fract_z
  _atom_site_occupancy
  C   C1        1.0  0.25335507499999993  0.25817981000000007  0.5449786122369786  1.0000
  O   O1        1.0  0.253355805  0.2885813300000001  0.5529288365359986  1.0000
  Ca  Ca1       1.0  0.0033554249999999545  0.42709696  0.47527582730924356  1.0000
  Ca  Ca2       1.0  0.0033554249999999545  0.92709696  0.45343903714006106  1.0000
  Ca  Ca3       1.0  0.25335542499999997  0.32290304000000003  0.457989560077168  1.0000
  Ca  Ca4       1.0  0.25335542499999997  0.82290304  0.47982635024635056  1.0000
  Ca  Ca5       1.0  0.25335542499999997  0.17709696000000003  0.4861942239224101  1.0000
  Ca  Ca6       1.0  0.25335542499999997  0.67709696  0.46435743069607693  1.0000
  Ca  Ca7       1.0  0.0033554249999999545  0.07290304000000003  0.468907953633184  1.0000
  Ca  Ca8       1.0  0.0033554249999999545  0.57290304  0.4470711634640015  1.0000
  Zn  Zn1       1.0  0.0033554249999999545  0.28254080000000004  0.4815891125026748  1.0000
  Zn  Zn2       1.0  0.0033554249999999545  0.78254081  0.4597523223334922  1.0000
  Zn  Zn3       1.0  0.25335542499999997  0.4674592  0.4516762748837368  1.0000
  Zn  Zn4       1.0  0.25335542499999997  0.9674592  0.47351306505291924  1.0000
  Zn  Zn5       1.0  0.25335542499999997  0.03254080000000002  0.4488339257203257  1.0000
  Zn  Zn6       1.0  0.25335542499999997  0.53254081  0.4706707189466588  1.0000
  Zn  Zn7       1.0  0.0033554249999999545  0.21745920000000005  0.4625946684397527  1.0000
  Zn  Zn8       1.0  0.0033554249999999545  0.7174592  0.48443145860893516  1.0000
  Ca  Ca9       1.0  0.0033710749999999543  0.42815890000000006  0.5182945139993566  1.0000
  Ca  Ca10      1.0  0.0033554249999999545  0.92709696  0.497112617478426  1.0000
  Ca  Ca11      1.0  0.25335510499999997  0.32390848000000005  0.5005712393054876  1.0000
  Ca  Ca12      1.0  0.25335553499999997  0.8280819800000001  0.5232136100801772  1.0000
  Ca  Ca13      1.0  0.25335375499999996  0.18877178000000006  0.5288994854100132  1.0000
  Ca  Ca14      1.0  0.25335557499999994  0.67837521  0.5084173309378809  1.0000
  Ca  Ca15      1.0  0.0020725050000001133  0.07192688000000001  0.5121359022876735  1.0000
  Ca  Ca16      1.0  0.0033554249999999545  0.57290304  0.4907447438023665  1.0000
  Zn  Zn9       1.0  0.009609884999999953  0.2863048000000001  0.5244707471275869  1.0000
  Zn  Zn10      1.0  0.0032274449999999543  0.78578578  0.5035057095904847  1.0000
  Zn  Zn11      1.0  0.25335542499999997  0.4674592  0.4953498552221018  1.0000
  Zn  Zn12      1.0  0.253355395  0.96685818  0.5170126874030161  1.0000
  Zn  Zn13      1.0  0.25335542499999997  0.03254080000000002  0.49250750911584135  1.0000
  Zn  Zn14      1.0  0.253355725  0.53481625  0.5139892356901865  1.0000
  Zn  Zn15      1.0  0.997927495  0.21565685000000007  0.5062520611652415  1.0000
  Zn  Zn16      1.0  0.0032012049999999544  0.72834052  0.5283384401734841  1.0000
  Ca  Ca17      1.0  0.503355425  0.42709696  0.47527582730924356  1.0000
  Ca  Ca18      1.0  0.503355425  0.92709696  0.45343903714006106  1.0000
  Ca  Ca19      1.0  0.753355425  0.32290304000000003  0.457989560077168  1.0000
  Ca  Ca20      1.0  0.753355425  0.82290304  0.47982635024635056  1.0000
  Ca  Ca21      1.0  0.753355425  0.17709696000000003  0.4861942239224101  1.0000
  Ca  Ca22      1.0  0.753355425  0.67709696  0.46435743069607693  1.0000
  Ca  Ca23      1.0  0.503355425  0.07290304000000003  0.468907953633184  1.0000
  Ca  Ca24      1.0  0.503355425  0.57290304  0.4470711634640015  1.0000
  Zn  Zn17      1.0  0.503355425  0.28254080000000004  0.4815891125026748  1.0000
  Zn  Zn18      1.0  0.503355425  0.78254081  0.4597523223334922  1.0000
  Zn  Zn19      1.0  0.753355425  0.4674592  0.4516762748837368  1.0000
  Zn  Zn20      1.0  0.753355425  0.9674592  0.47351306505291924  1.0000
  Zn  Zn21      1.0  0.753355425  0.03254080000000002  0.4488339257203257  1.0000
  Zn  Zn22      1.0  0.753355425  0.53254081  0.4706707189466588  1.0000
  Zn  Zn23      1.0  0.503355425  0.21745920000000005  0.4625946684397527  1.0000
  Zn  Zn24      1.0  0.503355425  0.7174592  0.48443145860893516  1.0000
  Ca  Ca25      1.0  0.503339975  0.42815879000000007  0.5182945170565072  1.0000
  Ca  Ca26      1.0  0.503355425  0.92709696  0.497112617478426  1.0000
  Ca  Ca27      1.0  0.753355745  0.32379135000000003  0.5009557768900773  1.0000
  Ca  Ca28      1.0  0.753355555  0.8281074100000001  0.5232193728092182  1.0000
  Ca  Ca29      1.0  0.753357285  0.18796984000000005  0.5290324225503922  1.0000
  Ca  Ca30      1.0  0.753355445  0.67833195  0.508421375548237  1.0000
  Ca  Ca31      1.0  0.504638285  0.07192682000000003  0.5121359664878379  1.0000
  Ca  Ca32      1.0  0.503355425  0.57290304  0.4907447438023665  1.0000
  Zn  Zn25      1.0  0.49710115499999996  0.28630557000000006  0.5244701509832034  1.0000
  Zn  Zn26      1.0  0.503483515  0.7857857  0.5035057829621011  1.0000
  Zn  Zn27      1.0  0.753355425  0.4674592  0.4953498552221018  1.0000
  Zn  Zn28      1.0  0.753355325  0.96655461  0.5170085999925506  1.0000
  Zn  Zn29      1.0  0.753355425  0.03254080000000002  0.49250750911584135  1.0000
  Zn  Zn30      1.0  0.7533554849999999  0.53504071  0.5140205989990622  1.0000
  Zn  Zn31      1.0  0.508783865  0.21565668000000005  0.5062526909382826  1.0000
  Zn  Zn32      1.0  0.503510045  0.72834051  0.5283385318880047  1.0000
