data_image0
_chemical_formula_structural       COCu3Au9
_chemical_formula_sum              "C1 O1 Cu3 Au9"
_cell_length_a       5.78124642
_cell_length_b       5.78124642410683
_cell_length_c       98.32220763000001
_cell_angle_alpha    90.0
_cell_angle_beta     90.0
_cell_angle_gamma    60.000000023498885

_space_group_name_H-M_alt    "P 1"
_space_group_IT_number       1

loop_
  _space_group_symop_operation_xyz
  'x, y, z'

loop_
  _atom_site_type_symbol
  _atom_site_label
  _atom_site_symmetry_multiplicity
  _atom_site_fract_x
  _atom_site_fract_y
  _atom_site_fract_z
  _atom_site_occupancy
  C   C1        1.0  0.08510142999999992  0.8754747599999998  0.5262268628122133  1.0000
  O   O1        1.0  0.08429467999999998  0.85086363  0.538112618753003  1.0000
  Cu  Cu1       1.0  0.7471835499999999  0.75166035  0.4618873812469971  1.0000
  Cu  Cu2       1.0  0.07619918999999996  0.08430639999999995  0.5104859971136311  1.0000
  Cu  Cu3       1.0  0.4165146599999999  0.41513137999999994  0.48568572545572114  1.0000
  Au  Au1       1.0  0.92380081  0.41190059999999995  0.4864388165570369  1.0000
  Au  Au2       1.0  0.2471835499999999  0.75166035  0.4618873812469971  1.0000
  Au  Au3       1.0  0.5576902899999999  0.08618619999999994  0.5099873565529505  1.0000
  Au  Au4       1.0  0.41871976000000005  0.9069144099999998  0.4859517471673858  1.0000
  Au  Au5       1.0  0.7471835499999999  0.2516603499999999  0.4618873812469971  1.0000
  Au  Au6       1.0  0.07673561  0.57341248  0.5114362878160216  1.0000
  Au  Au7       1.0  0.9137298599999998  0.9156936000000001  0.48616546096400765  1.0000
  Au  Au8       1.0  0.24718355000000003  0.2516603499999999  0.4618873812469971  1.0000
  Au  Au9       1.0  0.58897835  0.5601954199999999  0.5103374788146228  1.0000
