data_image0
_chemical_formula_structural       COCa3Mn6As6Ca3Mn6As6
_chemical_formula_sum              "C1 O1 Ca6 Mn12 As12"
_cell_length_a       10.402227658705309
_cell_length_b       7.920225815290901
_cell_length_c       101.45337996
_cell_angle_alpha    104.37129334171077
_cell_angle_beta     79.10660533725176
_cell_angle_gamma    67.9602324017645

_space_group_name_H-M_alt    "P 1"
_space_group_IT_number       1

loop_
  _space_group_symop_operation_xyz
  'x, y, z'

loop_
  _atom_site_type_symbol
  _atom_site_label
  _atom_site_symmetry_multiplicity
  _atom_site_fract_x
  _atom_site_fract_y
  _atom_site_fract_z
  _atom_site_occupancy
  C   C1        1.0  0.93902018  0.252309175  0.5440949806163613  1.0000
  O   O1        1.0  0.91618073  0.28880582499999996  0.556254771526487  1.0000
  Ca  Ca1       1.0  0.013098090000000081  0.12977861499999999  0.4768803734779229  1.0000
  Ca  Ca2       1.0  0.34643142000000005  0.12977861499999999  0.4510447148448099  1.0000
  Ca  Ca3       1.0  0.67976476  0.12977861499999999  0.4639625426112268  1.0000
  Mn  Mn1       1.0  0.9189196699999997  0.7456472150000001  0.4712620289825235  1.0000
  Mn  Mn2       1.0  0.25225300000000006  0.7456472150000001  0.4454263703494105  1.0000
  Mn  Mn3       1.0  0.5855863299999998  0.7456472150000001  0.45834419811582744  1.0000
  Mn  Mn4       1.0  0.77394318  0.513910015  0.46958088710662593  1.0000
  Mn  Mn5       1.0  0.10727651000000007  0.513910015  0.44374522847351305  1.0000
  Mn  Mn6       1.0  0.4406098500000001  0.513910015  0.456663059340209  1.0000
  As  As1       1.0  0.6589540300000001  0.858877465  0.47849334951592976  1.0000
  As  As2       1.0  0.9922873599999998  0.858877465  0.45265769088281677  1.0000
  As  As3       1.0  0.3256207  0.858877465  0.46557552174951283  1.0000
  As  As4       1.0  0.03390882000000007  0.4006797649999999  0.46234956657321974  1.0000
  As  As5       1.0  0.36724215000000004  0.4006797649999999  0.4752673974399158  1.0000
  As  As6       1.0  0.70057548  0.4006797649999999  0.44943173570652367  1.0000
  Ca  Ca4       1.0  0.007712640000000077  0.146202785  0.5149950442562586  1.0000
  Ca  Ca5       1.0  0.34115437000000004  0.136568795  0.49086004685663454  1.0000
  Ca  Ca6       1.0  0.66824044  0.13363440499999998  0.5034420709861168  1.0000
  Mn  Mn7       1.0  0.84940563  0.631979665  0.49230871739999976  1.0000
  Mn  Mn8       1.0  0.25225300000000006  0.7456472150000001  0.48417985984921963  1.0000
  Mn  Mn9       1.0  0.56432367  0.7373604249999999  0.49564510141969226  1.0000
  Mn  Mn10      1.0  0.7798109200000001  0.5146717249999999  0.50512097756074  1.0000
  Mn  Mn11      1.0  0.10727651000000007  0.513910015  0.48249871797332206  1.0000
  Mn  Mn12      1.0  0.4255444400000001  0.529592435  0.49632780769295415  1.0000
  As  As7       1.0  0.63523064  0.8492782849999999  0.5152097974933917  1.0000
  As  As8       1.0  0.98696132  0.8582868649999997  0.4917204890338592  1.0000
  As  As9       1.0  0.3058582700000001  0.870221385  0.5058323211126026  1.0000
  As  As10      1.0  0.032624270000000094  0.423391405  0.5022532999450123  1.0000
  As  As11      1.0  0.3600370000000001  0.4473964649999999  0.5145632342745768  1.0000
  As  As12      1.0  0.68808984  0.3989508149999999  0.4874176394902288  1.0000
