data_image0
_chemical_formula_structural       COAl3Mn9Al3Mn9Al3Mn9Al3Mn9
_chemical_formula_sum              "C1 O1 Al12 Mn36"
_cell_length_a       8.06270644
_cell_length_b       8.062706439743316
_cell_length_c       109.49903348000001
_cell_angle_alpha    90.0
_cell_angle_beta     90.0
_cell_angle_gamma    120.00000000105314

_space_group_name_H-M_alt    "P 1"
_space_group_IT_number       1

loop_
  _space_group_symop_operation_xyz
  'x, y, z'

loop_
  _atom_site_type_symbol
  _atom_site_label
  _atom_site_symmetry_multiplicity
  _atom_site_fract_x
  _atom_site_fract_y
  _atom_site_fract_z
  _atom_site_occupancy
  C   C1        1.0  0.42168624499999996  0.16945504500000005  0.540862922442431  1.0000
  O   O1        1.0  0.421651545  0.16948940500000004  0.5517310060905654  1.0000
  Al  Al1       1.0  0.2568928449999999  0.3342501550000001  0.5167201786359691  1.0000
  Al  Al2       1.0  0.08838405499999996  0.002756925000000037  0.48584450722747025  1.0000
  Al  Al3       1.0  0.421717385  0.16942359500000004  0.4557840958515918  1.0000
  Mn  Mn1       1.0  0.421719945  0.16942097500000003  0.5244692720320523  1.0000
  Mn  Mn2       1.0  0.25505072499999987  0.336090255  0.493359612776877  1.0000
  Mn  Mn3       1.0  0.08838405499999996  0.002756925000000037  0.46329919779374906  1.0000
  Mn  Mn4       1.0  0.09078480499999995  0.003956715000000037  0.5085298609088947  1.0000
  Mn  Mn5       1.0  0.421717385  0.16942359500000004  0.478329405285313  1.0000
  Mn  Mn6       1.0  0.25505072499999987  0.336090255  0.4482689939094346  1.0000
  Mn  Mn7       1.0  0.42172469500000004  0.16941125500000004  0.4995205099662131  1.0000
  Mn  Mn8       1.0  0.25505072499999987  0.336090255  0.47081430334315577  1.0000
  Mn  Mn9       1.0  0.07735599499999993  0.9972374650000001  0.527696115437185  1.0000
  Al  Al4       1.0  0.2568882549999999  0.839764135  0.516720892871372  1.0000
  Al  Al5       1.0  0.08838405499999995  0.502756925  0.48584450722747025  1.0000
  Al  Al6       1.0  0.42171738499999994  0.669423595  0.4557840958515918  1.0000
  Mn  Mn10      1.0  0.4227865649999999  0.669954605  0.5229041802584128  1.0000
  Mn  Mn11      1.0  0.2550507249999999  0.836090255  0.493359612776877  1.0000
  Mn  Mn12      1.0  0.08838405499999995  0.502756925  0.46329919779374906  1.0000
  Mn  Mn13      1.0  0.08838346499999994  0.502753285  0.508606965867158  1.0000
  Mn  Mn14      1.0  0.42171738499999994  0.669423595  0.478329405285313  1.0000
  Mn  Mn15      1.0  0.2550507249999999  0.836090255  0.4482689939094346  1.0000
  Mn  Mn16      1.0  0.419878485  0.6685147050000001  0.4995767109135694  1.0000
  Mn  Mn17      1.0  0.2550507249999999  0.836090255  0.47081430334315577  1.0000
  Mn  Mn18      1.0  0.08838636499999994  0.502754695  0.5276036147380154  1.0000
  Al  Al7       1.0  0.7513761149999998  0.33425364500000004  0.5167202002794662  1.0000
  Al  Al8       1.0  0.5883840549999999  0.002756925000000037  0.48584450722747025  1.0000
  Al  Al9       1.0  0.9217173849999998  0.16942359500000004  0.4557840958515918  1.0000
  Mn  Mn19      1.0  0.9211856749999998  0.16835607500000005  0.5229037149232262  1.0000
  Mn  Mn20      1.0  0.7550507249999999  0.336090255  0.493359612776877  1.0000
  Mn  Mn21      1.0  0.5883840549999999  0.002756925000000037  0.46329919779374906  1.0000
  Mn  Mn22      1.0  0.5871877649999999  0.0039571850000000375  0.5085298573016452  1.0000
  Mn  Mn23      1.0  0.9217173849999998  0.16942359500000004  0.478329405285313  1.0000
  Mn  Mn24      1.0  0.7550507249999999  0.336090255  0.4482689939094346  1.0000
  Mn  Mn25      1.0  0.9226296749999999  0.17126051500000006  0.49957613375364796  1.0000
  Mn  Mn26      1.0  0.7550507249999999  0.336090255  0.47081430334315577  1.0000
  Mn  Mn27      1.0  0.5938971949999998  0.997243075  0.527695953110957  1.0000
  Al  Al10      1.0  0.755050825  0.836087355  0.5162674111065478  1.0000
  Al  Al11      1.0  0.588384055  0.502756925  0.48584450722747025  1.0000
  Al  Al12      1.0  0.9217173849999998  0.669423595  0.4557840958515918  1.0000
  Mn  Mn28      1.0  0.9211813549999999  0.6699571750000001  0.522903841176959  1.0000
  Mn  Mn29      1.0  0.755050725  0.836090255  0.493359612776877  1.0000
  Mn  Mn30      1.0  0.588384055  0.502756925  0.46329919779374906  1.0000
  Mn  Mn31      1.0  0.5871850549999998  0.500354305  0.5085299438756334  1.0000
  Mn  Mn32      1.0  0.9217173849999998  0.669423595  0.478329405285313  1.0000
  Mn  Mn33      1.0  0.755050725  0.836090255  0.4482689939094346  1.0000
  Mn  Mn34      1.0  0.9226440049999999  0.668506185  0.4995752968717618  1.0000
  Mn  Mn35      1.0  0.755050725  0.836090255  0.47081430334315577  1.0000
  Mn  Mn36      1.0  0.5939037149999999  0.513785915  0.5276959567182065  1.0000
