data_image0
_chemical_formula_structural       COTi6Au24
_chemical_formula_sum              "C1 O1 Ti6 Au24"
_cell_length_a       9.37846339
_cell_length_b       7.761548568468758
_cell_length_c       110.83516602
_cell_angle_alpha    110.4729027830382
_cell_angle_beta     90.0
_cell_angle_gamma    52.83144520798887

_space_group_name_H-M_alt    "P 1"
_space_group_IT_number       1

loop_
  _space_group_symop_operation_xyz
  'x, y, z'

loop_
  _atom_site_type_symbol
  _atom_site_label
  _atom_site_symmetry_multiplicity
  _atom_site_fract_x
  _atom_site_fract_y
  _atom_site_fract_z
  _atom_site_occupancy
  C   C1        1.0  0.13041046999999997  0.9962791150000001  0.546180231625551  1.0000
  O   O1        1.0  0.18817152  0.030576524999999983  0.5552909051337692  1.0000
  Ti  Ti1       1.0  0.66953932  0.670387555  0.4722806584966037  1.0000
  Ti  Ti2       1.0  0.9981147599999999  0.966462105  0.5308522545173804  1.0000
  Ti  Ti3       1.0  0.3362059799999999  0.337054215  0.5029832819305362  1.0000
  Ti  Ti4       1.0  0.6767280999999999  0.665748775  0.5167934797009589  1.0000
  Ti  Ti5       1.0  0.002872650000000011  0.0037208849999999846  0.48763196837141254  1.0000
  Ti  Ti6       1.0  0.3362059799999999  0.337054215  0.45692934493748005  1.0000
  Au  Au1       1.0  0.9815325199999999  0.22392461499999997  0.5177132062972299  1.0000
  Au  Au2       1.0  0.32994319  0.537714335  0.484500904883538  1.0000
  Au  Au3       1.0  0.6632765199999999  0.8710476650000001  0.4537982814496056  1.0000
  Au  Au4       1.0  0.67580211  0.46972743499999997  0.49076303185928694  1.0000
  Au  Au5       1.0  0.009135450000000036  0.803060775  0.4600604084253545  1.0000
  Au  Au6       1.0  0.32844713999999997  0.13278972499999997  0.522314285663718  1.0000
  Au  Au7       1.0  0.9766029  0.617054585  0.5255837909705086  1.0000
  Au  Au8       1.0  0.33521857  0.941009375  0.49340819315305  1.0000
  Au  Au9       1.0  0.6685519099999999  0.274342715  0.46270556971911764  1.0000
  Au  Au10      1.0  0.33626526999999995  0.741241635  0.5136506116679543  1.0000
  Au  Au11      1.0  0.6705267300000001  0.06643239499999998  0.4818557472740899  1.0000
  Au  Au12      1.0  0.0038600600000000375  0.39976572499999996  0.45115312015584247  1.0000
  Au  Au13      1.0  0.6632765199999999  0.8710476650000001  0.4998522184426617  1.0000
  Au  Au14      1.0  0.9966098499999998  0.20438099499999998  0.46914959132441425  1.0000
  Au  Au15      1.0  0.3121105799999999  0.526519065  0.5298145414188481  1.0000
  Au  Au16      1.0  0.67580211  0.46972743499999997  0.4447090948662308  1.0000
  Au  Au17      1.0  0.009718789999999939  0.7984738950000001  0.505352937520262  1.0000
  Au  Au18      1.0  0.34246878  0.136394105  0.4754117219844782  1.0000
  Au  Au19      1.0  0.6675841100000001  0.28559985499999996  0.5101203121267596  1.0000
  Au  Au20      1.0  0.0018852400000000102  0.607676045  0.47805687959392634  1.0000
  Au  Au21      1.0  0.33521857  0.941009375  0.44735425615999386  1.0000
  Au  Au22      1.0  0.0038600600000000375  0.39976572499999996  0.4972070571488986  1.0000
  Au  Au23      1.0  0.3371933899999999  0.733099055  0.46650443371496614  1.0000
  Au  Au24      1.0  0.6553709  0.07279987499999999  0.5285454496565477  1.0000
