data_image0
_chemical_formula_structural       COAl8Co4Fe4Al8Co4Fe4Al8Co4Fe4Al8Co4Fe4
_chemical_formula_sum              "C1 O1 Al32 Co16 Fe16"
_cell_length_a       8.1450499
_cell_length_b       8.1450499
_cell_length_c       104.55652012
_cell_angle_alpha    90.0
_cell_angle_beta     90.0
_cell_angle_gamma    90.0

_space_group_name_H-M_alt    "P 1"
_space_group_IT_number       1

loop_
  _space_group_symop_operation_xyz
  'x, y, z'

loop_
  _atom_site_type_symbol
  _atom_site_label
  _atom_site_symmetry_multiplicity
  _atom_site_fract_x
  _atom_site_fract_y
  _atom_site_fract_z
  _atom_site_occupancy
  C   C1        1.0  0.25028641000000007  0.624833035  0.5522093900912929  1.0000
  O   O1        1.0  0.25028543000000003  0.624831505  0.5634233144234903  1.0000
  Al  Al1       1.0  0.25028633000000006  0.12483292500000001  0.5314708582351836  1.0000
  Al  Al2       1.0  0.25028624000000005  0.12483268500000004  0.5050574684383258  1.0000
  Al  Al3       1.0  0.9999350900000001  0.37449855500000007  0.5050364284489658  1.0000
  Al  Al4       1.0  0.001234910000000044  0.37505302500000004  0.5316649410650901  1.0000
  Al  Al5       1.0  0.25028623000000005  0.12483297500000003  0.477889891200056  1.0000
  Al  Al6       1.0  0.25028623000000005  0.12483297500000003  0.4503477519143209  1.0000
  Al  Al7       1.0  0.00028623000000004397  0.374832975  0.4503477519143209  1.0000
  Al  Al8       1.0  0.00028623000000004397  0.374832975  0.477889891200056  1.0000
  Co  Co1       1.0  0.25028623000000005  0.374832975  0.4916609575378671  1.0000
  Co  Co2       1.0  6.435000000004397e-05  0.12483283500000003  0.5194375277826488  1.0000
  Co  Co3       1.0  0.25028623000000005  0.374832975  0.4365766855765098  1.0000
  Co  Co4       1.0  0.00028623000000004397  0.12483297500000003  0.4641188215571885  1.0000
  Fe  Fe1       1.0  0.00028623000000004397  0.12483297500000003  0.4916609575378671  1.0000
  Fe  Fe2       1.0  0.25028647000000004  0.377232825  0.5198732565098322  1.0000
  Fe  Fe3       1.0  0.00028623000000004397  0.12483297500000003  0.4365766855765098  1.0000
  Fe  Fe4       1.0  0.25028623000000005  0.374832975  0.4641188215571885  1.0000
  Al  Al9       1.0  0.25028685  0.624832995  0.5328723211519665  1.0000
  Al  Al10      1.0  0.2502866100000001  0.624833275  0.5050996277384004  1.0000
  Al  Al11      1.0  0.9999356500000001  0.875167315  0.5050363920933448  1.0000
  Al  Al12      1.0  0.0012353900000000439  0.874612765  0.5316649047094693  1.0000
  Al  Al13      1.0  0.25028623000000005  0.624832975  0.477889891200056  1.0000
  Al  Al14      1.0  0.25028623000000005  0.624832975  0.4503477519143209  1.0000
  Al  Al15      1.0  0.00028623000000004397  0.874832975  0.4503477519143209  1.0000
  Al  Al16      1.0  0.00028623000000004397  0.874832975  0.477889891200056  1.0000
  Co  Co5       1.0  0.25028623000000005  0.874832975  0.4916609575378671  1.0000
  Co  Co6       1.0  0.0029366300000000438  0.624833155  0.5194823443481092  1.0000
  Co  Co7       1.0  0.25028623000000005  0.874832975  0.4365766855765098  1.0000
  Co  Co8       1.0  0.00028623000000004397  0.624832975  0.4641188215571885  1.0000
  Fe  Fe5       1.0  0.00028623000000004397  0.624832975  0.4916609575378671  1.0000
  Fe  Fe6       1.0  0.2502865000000001  0.872433215  0.5198732532047757  1.0000
  Fe  Fe7       1.0  0.00028623000000004397  0.624832975  0.4365766855765098  1.0000
  Fe  Fe8       1.0  0.25028623000000005  0.874832975  0.4641188215571885  1.0000
  Al  Al17      1.0  0.75028648  0.12483333500000002  0.5317026484541268  1.0000
  Al  Al18      1.0  0.7502864  0.12483320500000003  0.5050351692224584  1.0000
  Al  Al19      1.0  0.50063755  0.374498885  0.5050364416691916  1.0000
  Al  Al20      1.0  0.49933778  0.37505356500000003  0.531664917929695  1.0000
  Al  Al21      1.0  0.7502862299999999  0.12483297500000003  0.477889891200056  1.0000
  Al  Al22      1.0  0.7502862299999999  0.12483297500000003  0.4503477519143209  1.0000
  Al  Al23      1.0  0.5002862299999999  0.374832975  0.4503477519143209  1.0000
  Al  Al24      1.0  0.5002862299999999  0.374832975  0.477889891200056  1.0000
  Co  Co9       1.0  0.7502862299999999  0.374832975  0.4916609575378671  1.0000
  Co  Co10      1.0  0.5005086099999999  0.12483280500000003  0.5194375277826488  1.0000
  Co  Co11      1.0  0.7502862299999999  0.374832975  0.4365766855765098  1.0000
  Co  Co12      1.0  0.5002862299999999  0.12483297500000003  0.4641188215571885  1.0000
  Fe  Fe9       1.0  0.5002862299999999  0.12483297500000003  0.4916609575378671  1.0000
  Fe  Fe10      1.0  0.75028619  0.374683195  0.5200384663665925  1.0000
  Fe  Fe11      1.0  0.5002862299999999  0.12483297500000003  0.4365766855765098  1.0000
  Fe  Fe12      1.0  0.7502862299999999  0.374832975  0.4641188215571885  1.0000
  Al  Al25      1.0  0.75028606  0.624832785  0.5315349928555936  1.0000
  Al  Al26      1.0  0.7502861599999999  0.6248327950000001  0.5050909651854453  1.0000
  Al  Al27      1.0  0.5006369999999999  0.875167005  0.5050364053135706  1.0000
  Al  Al28      1.0  0.49933732  0.874612215  0.531664881574074  1.0000
  Al  Al29      1.0  0.7502862299999999  0.624832975  0.477889891200056  1.0000
  Al  Al30      1.0  0.7502862299999999  0.624832975  0.4503477519143209  1.0000
  Al  Al31      1.0  0.5002862299999999  0.874832975  0.4503477519143209  1.0000
  Al  Al32      1.0  0.5002862299999999  0.874832975  0.477889891200056  1.0000
  Co  Co13      1.0  0.7502862299999999  0.874832975  0.4916609575378671  1.0000
  Co  Co14      1.0  0.49763608  0.624833125  0.519482261721698  1.0000
  Co  Co15      1.0  0.7502862299999999  0.874832975  0.4365766855765098  1.0000
  Co  Co16      1.0  0.5002862299999999  0.624832975  0.4641188215571885  1.0000
  Fe  Fe13      1.0  0.5002862299999999  0.624832975  0.4916609575378671  1.0000
  Fe  Fe14      1.0  0.7502862100000001  0.874982485  0.5200385027222134  1.0000
  Fe  Fe15      1.0  0.5002862299999999  0.624832975  0.4365766855765098  1.0000
  Fe  Fe16      1.0  0.7502862299999999  0.874832975  0.4641188215571885  1.0000
