data_image0
_chemical_formula_structural       CONa6Al6Ge6Na6Al6Ge6
_chemical_formula_sum              "C1 O1 Na12 Al12 Ge12"
_cell_length_a       11.322897527770136
_cell_length_b       8.43295914
_cell_length_c       104.61142208
_cell_angle_alpha    90.0
_cell_angle_beta     102.69777582499226
_cell_angle_gamma    90.0

_space_group_name_H-M_alt    "P 1"
_space_group_IT_number       1

loop_
  _space_group_symop_operation_xyz
  'x, y, z'

loop_
  _atom_site_type_symbol
  _atom_site_label
  _atom_site_symmetry_multiplicity
  _atom_site_fract_x
  _atom_site_fract_y
  _atom_site_fract_z
  _atom_site_occupancy
  C   C1        1.0  0.977752715  0.42471287  0.546250909713945  1.0000
  O   O1        1.0  0.932912165  0.42471380000000003  0.555109473752148  1.0000
  Na  Na1       1.0  0.695666805  0.17471243000000003  0.4667387084537644  1.0000
  Na  Na2       1.0  0.030170834999999993  0.17101942  0.49463187979015105  1.0000
  Na  Na3       1.0  0.38030231500000006  0.17865701  0.5214660175477503  1.0000
  Na  Na4       1.0  0.7585926049999999  0.4247124  0.49549567464869837  1.0000
  Na  Na5       1.0  0.017273844999999996  0.42471232000000003  0.5225592518154231  1.0000
  Na  Na6       1.0  0.43645216500000006  0.42471243000000003  0.4682630725624531  1.0000
  Al  Al1       1.0  0.6377218450000001  0.15094551  0.5161791243875754  1.0000
  Al  Al2       1.0  0.9827261549999999  0.17471243000000003  0.46060803397543754  1.0000
  Al  Al3       1.0  0.31605948500000003  0.17471243000000003  0.488179453488982  1.0000
  Al  Al4       1.0  0.49869924500000007  0.42471241000000004  0.504519693659309  1.0000
  Al  Al5       1.0  0.8160594849999999  0.42471243000000003  0.4468223275272354  1.0000
  Al  Al6       1.0  0.14939282499999998  0.42471243000000003  0.4743937437322098  1.0000
  Ge  Ge1       1.0  0.554381935  0.17471243000000003  0.49011125145979534  1.0000
  Ge  Ge2       1.0  0.8624218650000001  0.07528757000000001  0.5189861516351219  1.0000
  Ge  Ge3       1.0  0.221048595  0.17471243000000003  0.462539835254821  1.0000
  Ge  Ge4       1.0  0.9110703749999999  0.42471243000000003  0.47246194245282636  1.0000
  Ge  Ge5       1.0  0.250147435  0.42471242000000003  0.5014614566115306  1.0000
  Ge  Ge6       1.0  0.577737045  0.42471243000000003  0.444890526247852  1.0000
  Na  Na7       1.0  0.695666805  0.67471243  0.4667387084537644  1.0000
  Na  Na8       1.0  0.030170834999999993  0.6784053899999999  0.49463187979015105  1.0000
  Na  Na9       1.0  0.38030235500000004  0.67076781  0.5214660175477503  1.0000
  Na  Na10      1.0  0.750344145  0.92471242  0.49264490479616463  1.0000
  Na  Na11      1.0  0.102733305  0.9247124  0.5231438893822986  1.0000
  Na  Na12      1.0  0.43645216500000006  0.9247124299999999  0.4682630725624531  1.0000
  Al  Al7       1.0  0.637721855  0.69847928  0.5161791276961454  1.0000
  Al  Al8       1.0  0.9827261549999999  0.67471243  0.46060803397543754  1.0000
  Al  Al9       1.0  0.31605948500000003  0.67471243  0.488179453488982  1.0000
  Al  Al10      1.0  0.48515183500000003  0.9247124099999999  0.502747150400579  1.0000
  Al  Al11      1.0  0.8160594849999999  0.9247124299999999  0.4468223275272354  1.0000
  Al  Al12      1.0  0.14939282499999998  0.9247124299999999  0.4743937437322098  1.0000
  Ge  Ge7       1.0  0.554381935  0.67471243  0.49011125145979534  1.0000
  Ge  Ge8       1.0  0.8624218849999999  0.7741372400000001  0.5189861582522619  1.0000
  Ge  Ge9       1.0  0.221048595  0.67471243  0.462539835254821  1.0000
  Ge  Ge10      1.0  0.9110703749999999  0.9247124299999999  0.47246194245282636  1.0000
  Ge  Ge11      1.0  0.250067105  0.92471242  0.5013651342108807  1.0000
  Ge  Ge12      1.0  0.577737045  0.9247124299999999  0.444890526247852  1.0000
