data_image0
_chemical_formula_structural       COCu6Se12Sn3Zn3
_chemical_formula_sum              "C1 O1 Cu6 Se12 Sn3 Zn3"
_cell_length_a       7.151279732603939
_cell_length_b       10.921856352550966
_cell_length_c       100.61112019000001
_cell_angle_alpha    92.91554519301373
_cell_angle_beta     90.00816442938579
_cell_angle_gamma    90.02288267525499

_space_group_name_H-M_alt    "P 1"
_space_group_IT_number       1

loop_
  _space_group_symop_operation_xyz
  'x, y, z'

loop_
  _atom_site_type_symbol
  _atom_site_label
  _atom_site_symmetry_multiplicity
  _atom_site_fract_x
  _atom_site_fract_y
  _atom_site_fract_z
  _atom_site_occupancy
  C   C1        1.0  0.3826099150000001  0.11851153500000003  0.5384776279674878  1.0000
  O   O1        1.0  0.441884715  0.10483842500000003  0.548903484171878  1.0000
  Cu  Cu1       1.0  0.105006185  0.02197441500000003  0.5083718397452033  1.0000
  Cu  Cu2       1.0  0.5098186650000001  0.46969140500000006  0.491867077068316  1.0000
  Cu  Cu3       1.0  0.8431519950000002  0.886358075  0.46651275663489267  1.0000
  Cu  Cu4       1.0  0.509818665  0.5946914050000001  0.45383559489692166  1.0000
  Cu  Cu5       1.0  0.8964458949999999  0.7807479850000001  0.5068657717535862  1.0000
  Cu  Cu6       1.0  0.17648533499999997  0.17802473500000005  0.47918991533034505  1.0000
  Se  Se1       1.0  0.35590710499999995  0.05272641500000003  0.4945590670771503  1.0000
  Se  Se2       1.0  0.668922665  0.470507405  0.4701702686154643  1.0000
  Se  Se3       1.0  0.978502925  0.617766055  0.5223353996337695  1.0000
  Se  Se4       1.0  0.190085335  0.5135607350000001  0.451096515828122  1.0000
  Se  Se5       1.0  0.5404273450000001  0.6848049150000001  0.5015796665159153  1.0000
  Se  Se6       1.0  0.8567519950000001  0.09689407500000004  0.476450839304064  1.0000
  Se  Se7       1.0  0.190085335  0.3930887350000001  0.4877503455893399  1.0000
  Se  Se8       1.0  0.523418665  0.809755405  0.4623960251559165  1.0000
  Se  Se9       1.0  0.8249790050000001  0.9780255849999999  0.5176254652659582  1.0000
  Se  Se10      1.0  0.657948505  0.33350270500000007  0.5073827960623727  1.0000
  Se  Se11      1.0  0.990181335  0.7516087349999999  0.48238821085503064  1.0000
  Se  Se12      1.0  0.323514665  0.16827540500000004  0.4570338904216073  1.0000
  Sn  Sn1       1.0  0.676485335  0.24052473500000005  0.4601741742446478  1.0000
  Sn  Sn2       1.0  0.021235185  0.3720676850000001  0.512504647892323  1.0000
  Sn  Sn3       1.0  0.343151995  0.823858075  0.48552849772058976  1.0000
  Zn  Zn1       1.0  0.009818664999999999  0.5321914050000001  0.47285133598261886  1.0000
  Zn  Zn2       1.0  0.265341945  0.658361665  0.5136077738515936  1.0000
  Zn  Zn3       1.0  0.706978195  0.11374474500000004  0.5009456664955253  1.0000
