data_image0
_chemical_formula_structural       COFe16Si8Fe16Si8
_chemical_formula_sum              "C1 O1 Fe32 Si16"
_cell_length_a       6.7973162
_cell_length_b       6.226086024912168
_cell_length_c       107.35651616999999
_cell_angle_alpha    78.14760836079793
_cell_angle_beta     90.0
_cell_angle_gamma    90.0

_space_group_name_H-M_alt    "P 1"
_space_group_IT_number       1

loop_
  _space_group_symop_operation_xyz
  'x, y, z'

loop_
  _atom_site_type_symbol
  _atom_site_label
  _atom_site_symmetry_multiplicity
  _atom_site_fract_x
  _atom_site_fract_y
  _atom_site_fract_z
  _atom_site_occupancy
  C   C1        1.0  0.9483126350000001  0.08126274499999997  0.5573153345323143  1.0000
  O   O1        1.0  0.908112865  0.07384421499999998  0.5680383631416864  1.0000
  Fe  Fe1       1.0  0.35083958500000006  0.21612160499999994  0.43607698941470197  1.0000
  Fe  Fe2       1.0  0.35083958500000006  0.7161216049999999  0.46507423150772426  1.0000
  Fe  Fe3       1.0  0.8508395849999999  0.966121605  0.4505756122010477  1.0000
  Fe  Fe4       1.0  0.8508395849999999  0.466121605  0.47957285429406993  1.0000
  Fe  Fe5       1.0  0.18417292500000002  0.645160485  0.43196163685831357  1.0000
  Fe  Fe6       1.0  0.18417292500000002  0.14516048499999998  0.4609588789513358  1.0000
  Fe  Fe7       1.0  0.684172925  0.39516048499999995  0.44646025616499  1.0000
  Fe  Fe8       1.0  0.684172925  0.895160485  0.4754575017376815  1.0000
  Fe  Fe9       1.0  0.01750625500000003  0.30564104499999994  0.4412686245296807  1.0000
  Fe  Fe10      1.0  0.01750625500000003  0.8056410449999999  0.4702658666227028  1.0000
  Fe  Fe11      1.0  0.517506255  0.05564104499999997  0.45576724383635714  1.0000
  Fe  Fe12      1.0  0.517506255  0.555641045  0.48476448940904865  1.0000
  Fe  Fe13      1.0  0.01750625500000003  0.555641045  0.45576724383635714  1.0000
  Fe  Fe14      1.0  0.01750625500000003  0.05564104499999997  0.48476448940904854  1.0000
  Fe  Fe15      1.0  0.517506255  0.30564104499999994  0.4702658666227029  1.0000
  Fe  Fe16      1.0  0.517506255  0.8056410449999999  0.44126862452968063  1.0000
  Si  Si1       1.0  0.18417292500000002  0.39630023499999995  0.4755235980539523  1.0000
  Si  Si2       1.0  0.18417292500000002  0.8963002349999999  0.44652635596093  1.0000
  Si  Si3       1.0  0.684172925  0.14630023499999997  0.4320277331745843  1.0000
  Si  Si4       1.0  0.684172925  0.646300235  0.46102497874727566  1.0000
  Si  Si5       1.0  0.35083958500000006  0.464981855  0.4505095124051078  1.0000
  Si  Si6       1.0  0.35083958500000006  0.9649818549999999  0.47950675449813007  1.0000
  Si  Si7       1.0  0.8508395849999999  0.21498185499999997  0.4650081317117843  1.0000
  Si  Si8       1.0  0.8508395849999999  0.7149818549999999  0.4360108896187621  1.0000
  Fe  Fe17      1.0  0.35083958500000006  0.21612160499999994  0.4940714770804156  1.0000
  Fe  Fe18      1.0  0.33842925500000004  0.7218986149999999  0.5229326536690877  1.0000
  Fe  Fe19      1.0  0.8508395849999999  0.966121605  0.5085700963870923  1.0000
  Fe  Fe20      1.0  0.829356835  0.443079525  0.5370014920747258  1.0000
  Fe  Fe21      1.0  0.18417292500000002  0.645160485  0.4899561210443581  1.0000
  Fe  Fe22      1.0  0.18275820500000006  0.14036494499999996  0.5183421662034338  1.0000
  Fe  Fe23      1.0  0.684172925  0.39516048499999995  0.5044547438307037  1.0000
  Fe  Fe24      1.0  0.6916751050000001  0.921525395  0.5363966455370517  1.0000
  Fe  Fe25      1.0  0.01750625500000003  0.30564104499999994  0.4992631087157251  1.0000
  Fe  Fe26      1.0  0.9843485649999999  0.7894877849999999  0.5307751912446734  1.0000
  Fe  Fe27      1.0  0.5380272550000001  0.03387839499999997  0.5173250867364482  1.0000
  Fe  Fe28      1.0  0.529815095  0.625760685  0.5408550204025554  1.0000
  Fe  Fe29      1.0  0.01611476500000003  0.562180965  0.5134689486567257  1.0000
  Fe  Fe30      1.0  0.01565143500000003  0.09830424499999997  0.5410970696711055  1.0000
  Fe  Fe31      1.0  0.504991395  0.3268381249999999  0.5283958212896661  1.0000
  Fe  Fe32      1.0  0.517506255  0.8056410449999999  0.49926310871572505  1.0000
  Si  Si9       1.0  0.18189578500000006  0.419193115  0.5339694266510078  1.0000
  Si  Si10      1.0  0.18417292500000002  0.8963002349999999  0.5045208436266436  1.0000
  Si  Si11      1.0  0.684172925  0.14630023499999997  0.4900222208402979  1.0000
  Si  Si12      1.0  0.681924685  0.6615559949999998  0.5196336315047552  1.0000
  Si  Si13      1.0  0.35083958500000006  0.464981855  0.5085039965911523  1.0000
  Si  Si14      1.0  0.3291243650000001  0.965858035  0.5377680214413294  1.0000
  Si  Si15      1.0  0.8499475349999999  0.22012456499999994  0.522048601955249  1.0000
  Si  Si16      1.0  0.8508395849999999  0.7149818549999999  0.49400537728447574  1.0000
