data_image0
_chemical_formula_structural       COAl6Cu18
_chemical_formula_sum              "C1 O1 Al6 Cu18"
_cell_length_a       7.2481737420951005
_cell_length_b       5.91810908
_cell_length_c       101.86999275
_cell_angle_alpha    90.0
_cell_angle_beta     85.65224687514483
_cell_angle_gamma    114.09484255907813

_space_group_name_H-M_alt    "P 1"
_space_group_IT_number       1

loop_
  _space_group_symop_operation_xyz
  'x, y, z'

loop_
  _atom_site_type_symbol
  _atom_site_label
  _atom_site_symmetry_multiplicity
  _atom_site_fract_x
  _atom_site_fract_y
  _atom_site_fract_z
  _atom_site_occupancy
  C   C1        1.0  0.48356067  0.66545252  0.53939489597107  1.0000
  O   O1        1.0  0.53645936  0.7997178800000002  0.5480791395571258  1.0000
  Al  Al1       1.0  0.35416665999999997  0.6979166700000001  0.47799166452598674  1.0000
  Al  Al2       1.0  0.5277907199999999  0.2935570400000001  0.5044966538833313  1.0000
  Al  Al3       1.0  0.18750000000000003  0.11458333000000007  0.45192086044287405  1.0000
  Al  Al4       1.0  0.9375  0.98958333  0.49102706813179137  1.0000
  Al  Al5       1.0  0.09266828  0.56688664  0.5172656034324268  1.0000
  Al  Al6       1.0  0.7708333300000001  0.40625000000000006  0.46495626092018216  1.0000
  Cu  Cu1       1.0  0.53185932  0.7849389800000003  0.5031088183714043  1.0000
  Cu  Cu2       1.0  0.18750000000000003  0.6145833300000001  0.45192086044287405  1.0000
  Cu  Cu3       1.0  0.35416665999999997  0.19791667000000002  0.47799166452598674  1.0000
  Cu  Cu4       1.0  0.23307757  0.88816423  0.49742080482056816  1.0000
  Cu  Cu5       1.0  0.41114902000000003  0.5050340900000001  0.5234980035507621  1.0000
  Cu  Cu6       1.0  0.06250000000000001  0.30208333000000004  0.47147396428733274  1.0000
  Cu  Cu7       1.0  0.23447231999999998  0.39092940000000004  0.49767131293003014  1.0000
  Cu  Cu8       1.0  0.40185263000000004  0.95764559  0.5217335783872874  1.0000
  Cu  Cu9       1.0  0.06250000000000001  0.8020833300000001  0.47147396428733274  1.0000
  Cu  Cu10      1.0  0.11704854  0.08852054000000002  0.5169055791704561  1.0000
  Cu  Cu11      1.0  0.7708333300000001  0.9062500000000002  0.46495626092018216  1.0000
  Cu  Cu12      1.0  0.9375  0.48958333000000004  0.49102706813179137  1.0000
  Cu  Cu13      1.0  0.8082083300000001  0.16977524000000002  0.5111605425118163  1.0000
  Cu  Cu14      1.0  0.47916666  0.010416670000000022  0.45843856068152805  1.0000
  Cu  Cu15      1.0  0.64583333  0.59375  0.48450936476464074  1.0000
  Cu  Cu16      1.0  0.8146904200000001  0.6897603600000003  0.5112958781468895  1.0000
  Cu  Cu17      1.0  0.47916666  0.51041667  0.45843856068152805  1.0000
  Cu  Cu18      1.0  0.64583333  0.09375000000000006  0.48450936476464074  1.0000
