data_image0
_chemical_formula_structural       COAl8Cu24Al8Cu24
_chemical_formula_sum              "C1 O1 Al16 Cu48"
_cell_length_a       8.36947012
_cell_length_b       10.250465613483144
_cell_length_c       108.80763649
_cell_angle_alpha    95.05115250576836
_cell_angle_beta     90.0
_cell_angle_gamma    90.0

_space_group_name_H-M_alt    "P 1"
_space_group_IT_number       1

loop_
  _space_group_symop_operation_xyz
  'x, y, z'

loop_
  _atom_site_type_symbol
  _atom_site_label
  _atom_site_symmetry_multiplicity
  _atom_site_fract_x
  _atom_site_fract_y
  _atom_site_fract_z
  _atom_site_occupancy
  C   C1        1.0  0.12499993000000002  0.14579626999999995  0.5417998852841565  1.0000
  O   O1        1.0  0.12500010000000003  0.15309680999999997  0.5525159368635807  1.0000
  Al  Al1       1.0  0.12499993000000002  0.38747691  0.523092450533768  1.0000
  Al  Al2       1.0  0.1250004  0.3355651  0.4586297756933128  1.0000
  Al  Al3       1.0  0.1250004  0.02306509999999996  0.48092120080709994  1.0000
  Al  Al4       1.0  0.12500143000000002  0.73055266  0.5028476992419482  1.0000
  Al  Al5       1.0  0.37500040000000007  0.6793151  0.4697754882502063  1.0000
  Al  Al6       1.0  0.37500040000000007  0.3668151  0.4920669133639934  1.0000
  Al  Al7       1.0  0.37589221  0.00818528999999996  0.5161787204518766  1.0000
  Al  Al8       1.0  0.37500040000000007  0.9918151000000002  0.4474840631364192  1.0000
  Cu  Cu1       1.0  0.1250004  0.8355651000000001  0.45862977569331276  1.0000
  Cu  Cu2       1.0  0.1250004  0.5230651  0.4809212008070999  1.0000
  Cu  Cu3       1.0  0.12500177  0.23042106999999998  0.5028610669637603  1.0000
  Cu  Cu4       1.0  0.12500013000000001  0.8822885500000001  0.5228668791447565  1.0000
  Cu  Cu5       1.0  0.37500040000000007  0.42931509999999995  0.4697754882502063  1.0000
  Cu  Cu6       1.0  0.37500040000000007  0.11681509999999995  0.4920669133639934  1.0000
  Cu  Cu7       1.0  0.3752398  0.75650864  0.5163879424180526  1.0000
  Cu  Cu8       1.0  0.37500040000000007  0.7418151000000001  0.44748406313641925  1.0000
  Cu  Cu9       1.0  0.1250004  0.5855651  0.4586297756933128  1.0000
  Cu  Cu10      1.0  0.1250004  0.2730651  0.48092120080709994  1.0000
  Cu  Cu11      1.0  0.12500042  0.9858099800000001  0.5028008658494411  1.0000
  Cu  Cu12      1.0  0.12499961000000001  0.63351161  0.5233522972180343  1.0000
  Cu  Cu13      1.0  0.37500040000000007  0.49181509999999995  0.44748406313641925  1.0000
  Cu  Cu14      1.0  0.37500040000000007  0.17931509999999998  0.4697754882502064  1.0000
  Cu  Cu15      1.0  0.37500040000000007  0.8668151000000002  0.4920669133639934  1.0000
  Cu  Cu16      1.0  0.37534638000000003  0.5079288399999999  0.5158306318238118  1.0000
  Cu  Cu17      1.0  0.1250004  0.7730651  0.4809212008070999  1.0000
  Cu  Cu18      1.0  0.12500064  0.48027973999999996  0.5022284149192631  1.0000
  Cu  Cu19      1.0  0.12499960000000002  0.13884928999999996  0.5245970789294123  1.0000
  Cu  Cu20      1.0  0.1250004  0.08556509999999996  0.45862977569331276  1.0000
  Cu  Cu21      1.0  0.37500040000000007  0.6168151  0.49206691336399344  1.0000
  Cu  Cu22      1.0  0.37596214  0.25853568  0.515900412900988  1.0000
  Cu  Cu23      1.0  0.37500040000000007  0.24181509999999998  0.44748406313641925  1.0000
  Cu  Cu24      1.0  0.37500040000000007  0.9293151000000002  0.4697754882502064  1.0000
  Al  Al9       1.0  0.62500112  0.38543673  0.5232648292325158  1.0000
  Al  Al10      1.0  0.6250004  0.3355651  0.4586297756933128  1.0000
  Al  Al11      1.0  0.6250004  0.02306509999999996  0.48092120080709994  1.0000
  Al  Al12      1.0  0.62499934  0.7295810699999999  0.5028585489243795  1.0000
  Al  Al13      1.0  0.8750003999999999  0.6793151  0.4697754882502063  1.0000
  Al  Al14      1.0  0.8750003999999999  0.3668151  0.4920669133639934  1.0000
  Al  Al15      1.0  0.87410852  0.008184899999999959  0.5161786990521086  1.0000
  Al  Al16      1.0  0.8750003999999999  0.9918151000000002  0.4474840631364192  1.0000
  Cu  Cu25      1.0  0.6250004  0.8355651000000001  0.45862977569331276  1.0000
  Cu  Cu26      1.0  0.6250004  0.5230651  0.4809212008070999  1.0000
  Cu  Cu27      1.0  0.62499856  0.2311526  0.5022889798296402  1.0000
  Cu  Cu28      1.0  0.62500068  0.8841198200000002  0.5228859285050017  1.0000
  Cu  Cu29      1.0  0.8750003999999999  0.42931509999999995  0.4697754882502063  1.0000
  Cu  Cu30      1.0  0.8750003999999999  0.11681509999999995  0.4920669133639934  1.0000
  Cu  Cu31      1.0  0.87476104  0.7565087199999999  0.5163875108560625  1.0000
  Cu  Cu32      1.0  0.8750003999999999  0.7418151000000001  0.44748406313641925  1.0000
  Cu  Cu33      1.0  0.6250004  0.5855651  0.4586297756933128  1.0000
  Cu  Cu34      1.0  0.6250004  0.2730651  0.48092120080709994  1.0000
  Cu  Cu35      1.0  0.62500032  0.98186715  0.5023511711223936  1.0000
  Cu  Cu36      1.0  0.62500075  0.63329894  0.5233360084278752  1.0000
  Cu  Cu37      1.0  0.8750003999999999  0.49181509999999995  0.44748406313641925  1.0000
  Cu  Cu38      1.0  0.8750003999999999  0.17931509999999998  0.4697754882502064  1.0000
  Cu  Cu39      1.0  0.8750003999999999  0.8668151000000002  0.4920669133639934  1.0000
  Cu  Cu40      1.0  0.87465456  0.5079287699999999  0.5158304285260148  1.0000
  Cu  Cu41      1.0  0.6250004  0.7730651  0.4809212008070999  1.0000
  Cu  Cu42      1.0  0.6249996999999999  0.47993822999999997  0.5023031001099643  1.0000
  Cu  Cu43      1.0  0.6250006899999999  0.13647409999999996  0.5228931366602265  1.0000
  Cu  Cu44      1.0  0.6250004  0.08556509999999996  0.45862977569331276  1.0000
  Cu  Cu45      1.0  0.8750003999999999  0.6168151  0.49206691336399344  1.0000
  Cu  Cu46      1.0  0.87403892  0.25853497999999997  0.5158998422405051  1.0000
  Cu  Cu47      1.0  0.8750003999999999  0.24181509999999998  0.44748406313641925  1.0000
  Cu  Cu48      1.0  0.8750003999999999  0.9293151000000002  0.4697754882502064  1.0000
