data_image0
_chemical_formula_structural       COV3Si6V3Si6
_chemical_formula_sum              "C1 O1 V6 Si12"
_cell_length_a       4.582764194150977
_cell_length_b       6.39696986
_cell_length_c       106.66211354000001
_cell_angle_alpha    90.0
_cell_angle_beta     120.00000004221997
_cell_angle_gamma    90.0

_space_group_name_H-M_alt    "P 1"
_space_group_IT_number       1

loop_
  _space_group_symop_operation_xyz
  'x, y, z'

loop_
  _atom_site_type_symbol
  _atom_site_label
  _atom_site_symmetry_multiplicity
  _atom_site_fract_x
  _atom_site_fract_y
  _atom_site_fract_z
  _atom_site_occupancy
  C   C1        1.0  0.352780835  0.30274297  0.5412080744801955  1.0000
  O   O1        1.0  0.41031160499999997  0.37861363000000003  0.5522371918489709  1.0000
  V   V1        1.0  0.5814238549999999  0.17995271000000002  0.46924543230126875  1.0000
  V   V2        1.0  0.5814238549999999  0.8466193699999999  0.4477628081510292  1.0000
  V   V3        1.0  0.08142385499999998  0.51328604  0.4477628081510292  1.0000
  Si  Si1       1.0  0.7557284249999999  0.51328604  0.46224863785769194  1.0000
  Si  Si2       1.0  0.918576145  0.8466193699999999  0.4762422233076257  1.0000
  Si  Si3       1.0  0.918576145  0.17995271000000002  0.45525184685133496  1.0000
  Si  Si4       1.0  0.407119285  0.51328604  0.4762422233076258  1.0000
  Si  Si5       1.0  0.24427156499999997  0.8466193699999999  0.46224863785769194  1.0000
  Si  Si6       1.0  0.24427156499999997  0.17995271000000002  0.4832390177512026  1.0000
  V   V4        1.0  0.567035595  0.1790516  0.5109501180260303  1.0000
  V   V5        1.0  0.5814238549999999  0.8466193699999999  0.49072805645150835  1.0000
  V   V6        1.0  0.08142385499999998  0.51328604  0.4907280564515084  1.0000
  Si  Si7       1.0  0.7660531049999999  0.5114495900000001  0.5056341000354292  1.0000
  Si  Si8       1.0  0.880922715  0.83491552  0.52001683376949  1.0000
  Si  Si9       1.0  0.9071168249999999  0.18305708000000004  0.4973402019317603  1.0000
  Si  Si10      1.0  0.437991125  0.51805077  0.5195164742366621  1.0000
  Si  Si11      1.0  0.24152936499999997  0.84555756  0.5053085196954678  1.0000
  Si  Si12      1.0  0.242303105  0.15338063000000002  0.5245460033888155  1.0000
