data_image0
_chemical_formula_structural       COAl3Fe6Si3Al3Fe6Si3Al3Fe6Si3Al3Fe6Si3
_chemical_formula_sum              "C1 O1 Al12 Fe24 Si12"
_cell_length_a       7.974533
_cell_length_b       7.974532998859158
_cell_length_c       109.06707356999999
_cell_angle_alpha    90.0
_cell_angle_beta     90.0
_cell_angle_gamma    120.0000000047324

_space_group_name_H-M_alt    "P 1"
_space_group_IT_number       1

loop_
  _space_group_symop_operation_xyz
  'x, y, z'

loop_
  _atom_site_type_symbol
  _atom_site_label
  _atom_site_symmetry_multiplicity
  _atom_site_fract_x
  _atom_site_fract_y
  _atom_site_fract_z
  _atom_site_occupancy
  C   C1        1.0  0.16130934500000002  0.158767485  0.5418345384744953  1.0000
  O   O1        1.0  0.19794745500000005  0.23153784500000002  0.5516182141572752  1.0000
  Al  Al1       1.0  0.08821259500000005  0.011195825000000024  0.48569356506772954  1.0000
  Al  Al2       1.0  0.42154592500000004  0.17786249500000004  0.4558441409713396  1.0000
  Al  Al3       1.0  0.25552963500000003  0.34577685500000005  0.5161394738116278  1.0000
  Fe  Fe1       1.0  0.25487926499999997  0.344529155  0.4483817858427248  1.0000
  Fe  Fe2       1.0  0.08878341500000005  0.012317025000000023  0.5079901293840473  1.0000
  Fe  Fe3       1.0  0.42154592500000004  0.17786249500000004  0.4782312099391148  1.0000
  Fe  Fe4       1.0  0.422452185  0.17981595500000006  0.5231811812872346  1.0000
  Fe  Fe5       1.0  0.25487926499999997  0.344529155  0.4931559237782753  1.0000
  Fe  Fe6       1.0  0.08821259500000005  0.011195825000000024  0.4633064960999543  1.0000
  Si  Si1       1.0  0.25487926499999997  0.344529155  0.47076885481050007  1.0000
  Si  Si2       1.0  0.0772628050000001  0.9888041750000001  0.5289596670544381  1.0000
  Si  Si3       1.0  0.42154592500000004  0.17786249500000004  0.50061827890689  1.0000
  Al  Al4       1.0  0.08821259500000009  0.511195825  0.48569356506772954  1.0000
  Al  Al5       1.0  0.42154592500000004  0.6778624950000001  0.4558441409713396  1.0000
  Al  Al6       1.0  0.25770289500000015  0.8443394250000001  0.5163256840784052  1.0000
  Fe  Fe7       1.0  0.254879265  0.8445291550000001  0.4483817858427248  1.0000
  Fe  Fe8       1.0  0.08723796500000006  0.510284295  0.5076483809259439  1.0000
  Fe  Fe9       1.0  0.42154592500000004  0.6778624950000001  0.4782312099391148  1.0000
  Fe  Fe10      1.0  0.42067812499999996  0.676074225  0.5230641022894297  1.0000
  Fe  Fe11      1.0  0.254879265  0.8445291550000001  0.4931559237782753  1.0000
  Fe  Fe12      1.0  0.08821259500000009  0.511195825  0.4633064960999543  1.0000
  Si  Si4       1.0  0.254879265  0.8445291550000001  0.47076885481050007  1.0000
  Si  Si5       1.0  0.08576594500000001  0.5151337250000001  0.5290725838483805  1.0000
  Si  Si6       1.0  0.42154592500000004  0.6778624950000001  0.50061827890689  1.0000
  Al  Al7       1.0  0.588212595  0.011195825000000024  0.48569356506772954  1.0000
  Al  Al8       1.0  0.9215459249999999  0.17786249500000004  0.4558441409713396  1.0000
  Al  Al9       1.0  0.7535375849999999  0.34172826500000003  0.5164342595719333  1.0000
  Fe  Fe13      1.0  0.7548792649999999  0.344529155  0.4483817858427248  1.0000
  Fe  Fe14      1.0  0.5886551250000002  0.011986075000000025  0.5077059139022255  1.0000
  Fe  Fe15      1.0  0.9215459249999999  0.17786249500000004  0.4782312099391148  1.0000
  Fe  Fe16      1.0  0.9227371949999998  0.17988593500000005  0.5232001834313745  1.0000
  Fe  Fe17      1.0  0.7548792649999999  0.344529155  0.4931559237782753  1.0000
  Fe  Fe18      1.0  0.588212595  0.011195825000000024  0.4633064960999543  1.0000
  Si  Si7       1.0  0.7548792649999999  0.344529155  0.47076885481050007  1.0000
  Si  Si8       1.0  0.588264705  0.011346775000000024  0.5291958058579103  1.0000
  Si  Si9       1.0  0.9215459249999999  0.17786249500000004  0.50061827890689  1.0000
  Al  Al10      1.0  0.588212595  0.511195825  0.48569356506772954  1.0000
  Al  Al11      1.0  0.921545925  0.6778624950000001  0.4558441409713396  1.0000
  Al  Al12      1.0  0.7519840849999999  0.8443914450000002  0.5163321028988196  1.0000
  Fe  Fe19      1.0  0.754879265  0.8445291550000001  0.4483817858427248  1.0000
  Fe  Fe20      1.0  0.588351345  0.510336925  0.5076464287735298  1.0000
  Fe  Fe21      1.0  0.921545925  0.6778624950000001  0.4782312099391148  1.0000
  Fe  Fe22      1.0  0.920150595  0.6750273850000001  0.5224734203701977  1.0000
  Fe  Fe23      1.0  0.754879265  0.8445291550000001  0.4931559237782753  1.0000
  Fe  Fe24      1.0  0.588212595  0.511195825  0.4633064960999543  1.0000
  Si  Si10      1.0  0.754879265  0.8445291550000001  0.47076885481050007  1.0000
  Si  Si11      1.0  0.594587825  0.5150423150000001  0.5290704740910009  1.0000
  Si  Si12      1.0  0.921545925  0.6778624950000001  0.50061827890689  1.0000
