data_image0
_chemical_formula_structural       COCo6Sb12Co6Sb12
_chemical_formula_sum              "C1 O1 Co12 Sb24"
_cell_length_a       8.884034041755022
_cell_length_b       7.315856936777818
_cell_length_c       30.292454300000003
_cell_angle_alpha    76.00381259836443
_cell_angle_beta     98.47782682325429
_cell_angle_gamma    68.87951544631488

_space_group_name_H-M_alt    "P 1"
_space_group_IT_number       1

loop_
  _space_group_symop_operation_xyz
  'x, y, z'

loop_
  _atom_site_type_symbol
  _atom_site_label
  _atom_site_symmetry_multiplicity
  _atom_site_fract_x
  _atom_site_fract_y
  _atom_site_fract_z
  _atom_site_occupancy
  C   C1        1.0  0.27218983499999994  0.42835846  0.6962669443564902  1.0000
  O   O1        1.0  0.32455638499999995  0.37428669999999997  0.7372983334347822  1.0000
  Co  Co1       1.0  0.6818847649999998  0.99341349  0.6269188187498336  1.0000
  Co  Co2       1.0  0.009649294999999971  0.006586509999999986  0.48446576991952756  1.0000
  Co  Co3       1.0  0.34298262499999993  0.006586509999999986  0.5572883454251919  1.0000
  Co  Co4       1.0  0.509649295  0.50658651  0.4844657699195275  1.0000
  Co  Co5       1.0  0.8429826250000001  0.50658651  0.5572883454251919  1.0000
  Co  Co6       1.0  0.19401951499999998  0.51029798  0.6349808816354423  1.0000
  Sb  Sb1       1.0  0.6243865549999997  0.36342851  0.5748422726997703  1.0000
  Sb  Sb2       1.0  0.9598390250000001  0.38058467999999995  0.6451951970214762  1.0000
  Sb  Sb3       1.0  0.291053215  0.36342851  0.502019684086041  1.0000
  Sb  Sb4       1.0  0.7033521749999999  0.65593849  0.6834469816131411  1.0000
  Sb  Sb5       1.0  0.061578704999999956  0.6497445100000001  0.5397344312586783  1.0000
  Sb  Sb6       1.0  0.41735809499999993  0.6547757299999999  0.6173810630256426  1.0000
  Sb  Sb7       1.0  0.695614555  0.14974451  0.48116941929834084  1.0000
  Sb  Sb8       1.0  0.02894788499999999  0.14974451  0.5539919948040051  1.0000
  Sb  Sb9       1.0  0.38093193499999994  0.16936309  0.6223357149375591  1.0000
  Sb  Sb10      1.0  0.3236840349999999  0.8634285099999999  0.4877621205407143  1.0000
  Sb  Sb11      1.0  0.6570173750000001  0.8634285099999999  0.5605847091544435  1.0000
  Sb  Sb12      1.0  0.9888693549999997  0.87713954  0.6353157926936838  1.0000
  Co  Co7       1.0  0.6763159649999999  0.006586509999999986  0.4116431813057984  1.0000
  Co  Co8       1.0  0.009649294999999971  0.006586509999999986  0.26599801718640487  1.0000
  Co  Co9       1.0  0.34298262499999993  0.006586509999999986  0.3388206058001342  1.0000
  Co  Co10      1.0  0.509649295  0.50658651  0.2659980171864049  1.0000
  Co  Co11      1.0  0.8429826250000001  0.50658651  0.3388206058001342  1.0000
  Co  Co12      1.0  0.17631596499999996  0.50658651  0.4116431813057984  1.0000
  Sb  Sb13      1.0  0.6243865549999997  0.36342851  0.3563745199666475  1.0000
  Sb  Sb14      1.0  0.9577198849999998  0.36342851  0.42919710858037685  1.0000
  Sb  Sb15      1.0  0.291053215  0.36342851  0.28355193135291856  1.0000
  Sb  Sb16      1.0  0.7282453749999998  0.6497445100000001  0.46691185575301414  1.0000
  Sb  Sb17      1.0  0.061578704999999956  0.6497445100000001  0.3212666916336206  1.0000
  Sb  Sb18      1.0  0.39491203499999983  0.6497445100000001  0.3940892671392849  1.0000
  Sb  Sb19      1.0  0.695614555  0.14974451  0.26270166656521815  1.0000
  Sb  Sb20      1.0  0.02894788499999999  0.14974451  0.3355242551789474  1.0000
  Sb  Sb21      1.0  0.36228121499999993  0.14974451  0.40834683068461175  1.0000
  Sb  Sb22      1.0  0.3236840349999999  0.8634285099999999  0.2692943678075916  1.0000
  Sb  Sb23      1.0  0.6570173750000001  0.8634285099999999  0.34211695642132095  1.0000
  Sb  Sb24      1.0  0.9903507050000001  0.8634285099999999  0.41493954503504993  1.0000
