data_image0
_chemical_formula_structural       COPt8V4
_chemical_formula_sum              "C1 O1 Pt8 V4"
_cell_length_a       4.720427152800438
_cell_length_b       4.841635207200291
_cell_length_c       38.29028511
_cell_angle_alpha    94.40477195608221
_cell_angle_beta     90.62537931454673
_cell_angle_gamma    80.99404061208179

_space_group_name_H-M_alt    "P 1"
_space_group_IT_number       1

loop_
  _space_group_symop_operation_xyz
  'x, y, z'

loop_
  _atom_site_type_symbol
  _atom_site_label
  _atom_site_symmetry_multiplicity
  _atom_site_fract_x
  _atom_site_fract_y
  _atom_site_fract_z
  _atom_site_occupancy
  C   C1        1.0  0.45205661500000005  0.057289134999999956  0.5817845096251568  1.0000
  O   O1        1.0  0.372177815  0.20120494499999994  0.6110496422391466  1.0000
  Pt  Pt1       1.0  0.8750092550000002  0.4445112949999999  0.44070910478850134  1.0000
  Pt  Pt2       1.0  0.250009255  0.19451129499999997  0.38895035776085346  1.0000
  Pt  Pt3       1.0  0.794851865  0.9254556349999999  0.407518340357949  1.0000
  Pt  Pt4       1.0  0.41985186499999994  0.17545563499999997  0.45927708738559675  1.0000
  Pt  Pt5       1.0  0.11368113499999995  0.9427108650000001  0.5458598978650013  1.0000
  Pt  Pt6       1.0  0.500009255  0.694511295  0.49246785181614905  1.0000
  Pt  Pt7       1.0  0.04006943499999999  0.421819595  0.5112685251770818  1.0000
  Pt  Pt8       1.0  0.6805236050000001  0.6897229749999999  0.5632059433994691  1.0000
  V   V1        1.0  0.9599305650000001  0.934983465  0.47587246546017314  1.0000
  V   V2        1.0  0.334930565  0.684983465  0.42411371843252527  1.0000
  V   V3        1.0  0.21711801500000003  0.45360282499999993  0.5750521376003771  1.0000
  V   V4        1.0  0.575233155  0.20251719499999996  0.5302281268762878  1.0000
