data_image0
_chemical_formula_structural       Ir12Rh4CO
_chemical_formula_sum              "Ir12 Rh4 C1 O1"
_cell_length_a       4.745000822866808
_cell_length_b       5.48054529
_cell_length_c       105.82944124
_cell_angle_alpha    90.0
_cell_angle_beta     92.55214576289025
_cell_angle_gamma    90.0

_space_group_name_H-M_alt    "P 1"
_space_group_IT_number       1

loop_
  _space_group_symop_operation_xyz
  'x, y, z'

loop_
  _atom_site_type_symbol
  _atom_site_label
  _atom_site_symmetry_multiplicity
  _atom_site_fract_x
  _atom_site_fract_y
  _atom_site_fract_z
  _atom_site_occupancy
  Ir  Ir1       1.0  0.9063681149999999  0.8740087149999999  0.47720950439609244  1.0000
  Ir  Ir2       1.0  0.5930033349999999  0.37503461499999996  0.4979846501545509  1.0000
  Ir  Ir3       1.0  0.21886811499999995  0.37400871499999994  0.45604960738386474  1.0000
  Ir  Ir4       1.0  0.279405725  0.8734675349999999  0.5193403151483521  1.0000
  Ir  Ir5       1.0  0.9063681149999999  0.37400871499999994  0.47720950439609244  1.0000
  Ir  Ir6       1.0  0.5920694449999999  0.875991285  0.4980222369028116  1.0000
  Ir  Ir7       1.0  0.21886811499999995  0.8740087149999999  0.45604960738386474  1.0000
  Ir  Ir8       1.0  0.269575635  0.3751152649999999  0.51843995983769  1.0000
  Ir  Ir9       1.0  0.406368115  0.6240087149999999  0.47720950439609244  1.0000
  Ir  Ir10      1.0  0.09363188499999997  0.12703141499999998  0.4978848092964884  1.0000
  Ir  Ir11      1.0  0.7188681149999999  0.12400871499999998  0.45604960738386474  1.0000
  Ir  Ir12      1.0  0.7888019849999999  0.6242763749999999  0.5192034563200606  1.0000
  Rh  Rh1       1.0  0.7188681149999999  0.6240087149999999  0.45604960738386474  1.0000
  Rh  Rh2       1.0  0.406368115  0.12400871499999998  0.47720950439609244  1.0000
  Rh  Rh3       1.0  0.7861711149999999  0.12901770499999998  0.5194651754686419  1.0000
  Rh  Rh4       1.0  0.09457506499999997  0.6253163649999999  0.49771405739155844  1.0000
  C   C1        1.0  0.610785485  0.8455037649999999  0.5326593598461543  1.0000
  O   O1        1.0  0.6328334849999999  0.867867625  0.5439503926161352  1.0000
