data_image0
_chemical_formula_structural       COCa30Cu30
_chemical_formula_sum              "C1 O1 Ca30 Cu30"
_cell_length_a       10.473261664160646
_cell_length_b       20.15524892836337
_cell_length_c       99.34228859
_cell_angle_alpha    86.2100454950158
_cell_angle_beta     88.45757562744484
_cell_angle_gamma    77.38394507163751

_space_group_name_H-M_alt    "P 1"
_space_group_IT_number       1

loop_
  _space_group_symop_operation_xyz
  'x, y, z'

loop_
  _atom_site_type_symbol
  _atom_site_label
  _atom_site_symmetry_multiplicity
  _atom_site_fract_x
  _atom_site_fract_y
  _atom_site_fract_z
  _atom_site_occupancy
  C   C1        1.0  0.6733747500000001  0.9596132350000001  0.5271521727353975  1.0000
  O   O1        1.0  0.72847387  0.981293765  0.537434313816821  1.0000
  Ca  Ca1       1.0  0.008747019999999975  0.8746195250000001  0.49218099337173227  1.0000
  Ca  Ca2       1.0  0.3267984099999999  0.873157285  0.5163617754958598  1.0000
  Ca  Ca3       1.0  0.67541368  0.8746195250000001  0.4675671994604871  1.0000
  Ca  Ca4       1.0  0.31892208  0.13151364499999998  0.46432475632478987  1.0000
  Ca  Ca5       1.0  0.6522554099999999  0.13151364499999998  0.4889385531896905  1.0000
  Ca  Ca6       1.0  0.9920594300000001  0.13128374499999998  0.5136070547060227  1.0000
  Ca  Ca7       1.0  0.012508309999999953  0.673316965  0.5064225833414784  1.0000
  Ca  Ca8       1.0  0.33748501  0.6720695250000001  0.529821739640413  1.0000
  Ca  Ca9       1.0  0.6767047699999998  0.6746986850000001  0.48213896084406904  1.0000
  Ca  Ca10      1.0  0.29869298999999994  0.329342285  0.5231526900019527  1.0000
  Ca  Ca11      1.0  0.65096433  0.33143448500000006  0.4743667918061085  1.0000
  Ca  Ca12      1.0  0.98429766  0.33143448500000006  0.4989805857173537  1.0000
  Ca  Ca13      1.0  0.17595616999999994  0.474891985  0.4970035180862134  1.0000
  Ca  Ca14      1.0  0.5100107700000001  0.47717033500000006  0.5214921803869674  1.0000
  Ca  Ca15      1.0  0.84262284  0.474891985  0.4723897241749683  1.0000
  Ca  Ca16      1.0  0.13062469999999995  0.527758095  0.5319608329914897  1.0000
  Ca  Ca17      1.0  0.48504625  0.5312411850000001  0.4841160284752093  1.0000
  Ca  Ca18      1.0  0.8159964800000001  0.533152815  0.5081266711880509  1.0000
  Ca  Ca19      1.0  0.007940569999999982  0.274714555  0.4627565218577652  1.0000
  Ca  Ca20      1.0  0.34127389999999996  0.274714555  0.48737031576901035  1.0000
  Ca  Ca21      1.0  0.66726618  0.27974408500000003  0.5120291204347056  1.0000
  Ca  Ca22      1.0  0.3197285199999999  0.7314186150000002  0.49374923079241234  1.0000
  Ca  Ca23      1.0  0.6548807100000001  0.7357347750000002  0.5182278034063625  1.0000
  Ca  Ca24      1.0  0.9863951900000001  0.7314186150000002  0.4691354339275118  1.0000
  Ca  Ca25      1.0  0.34294063  0.073499655  0.501674443484276  1.0000
  Ca  Ca26      1.0  0.64326413  0.08769279499999999  0.5266934552854425  1.0000
  Ca  Ca27      1.0  0.008330539999999975  0.07488116499999999  0.47745490349415376  1.0000
  Ca  Ca28      1.0  0.9324133700000002  0.9352343750000001  0.5274756747953683  1.0000
  Ca  Ca29      1.0  0.31933854999999994  0.9312520050000002  0.47905084915602386  1.0000
  Ca  Ca30      1.0  0.65563514  0.930516045  0.5038454688037468  1.0000
  Cu  Cu1       1.0  0.8840457400000001  0.810760575  0.5153750714698023  1.0000
  Cu  Cu2       1.0  0.20673993999999998  0.815323635  0.4673193434686454  1.0000
  Cu  Cu3       1.0  0.54007327  0.815323635  0.4919331373798906  1.0000
  Cu  Cu4       1.0  0.45368637999999994  0.196666335  0.5118052540319212  1.0000
  Cu  Cu5       1.0  0.7875958200000001  0.190809535  0.4645726152702869  1.0000
  Cu  Cu6       1.0  0.12092915999999992  0.190809535  0.4891864091815321  1.0000
  Cu  Cu7       1.0  0.19496513999999993  0.615340425  0.483825314943695  1.0000
  Cu  Cu8       1.0  0.52680832  0.617479255  0.507781185071031  1.0000
  Cu  Cu9       1.0  0.8604509100000001  0.617769085  0.5302372155754951  1.0000
  Cu  Cu10      1.0  0.13270395999999995  0.39079274500000005  0.47268043770648255  1.0000
  Cu  Cu11      1.0  0.4660372899999999  0.39079274500000005  0.49729423161772773  1.0000
  Cu  Cu12      1.0  0.8034431  0.394018095  0.5209571404817994  1.0000
  Cu  Cu13      1.0  0.025673179999999955  0.418608975  0.5209623448225923  1.0000
  Cu  Cu14      1.0  0.36090517000000005  0.415272425  0.47409212843796994  1.0000
  Cu  Cu15      1.0  0.6942385100000001  0.415272425  0.49870592234921507  1.0000
  Cu  Cu16      1.0  0.29706459  0.588289515  0.5071585427007254  1.0000
  Cu  Cu17      1.0  0.6345899100000001  0.597412045  0.529961199433189  1.0000
  Cu  Cu18      1.0  0.9667639199999999  0.590860745  0.4824136242122076  1.0000
  Cu  Cu19      1.0  0.21318462999999999  0.21365918500000003  0.5105948076566055  1.0000
  Cu  Cu20      1.0  0.5389362899999999  0.21530751500000003  0.4625656861831791  1.0000
  Cu  Cu21      1.0  0.87226962  0.21530751500000003  0.48717948009442424  1.0000
  Cu  Cu22      1.0  0.12320361999999993  0.790225855  0.517233812712464  1.0000
  Cu  Cu23      1.0  0.45539947000000003  0.790825655  0.4693262696020978  1.0000
  Cu  Cu24      1.0  0.7887328  0.790825655  0.49394006646699845  1.0000
  Cu  Cu25      1.0  0.22909814999999994  0.00882816499999999  0.5252004622357589  1.0000
  Cu  Cu26      1.0  0.53963174  0.015353034999999992  0.47722789440203695  1.0000
  Cu  Cu27      1.0  0.8705897700000002  0.020201424999999988  0.5014206270158623  1.0000
  Cu  Cu28      1.0  0.11572689  0.9911718350000001  0.5042522521310235  1.0000
  Cu  Cu29      1.0  0.47860837000000006  0.977242275  0.5257625192267562  1.0000
  Cu  Cu30      1.0  0.78803735  0.9907801350000002  0.4792778552944852  1.0000
