data_image0
_chemical_formula_structural       Si3Pd6Si3Pd6CO
_chemical_formula_sum              "Si6 Pd12 C1 O1"
_cell_length_a       6.57659251
_cell_length_b       6.576592517697482
_cell_length_c       98.28600304
_cell_angle_alpha    90.0
_cell_angle_beta     90.0
_cell_angle_gamma    120.00000001158149

_space_group_name_H-M_alt    "P 1"
_space_group_IT_number       1

loop_
  _space_group_symop_operation_xyz
  'x, y, z'

loop_
  _atom_site_type_symbol
  _atom_site_label
  _atom_site_symmetry_multiplicity
  _atom_site_fract_x
  _atom_site_fract_y
  _atom_site_fract_z
  _atom_site_occupancy
  Si  Si1       1.0  0.79934373  0.46613332500000004  0.47394472148070005  1.0000
  Si  Si2       1.0  0.46601039  0.7994666650000001  0.47394472148070005  1.0000
  Si  Si3       1.0  0.13267706000000004  0.13279999500000003  0.45595767210114074  1.0000
  Pd  Pd1       1.0  0.8673229399999999  0.8674458749999999  0.47394472148070005  1.0000
  Pd  Pd2       1.0  0.39803118000000004  0.13279999500000003  0.47394472148070005  1.0000
  Pd  Pd3       1.0  0.13267706  0.39815411500000003  0.47394472148070005  1.0000
  Pd  Pd4       1.0  0.52655687  0.526679805  0.45595767210114074  1.0000
  Pd  Pd5       1.0  0.73879725  0.13279999500000003  0.45595767210114074  1.0000
  Pd  Pd6       1.0  0.13267706  0.7389201849999999  0.45595767210114074  1.0000
  Si  Si4       1.0  0.8079323999999999  0.4672571750000001  0.5066217163844922  1.0000
  Si  Si5       1.0  0.47345806999999995  0.798390875  0.5066206486732411  1.0000
  Si  Si6       1.0  0.13625309000000005  0.13283015500000003  0.49277684273110167  1.0000
  Pd  Pd7       1.0  0.8609098499999999  0.8563494749999999  0.5095564804833332  1.0000
  Pd  Pd8       1.0  0.41460175  0.13283591500000003  0.5123464560294885  1.0000
  Pd  Pd9       1.0  0.13733248000000003  0.409293095  0.5095554530630726  1.0000
  Pd  Pd10      1.0  0.5262436500000001  0.509861285  0.4923320330726929  1.0000
  Pd  Pd11      1.0  0.74000657  0.13284131500000002  0.49223328273263517  1.0000
  Pd  Pd12      1.0  0.14927226000000007  0.755779175  0.4923307149817143  1.0000
  C   C1        1.0  0.42654238000000005  0.13269759500000003  0.5323301254487369  1.0000
  O   O1        1.0  0.44931194999999996  0.13255412500000002  0.5440423278988593  1.0000
