data_image0
_chemical_formula_structural       COV2Ir2V2Ir2V2Ir2V2Ir2V2Ir2V2Ir2
_chemical_formula_sum              "C1 O1 V12 Ir12"
_cell_length_a       7.882270780995085
_cell_length_b       5.50903502
_cell_length_c       100.29969261
_cell_angle_alpha    90.0
_cell_angle_beta     69.54587178955929
_cell_angle_gamma    90.0

_space_group_name_H-M_alt    "P 1"
_space_group_IT_number       1

loop_
  _space_group_symop_operation_xyz
  'x, y, z'

loop_
  _atom_site_type_symbol
  _atom_site_label
  _atom_site_symmetry_multiplicity
  _atom_site_fract_x
  _atom_site_fract_y
  _atom_site_fract_z
  _atom_site_occupancy
  C   C1        1.0  0.38931793000000003  0.09546525499999994  0.5317119835519725  1.0000
  O   O1        1.0  0.23370002  0.15592385499999994  0.5424930036902382  1.0000
  V   V1        1.0  0.62714479  0.39447287499999995  0.5184767835017795  1.0000
  V   V2        1.0  0.12874681999999998  0.38946917499999995  0.531430044501312  1.0000
  Ir  Ir1       1.0  0.37552299  0.14425008499999997  0.511550572760428  1.0000
  Ir  Ir2       1.0  0.8815722300000001  0.14351205499999994  0.5253389327026848  1.0000
  V   V3        1.0  0.61842777  0.39117032499999993  0.4918355868639162  1.0000
  V   V4        1.0  0.11870106000000001  0.392300805  0.506285648202916  1.0000
  Ir  Ir3       1.0  0.36842777  0.14117032499999996  0.4849698669405359  1.0000
  Ir  Ir4       1.0  0.86842777  0.14117032499999996  0.4987013037663808  1.0000
  V   V5        1.0  0.61842777  0.39117032499999993  0.46437271623314225  1.0000
  V   V6        1.0  0.11842776999999997  0.39117032499999993  0.47810415003807133  1.0000
  Ir  Ir5       1.0  0.36842777  0.14117032499999996  0.45750699630976194  1.0000
  Ir  Ir6       1.0  0.86842777  0.14117032499999996  0.4712384331356068  1.0000
  V   V7        1.0  0.6107671100000001  0.9045347450000001  0.5211296611295093  1.0000
  V   V8        1.0  0.12751162  0.896832565  0.5314390015166579  1.0000
  Ir  Ir7       1.0  0.37687393  0.6404455149999999  0.5127312493660469  1.0000
  Ir  Ir8       1.0  0.8795264700000001  0.642859735  0.5258039513344637  1.0000
  V   V9        1.0  0.61842777  0.891170325  0.4918355868639162  1.0000
  V   V10       1.0  0.1184282  0.891470885  0.5065663758663407  1.0000
  Ir  Ir9       1.0  0.36842777  0.6411703249999999  0.4849698669405359  1.0000
  Ir  Ir10      1.0  0.86842777  0.6411703249999999  0.4987013037663808  1.0000
  V   V11       1.0  0.61842777  0.891170325  0.46437271623314225  1.0000
  V   V12       1.0  0.11842776999999997  0.891170325  0.47810415003807133  1.0000
  Ir  Ir11      1.0  0.36842777  0.6411703249999999  0.45750699630976194  1.0000
  Ir  Ir12      1.0  0.86842777  0.6411703249999999  0.4712384331356068  1.0000
