data_image0
_chemical_formula_structural       CORh12Sn4
_chemical_formula_sum              "C1 O1 Rh12 Sn4"
_cell_length_a       4.790399856935138
_cell_length_b       5.72646829
_cell_length_c       106.75329282
_cell_angle_alpha    90.0
_cell_angle_beta     92.1215670889483
_cell_angle_gamma    90.0

_space_group_name_H-M_alt    "P 1"
_space_group_IT_number       1

loop_
  _space_group_symop_operation_xyz
  'x, y, z'

loop_
  _atom_site_type_symbol
  _atom_site_label
  _atom_site_symmetry_multiplicity
  _atom_site_fract_x
  _atom_site_fract_y
  _atom_site_fract_z
  _atom_site_occupancy
  C   C1        1.0  0.30694020499999997  0.12499986  0.5342253423505281  1.0000
  O   O1        1.0  0.318167555  0.12501622  0.5454061410166863  1.0000
  Rh  Rh1       1.0  0.5651773549999999  0.37500789  0.47611151657091805  1.0000
  Rh  Rh2       1.0  0.9348226449999999  0.87167216  0.4970996538693056  1.0000
  Rh  Rh3       1.0  0.19017735499999994  0.87500789  0.45459385898331395  1.0000
  Rh  Rh4       1.0  0.29294925499999996  0.37510823  0.5207871004056656  1.0000
  Rh  Rh5       1.0  0.5651773549999999  0.87500789  0.47611151657091805  1.0000
  Rh  Rh6       1.0  0.9348085349999998  0.37833512999999996  0.49709951959912224  1.0000
  Rh  Rh7       1.0  0.19017735499999994  0.37500789  0.45459385898331395  1.0000
  Rh  Rh8       1.0  0.29294508499999994  0.87486832  0.5207878991411151  1.0000
  Rh  Rh9       1.0  0.06517735499999996  0.62500789  0.47611151657091805  1.0000
  Rh  Rh10      1.0  0.43061616499999994  0.12501892  0.4980149461665779  1.0000
  Rh  Rh11      1.0  0.690177355  0.12500789  0.4545938589833139  1.0000
  Rh  Rh12      1.0  0.7868745949999999  0.6249934300000001  0.5189341340044044  1.0000
  Sn  Sn1       1.0  0.690177355  0.62500789  0.4545938589833139  1.0000
  Sn  Sn2       1.0  0.06517735499999996  0.12500789  0.47611151657091805  1.0000
  Sn  Sn3       1.0  0.7965449149999999  0.12499210999999999  0.5180885107181629  1.0000
  Sn  Sn4       1.0  0.4342974849999999  0.62503535  0.49765239945741596  1.0000
