data_image0
_chemical_formula_structural       COCa3Cu15Ca3Cu15
_chemical_formula_sum              "C1 O1 Ca6 Cu30"
_cell_length_a       5.199088643034211
_cell_length_b       9.709019078499791
_cell_length_c       109.72668594000001
_cell_angle_alpha    84.11902039784205
_cell_angle_beta     113.11726835265381
_cell_angle_gamma    74.46985639348216

_space_group_name_H-M_alt    "P 1"
_space_group_IT_number       1

loop_
  _space_group_symop_operation_xyz
  'x, y, z'

loop_
  _atom_site_type_symbol
  _atom_site_label
  _atom_site_symmetry_multiplicity
  _atom_site_fract_x
  _atom_site_fract_y
  _atom_site_fract_z
  _atom_site_occupancy
  C   C1        1.0  0.042150039999999875  0.52281054  0.5565043803810398  1.0000
  O   O1        1.0  0.11318242999999983  0.5216627500000001  0.5681999252876423  1.0000
  Ca  Ca1       1.0  0.007659759999999932  0.0017846700000000155  0.4820849736530068  1.0000
  Ca  Ca2       1.0  0.007659759999999923  0.335118  0.4418570552245902  1.0000
  Ca  Ca3       1.0  0.00765975999999983  0.6684513400000001  0.46197101624905484  1.0000
  Cu  Cu1       1.0  0.6743264299999999  0.8906735600000001  0.43515240154976875  1.0000
  Cu  Cu2       1.0  0.6743264299999998  0.22400689000000004  0.4552663625742333  1.0000
  Cu  Cu3       1.0  0.6743264299999999  0.55734023  0.47538031997818514  1.0000
  Cu  Cu4       1.0  0.3409930899999998  0.77956245  0.44856170889941177  1.0000
  Cu  Cu5       1.0  0.3409930899999999  0.11289578000000003  0.46867566630336366  1.0000
  Cu  Cu6       1.0  0.3409930899999999  0.44622911000000004  0.4887896273278283  1.0000
  Cu  Cu7       1.0  0.007659759999999932  0.0017846700000000155  0.45191403573682254  1.0000
  Cu  Cu8       1.0  0.007659759999999923  0.335118  0.47202799314077437  1.0000
  Cu  Cu9       1.0  0.00765975999999983  0.6684513400000001  0.4318000747123579  1.0000
  Cu  Cu10      1.0  0.5076597599999999  0.0017846700000000155  0.45191403573682254  1.0000
  Cu  Cu11      1.0  0.5076597599999999  0.335118  0.47202799314077437  1.0000
  Cu  Cu12      1.0  0.5076597599999998  0.6684513400000001  0.4318000747123579  1.0000
  Cu  Cu13      1.0  0.5076597599999999  0.16845134  0.431800074712358  1.0000
  Cu  Cu14      1.0  0.5076597599999999  0.50178467  0.4519140357368225  1.0000
  Cu  Cu15      1.0  0.5076597599999999  0.835118  0.4720279931407744  1.0000
  Ca  Ca4       1.0  0.9956957  0.9982153300000001  0.5411226720229804  1.0000
  Ca  Ca5       1.0  0.007659759999999923  0.335118  0.5021989346774712  1.0000
  Ca  Ca6       1.0  0.005832769999999824  0.66365609  0.521758023167362  1.0000
  Cu  Cu16      1.0  0.6743264299999999  0.8906735600000001  0.4954942810026498  1.0000
  Cu  Cu17      1.0  0.6743264299999998  0.22400689000000004  0.5156082384066016  1.0000
  Cu  Cu18      1.0  0.6923250699999997  0.5461191700000001  0.5392997583632182  1.0000
  Cu  Cu19      1.0  0.3409930899999998  0.77956245  0.5089035883522928  1.0000
  Cu  Cu20      1.0  0.3378582499999999  0.11510956000000001  0.5286843029062807  1.0000
  Cu  Cu21      1.0  0.31202999  0.45892383999999997  0.5474348947063039  1.0000
  Cu  Cu22      1.0  0.007659759999999932  0.0017846700000000155  0.5122559115691909  1.0000
  Cu  Cu23      1.0  0.004304299999999905  0.33240332  0.5317504209741452  1.0000
  Cu  Cu24      1.0  0.00765975999999983  0.6684513400000001  0.492141954165239  1.0000
  Cu  Cu25      1.0  0.5076597599999999  0.0017846700000000155  0.5122559115691909  1.0000
  Cu  Cu26      1.0  0.5017415699999999  0.33685502000000006  0.5322334589163421  1.0000
  Cu  Cu27      1.0  0.5076597599999998  0.6684513400000001  0.492141954165239  1.0000
  Cu  Cu28      1.0  0.5076597599999999  0.16845134  0.492141954165239  1.0000
  Cu  Cu29      1.0  0.5076597599999999  0.50178467  0.5122559115691909  1.0000
  Cu  Cu30      1.0  0.4951461999999999  0.8341102300000001  0.5318519473911316  1.0000
