data_image0
_chemical_formula_structural       Pt8W4CO
_chemical_formula_sum              "Pt8 W4 C1 O1"
_cell_length_a       4.845183672373061
_cell_length_b       4.845183670783191
_cell_length_c       102.15932511
_cell_angle_alpha    91.4463159116423
_cell_angle_beta     91.44631591116763
_cell_angle_gamma    119.71002032098193

_space_group_name_H-M_alt    "P 1"
_space_group_IT_number       1

loop_
  _space_group_symop_operation_xyz
  'x, y, z'

loop_
  _atom_site_type_symbol
  _atom_site_label
  _atom_site_symmetry_multiplicity
  _atom_site_fract_x
  _atom_site_fract_y
  _atom_site_fract_z
  _atom_site_occupancy
  Pt  Pt1       1.0  0.8143254549999999  0.486566585  0.4737398676932229  1.0000
  Pt  Pt2       1.0  0.4571825949999999  0.12942372500000002  0.4512544548119319  1.0000
  Pt  Pt3       1.0  0.13120091499999997  0.455405405  0.4512544548119319  1.0000
  Pt  Pt4       1.0  0.4883437750000001  0.8125482650000001  0.4737398676932229  1.0000
  Pt  Pt5       1.0  0.5366467049999999  0.20707511500000003  0.5183795566198869  1.0000
  Pt  Pt6       1.0  0.176005395  0.8503143250000001  0.4958695644835754  1.0000
  Pt  Pt7       1.0  0.850660485  0.17561090500000004  0.4958820902079256  1.0000
  Pt  Pt8       1.0  0.203289945  0.5375142350000001  0.5184172282316734  1.0000
  W   W1        1.0  0.7941917549999999  0.7924145650000001  0.4512544548119319  1.0000
  W   W2        1.0  0.15133461499999995  0.149557425  0.47373986769322296  1.0000
  W   W3        1.0  0.510969315  0.511196165  0.49697376736843574  1.0000
  W   W4        1.0  0.8687990849999999  0.870576275  0.5181950012940568  1.0000
  C   C1        1.0  0.761109025  0.793661275  0.5375783314989944  1.0000
  O   O1        1.0  0.7137420449999998  0.7632333750000001  0.5487455451880681  1.0000
