data_image0
_chemical_formula_structural       COPd8Sn24
_chemical_formula_sum              "C1 O1 Pd8 Sn24"
_cell_length_a       9.406142417820602
_cell_length_b       9.382684554542097
_cell_length_c       106.35516236000001
_cell_angle_alpha    93.93151857506857
_cell_angle_beta     90.13546738529432
_cell_angle_gamma    75.62100749173867

_space_group_name_H-M_alt    "P 1"
_space_group_IT_number       1

loop_
  _space_group_symop_operation_xyz
  'x, y, z'

loop_
  _atom_site_type_symbol
  _atom_site_label
  _atom_site_symmetry_multiplicity
  _atom_site_fract_x
  _atom_site_fract_y
  _atom_site_fract_z
  _atom_site_occupancy
  C   C1        1.0  0.7861918000000001  0.15576944000000004  0.5407049677941153  1.0000
  O   O1        1.0  0.8069145  0.11757703000000007  0.5509037725208137  1.0000
  Pd  Pd1       1.0  0.65068949  0.7074179500000001  0.48059408628300304  1.0000
  Pd  Pd2       1.0  0.76917753  0.20930226000000005  0.5232642415048249  1.0000
  Pd  Pd3       1.0  0.33132406999999997  0.2925820600000001  0.487871954468109  1.0000
  Pd  Pd4       1.0  0.43285401999999995  0.7948571200000001  0.526857734704796  1.0000
  Pd  Pd5       1.0  0.44502342999999994  0.29358148000000006  0.5270599019827867  1.0000
  Pd  Pd6       1.0  0.33132406999999997  0.79258206  0.48787195446810905  1.0000
  Pd  Pd7       1.0  0.65068949  0.20741795000000005  0.480594086283003  1.0000
  Pd  Pd8       1.0  0.75343646  0.6982048200000001  0.5210978080253321  1.0000
  Sn  Sn1       1.0  0.5735480500000001  0.50668279  0.520714201913524  1.0000
  Sn  Sn2       1.0  0.46879766  0.9990207799999999  0.47664132511807616  1.0000
  Sn  Sn3       1.0  0.5593391200000001  0.15986966000000002  0.5049498577822293  1.0000
  Sn  Sn4       1.0  0.4282619699999999  0.6611635300000002  0.4627850951182912  1.0000
  Sn  Sn5       1.0  0.55028624  0.8445465500000001  0.5050831638287112  1.0000
  Sn  Sn6       1.0  0.4287515799999999  0.33883647  0.46295245747897135  1.0000
  Sn  Sn7       1.0  0.5132159  0.5009792200000001  0.4918247156330359  1.0000
  Sn  Sn8       1.0  0.38821589999999995  0.0009792200000000454  0.4490962274791863  1.0000
  Sn  Sn9       1.0  0.92853785  0.42361677000000003  0.5246199993425512  1.0000
  Sn  Sn10      1.0  0.8253424  0.91599338  0.48386823018079134  1.0000
  Sn  Sn11      1.0  0.22590716999999993  0.41971585000000006  0.5120963683399133  1.0000
  Sn  Sn12      1.0  0.11402766999999996  0.9134326799999999  0.4700210791301694  1.0000
  Sn  Sn13      1.0  0.11410563999999995  0.25426873000000005  0.4700477280336611  1.0000
  Sn  Sn14      1.0  0.20952286999999994  0.76356261  0.5118553113011446  1.0000
  Sn  Sn15      1.0  0.78555141  0.41630522999999997  0.4702665594220318  1.0000
  Sn  Sn16      1.0  0.88248237  0.91695098  0.5137375661516236  1.0000
  Sn  Sn17      1.0  0.15667115999999995  0.58400663  0.48459781398859975  1.0000
  Sn  Sn18      1.0  0.30102262999999996  0.07980892000000005  0.5252192065690255  1.0000
  Sn  Sn19      1.0  0.8679858899999999  0.58656733  0.49844496162094265  1.0000
  Sn  Sn20      1.0  0.7429858899999999  0.08656733000000005  0.45571647346709315  1.0000
  Sn  Sn21      1.0  0.8679079199999999  0.24573128  0.4984183127174509  1.0000
  Sn  Sn22      1.0  0.74290792  0.7457312800000001  0.4556898245636014  1.0000
  Sn  Sn23      1.0  0.19646214999999997  0.08369478000000004  0.49819948474735937  1.0000
  Sn  Sn24      1.0  0.07146214999999996  0.5836947800000001  0.45547099659350976  1.0000
