data_image0
_chemical_formula_structural       COIn9Pd6In9Pd6
_chemical_formula_sum              "C1 O1 In18 Pd12"
_cell_length_a       5.63132775
_cell_length_b       12.341397059898185
_cell_length_c       102.65226745999999
_cell_angle_alpha    79.10660534127658
_cell_angle_beta     90.0
_cell_angle_gamma    90.0

_space_group_name_H-M_alt    "P 1"
_space_group_IT_number       1

loop_
  _space_group_symop_operation_xyz
  'x, y, z'

loop_
  _atom_site_type_symbol
  _atom_site_label
  _atom_site_symmetry_multiplicity
  _atom_site_fract_x
  _atom_site_fract_y
  _atom_site_fract_z
  _atom_site_occupancy
  C   C1        1.0  0.8760104150000001  0.2671097499999999  0.5449060468474859  1.0000
  O   O1        1.0  0.860305155  0.26019758  0.5563651968500428  1.0000
  In  In1       1.0  0.025818734999999992  0.7309160099999998  0.4688797381452226  1.0000
  In  In2       1.0  0.025818734999999992  0.39758266999999997  0.453732776511891  1.0000
  In  In3       1.0  0.025818734999999992  0.06424933999999997  0.4840266997785542  1.0000
  In  In4       1.0  0.38307549500000004  0.6198048999999999  0.4486837882404931  1.0000
  In  In5       1.0  0.38307549500000004  0.28647155999999996  0.4789777115071563  1.0000
  In  In6       1.0  0.38307549500000004  0.95313823  0.4638307498738247  1.0000
  In  In7       1.0  0.668561975  0.8420271199999998  0.4436348031499571  1.0000
  In  In8       1.0  0.668561975  0.50869378  0.4739287232357585  1.0000
  In  In9       1.0  0.668561975  0.17536044999999997  0.45878176478328875  1.0000
  Pd  Pd1       1.0  0.880174865  0.6198048999999999  0.4486837882404931  1.0000
  Pd  Pd2       1.0  0.880174865  0.28647155999999996  0.4789777115071563  1.0000
  Pd  Pd3       1.0  0.880174865  0.95313823  0.4638307498738247  1.0000
  Pd  Pd4       1.0  0.171462605  0.8420271199999998  0.4436348031499571  1.0000
  Pd  Pd5       1.0  0.171462605  0.50869378  0.4739287232357585  1.0000
  Pd  Pd6       1.0  0.171462605  0.17536044999999997  0.45878176478328875  1.0000
  In  In10      1.0  0.026373634999999993  0.7275383699999999  0.5161154402111237  1.0000
  In  In11      1.0  0.025818734999999992  0.39758266999999997  0.4991736582310239  1.0000
  In  In12      1.0  0.9741812650000001  0.04686176999999998  0.5302417809898697  1.0000
  In  In13      1.0  0.38307549500000004  0.6198048999999999  0.4941246731404879  1.0000
  In  In14      1.0  0.38665300500000005  0.29573821  0.5230519995780482  1.0000
  In  In15      1.0  0.39212653500000005  0.94921271  0.509990166003921  1.0000
  In  In16      1.0  0.668561975  0.8420271199999998  0.4890756848690901  1.0000
  In  In17      1.0  0.6751932650000001  0.51608281  0.5207682616899151  1.0000
  In  In18      1.0  0.670582445  0.17427553999999998  0.5040426542575147  1.0000
  Pd  Pd7       1.0  0.880174865  0.6198048999999999  0.4941246731404879  1.0000
  Pd  Pd8       1.0  0.889952245  0.28346732999999996  0.5257308609361224  1.0000
  Pd  Pd9       1.0  0.887620185  0.9439990899999999  0.5093118408667687  1.0000
  Pd  Pd10      1.0  0.171462605  0.8420271199999998  0.4890756848690901  1.0000
  Pd  Pd11      1.0  0.179375835  0.51253512  0.5180242117504403  1.0000
  Pd  Pd12      1.0  0.17049274499999997  0.17242001999999998  0.5047223153566163  1.0000
