data_image0
_chemical_formula_structural       COCa4Cu20Ca4Cu20
_chemical_formula_sum              "C1 O1 Ca8 Cu40"
_cell_length_a       6.621114325854974
_cell_length_b       9.00508568
_cell_length_c       109.72668594000001
_cell_angle_alpha    90.0
_cell_angle_beta     76.51633954005668
_cell_angle_gamma    90.0

_space_group_name_H-M_alt    "P 1"
_space_group_IT_number       1

loop_
  _space_group_symop_operation_xyz
  'x, y, z'

loop_
  _atom_site_type_symbol
  _atom_site_label
  _atom_site_symmetry_multiplicity
  _atom_site_fract_x
  _atom_site_fract_y
  _atom_site_fract_z
  _atom_site_occupancy
  C   C1        1.0  0.33663481000000006  0.47631938499999993  0.5564806877459649  1.0000
  O   O1        1.0  0.20938258000000004  0.461155545  0.5660151341430131  1.0000
  Ca  Ca1       1.0  0.66942231  0.076157735  0.5248383626090912  1.0000
  Ca  Ca2       1.0  0.18280904000000003  0.075571045  0.4943267453098679  1.0000
  Ca  Ca3       1.0  0.43280904000000003  0.575571045  0.5094122160782164  1.0000
  Ca  Ca4       1.0  0.9421909599999999  0.579554405  0.5401282439036733  1.0000
  Cu  Cu1       1.0  0.68324375  0.413962875  0.5243606938872204  1.0000
  Cu  Cu2       1.0  0.18280904000000003  0.408904375  0.4943267453098679  1.0000
  Cu  Cu3       1.0  0.43280904000000003  0.9089043749999999  0.5094122160782164  1.0000
  Cu  Cu4       1.0  0.9250431800000001  0.924428955  0.5394551724911534  1.0000
  Cu  Cu5       1.0  0.9156348799999999  0.234552325  0.5392786761177963  1.0000
  Cu  Cu6       1.0  0.43280904000000003  0.24223771499999996  0.5094122160782164  1.0000
  Cu  Cu7       1.0  0.67967165  0.735307655  0.5244523652686518  1.0000
  Cu  Cu8       1.0  0.18280904000000003  0.7422377150000001  0.4943267453098679  1.0000
  Cu  Cu9       1.0  0.68280904  0.075571045  0.494326745309868  1.0000
  Cu  Cu10      1.0  0.18299617000000004  0.076327575  0.5244959200363698  1.0000
  Cu  Cu11      1.0  0.41605859000000006  0.580414985  0.540300377559233  1.0000
  Cu  Cu12      1.0  0.93280904  0.575571045  0.5094122160782164  1.0000
  Cu  Cu13      1.0  0.56239638  0.342630105  0.546420702208196  1.0000
  Cu  Cu14      1.0  0.05780904000000003  0.325571045  0.5169549496521342  1.0000
  Cu  Cu15      1.0  0.29923993000000004  0.820584835  0.5319856384428983  1.0000
  Cu  Cu16      1.0  0.80780904  0.825571045  0.5018694788837859  1.0000
  Cu  Cu17      1.0  0.29889313000000006  0.329976605  0.5316807767919485  1.0000
  Cu  Cu18      1.0  0.80780904  0.325571045  0.5018694788837859  1.0000
  Cu  Cu19      1.0  0.05780904000000003  0.825571045  0.5169549496521342  1.0000
  Cu  Cu20      1.0  0.56581157  0.826751625  0.5455890306165695  1.0000
  Ca  Ca5       1.0  0.68280904  0.075571045  0.46415580739368384  1.0000
  Ca  Ca6       1.0  0.18280904000000003  0.075571045  0.43398486585698687  1.0000
  Ca  Ca7       1.0  0.43280904000000003  0.575571045  0.4490703366253353  1.0000
  Ca  Ca8       1.0  0.93280904  0.575571045  0.4792412745415195  1.0000
  Cu  Cu21      1.0  0.68280904  0.408904375  0.46415580739368384  1.0000
  Cu  Cu22      1.0  0.18280904000000003  0.408904375  0.43398486585698687  1.0000
  Cu  Cu23      1.0  0.43280904000000003  0.9089043749999999  0.4490703366253353  1.0000
  Cu  Cu24      1.0  0.93280904  0.9089043749999999  0.4792412745415195  1.0000
  Cu  Cu25      1.0  0.93280904  0.24223771499999996  0.4792412745415195  1.0000
  Cu  Cu26      1.0  0.43280904000000003  0.24223771499999996  0.4490703366253353  1.0000
  Cu  Cu27      1.0  0.68280904  0.7422377150000001  0.46415580739368384  1.0000
  Cu  Cu28      1.0  0.18280904000000003  0.7422377150000001  0.43398486585698687  1.0000
  Cu  Cu29      1.0  0.68280904  0.075571045  0.4339848658569869  1.0000
  Cu  Cu30      1.0  0.18280904000000003  0.075571045  0.46415580739368373  1.0000
  Cu  Cu31      1.0  0.43280904000000003  0.575571045  0.47924127454151955  1.0000
  Cu  Cu32      1.0  0.93280904  0.575571045  0.4490703366253353  1.0000
  Cu  Cu33      1.0  0.5578090400000001  0.325571045  0.4867840117359501  1.0000
  Cu  Cu34      1.0  0.05780904000000003  0.325571045  0.4566130701992532  1.0000
  Cu  Cu35      1.0  0.30780904000000003  0.825571045  0.47169854096760166  1.0000
  Cu  Cu36      1.0  0.80780904  0.825571045  0.44152760305141747  1.0000
  Cu  Cu37      1.0  0.30780904000000003  0.325571045  0.47169854096760166  1.0000
  Cu  Cu38      1.0  0.80780904  0.325571045  0.44152760305141747  1.0000
  Cu  Cu39      1.0  0.05780904000000003  0.825571045  0.4566130701992532  1.0000
  Cu  Cu40      1.0  0.5578090400000001  0.825571045  0.4867840117359501  1.0000
