data_image0
_chemical_formula_structural       COAl24Mo2
_chemical_formula_sum              "C1 O1 Al24 Mo2"
_cell_length_a       6.59992342
_cell_length_b       6.59992342442769
_cell_length_c       102.33288945999999
_cell_angle_alpha    90.0
_cell_angle_beta     90.0
_cell_angle_gamma    109.47122059020785

_space_group_name_H-M_alt    "P 1"
_space_group_IT_number       1

loop_
  _space_group_symop_operation_xyz
  'x, y, z'

loop_
  _atom_site_type_symbol
  _atom_site_label
  _atom_site_symmetry_multiplicity
  _atom_site_fract_x
  _atom_site_fract_y
  _atom_site_fract_z
  _atom_site_occupancy
  C   C1        1.0  0.40549817499999996  0.6290837699999999  0.5492160961026932  1.0000
  O   O1        1.0  0.392406395  0.63784428  0.5608773550324241  1.0000
  Al  Al1       1.0  0.914610205  0.73125694  0.5015858624367179  1.0000
  Al  Al2       1.0  0.414610205  0.23125694000000005  0.44892620704260544  1.0000
  Al  Al3       1.0  0.26043891500000005  0.76874306  0.44555629754816645  1.0000
  Al  Al4       1.0  0.7604389150000002  0.26874306000000003  0.49821595610185837  1.0000
  Al  Al5       1.0  0.35213103500000015  0.04467614000000004  0.5281057672739085  1.0000
  Al  Al6       1.0  0.8535230850000001  0.54799559  0.4755450888656476  1.0000
  Al  Al7       1.0  0.966627305  0.06598650000000005  0.5182840628936768  1.0000
  Al  Al8       1.0  0.452096335  0.5770856400000001  0.4657415267906181  1.0000
  Al  Al9       1.0  0.672843805  0.9840014699999999  0.455359859623196  1.0000
  Al  Al10      1.0  0.16905448500000003  0.48391903000000003  0.5077560598040266  1.0000
  Al  Al11      1.0  0.770918845  0.26077318000000005  0.5341653698817278  1.0000
  Al  Al12      1.0  0.26592797500000004  0.7632540000000001  0.48534864778109776  1.0000
  Al  Al13      1.0  0.9868165550000001  0.6796781399999999  0.5281189964330657  1.0000
  Al  Al14      1.0  0.4811863850000001  0.17565889000000004  0.4755450888656476  1.0000
  Al  Al15      1.0  0.546090795  0.8605379599999999  0.5078844777511936  1.0000
  Al  Al16      1.0  0.04518050500000001  0.35633817  0.455359859623196  1.0000
  Al  Al17      1.0  0.5649503750000001  0.46459427000000003  0.5176435813837819  1.0000
  Al  Al18      1.0  0.07427055500000006  0.9549114200000001  0.46516342169822555  1.0000
  Al  Al19      1.0  0.21759420500000007  0.4066644000000001  0.5344949076992069  1.0000
  Al  Al20      1.0  0.728441855  0.91742529  0.48197874144623826  1.0000
  Al  Al21      1.0  0.297925035  0.11457177000000003  0.5015858624367179  1.0000
  Al  Al22      1.0  0.7979250350000001  0.6145717700000001  0.44892620704260544  1.0000
  Al  Al23      1.0  0.6255182550000001  0.81394787  0.5344902441599387  1.0000
  Al  Al24      1.0  0.11175668500000005  0.30074012  0.48197874144623826  1.0000
  Mo  Mo1       1.0  0.5131834450000001  0.5159985300000001  0.4917823035212678  1.0000
  Mo  Mo2       1.0  0.013183445000000035  0.01599853000000004  0.4391226449675758  1.0000
