data_image0
_chemical_formula_structural       COGa6Pt10Ga6Pt10
_chemical_formula_sum              "C1 O1 Ga12 Pt20"
_cell_length_a       5.572155370659247
_cell_length_b       8.02075862
_cell_length_c       103.43293223
_cell_angle_alpha    90.0
_cell_angle_beta     85.60883485991778
_cell_angle_gamma    90.0

_space_group_name_H-M_alt    "P 1"
_space_group_IT_number       1

loop_
  _space_group_symop_operation_xyz
  'x, y, z'

loop_
  _atom_site_type_symbol
  _atom_site_label
  _atom_site_symmetry_multiplicity
  _atom_site_fract_x
  _atom_site_fract_y
  _atom_site_fract_z
  _atom_site_occupancy
  C   C1        1.0  0.41064449000000003  0.451466075  0.5514570167853883  1.0000
  O   O1        1.0  0.39275746000000006  0.509255165  0.5618611841605121  1.0000
  Ga  Ga1       1.0  0.22016489999999997  0.124161715  0.4920109726917162  1.0000
  Ga  Ga2       1.0  0.22016489999999997  0.124161715  0.43813881583948794  1.0000
  Ga  Ga3       1.0  0.50561579  0.374161715  0.4535166688806824  1.0000
  Ga  Ga4       1.0  0.53671033  0.374231485  0.507885854581683  1.0000
  Ga  Ga5       1.0  0.98007113  0.369867805  0.5306976227367123  1.0000
  Ga  Ga6       1.0  0.9347140099999999  0.374161715  0.4766331164181922  1.0000
  Pt  Pt1       1.0  0.7588515499999999  0.128732205  0.5206107796172311  1.0000
  Pt  Pt2       1.0  0.7201649  0.124161715  0.4650748942656021  1.0000
  Pt  Pt3       1.0  0.25699685  0.133215875  0.5173995474917147  1.0000
  Pt  Pt4       1.0  0.22016489999999997  0.124161715  0.4650748942656021  1.0000
  Pt  Pt5       1.0  0.7201649  0.124161715  0.438138815839488  1.0000
  Pt  Pt6       1.0  0.7201649  0.124161715  0.49201097269171623  1.0000
  Pt  Pt7       1.0  0.01146474999999999  0.374161715  0.5032541008960465  1.0000
  Pt  Pt8       1.0  0.01146474999999999  0.374161715  0.4493819408114887  1.0000
  Pt  Pt9       1.0  0.43023172000000004  0.35729021499999997  0.5348352437408447  1.0000
  Pt  Pt10      1.0  0.42886505  0.374161715  0.48076784448738596  1.0000
  Ga  Ga7       1.0  0.22016489999999997  0.624161715  0.4920109726917162  1.0000
  Ga  Ga8       1.0  0.22016489999999997  0.624161715  0.43813881583948794  1.0000
  Ga  Ga9       1.0  0.50561579  0.874161715  0.4535166688806824  1.0000
  Ga  Ga10      1.0  0.53143191  0.8729191249999999  0.5064748586967186  1.0000
  Ga  Ga11      1.0  0.98853525  0.8740130549999999  0.5298202844588723  1.0000
  Ga  Ga12      1.0  0.9347140099999999  0.874161715  0.4766331164181922  1.0000
  Pt  Pt11      1.0  0.76406247  0.6174377249999999  0.5206458956453583  1.0000
  Pt  Pt12      1.0  0.7201649  0.624161715  0.4650748942656021  1.0000
  Pt  Pt13      1.0  0.26037530000000003  0.6160812649999999  0.5172897969744991  1.0000
  Pt  Pt14      1.0  0.22016489999999997  0.624161715  0.4650748942656021  1.0000
  Pt  Pt15      1.0  0.7201649  0.624161715  0.438138815839488  1.0000
  Pt  Pt16      1.0  0.7201649  0.624161715  0.49201097269171623  1.0000
  Pt  Pt17      1.0  0.01146474999999999  0.874161715  0.5032541008960465  1.0000
  Pt  Pt18      1.0  0.01146474999999999  0.874161715  0.4493819408114887  1.0000
  Pt  Pt19      1.0  0.45762802  0.8758382849999999  0.5304558444870883  1.0000
  Pt  Pt20      1.0  0.42886505  0.874161715  0.48076784448738596  1.0000
