data_image0
_chemical_formula_structural       Pt4Sn8CO
_chemical_formula_sum              "Pt4 Sn8 C1 O1"
_cell_length_a       4.65759902
_cell_length_b       4.65759902
_cell_length_c       30.47896181
_cell_angle_alpha    90.0
_cell_angle_beta     90.0
_cell_angle_gamma    90.0

_space_group_name_H-M_alt    "P 1"
_space_group_IT_number       1

loop_
  _space_group_symop_operation_xyz
  'x, y, z'

loop_
  _atom_site_type_symbol
  _atom_site_label
  _atom_site_symmetry_multiplicity
  _atom_site_fract_x
  _atom_site_fract_y
  _atom_site_fract_z
  _atom_site_occupancy
  Pt  Pt1       1.0  1.1500000003551605e-07  4.380000000009546e-06  0.4320881604805451  1.0000
  Pt  Pt2       1.0  0.5000001150000001  0.50000438  0.324032651964198  1.0000
  Pt  Pt3       1.0  5.550000000355161e-07  0.99999562  0.6404739517672101  1.0000
  Pt  Pt4       1.0  0.500000285  0.5000031  0.539368651636609  1.0000
  Sn  Sn1       1.0  0.5000001150000001  4.380000000009546e-06  0.27000489122269367  1.0000
  Sn  Sn2       1.0  1.1500000003551605e-07  0.50000438  0.27000489122269367  1.0000
  Sn  Sn3       1.0  1.1500000003551605e-07  0.50000438  0.37806039973904093  1.0000
  Sn  Sn4       1.0  0.5000001150000001  4.380000000009546e-06  0.37806039973904093  1.0000
  Sn  Sn5       1.0  0.5000001150000001  4.380000000009546e-06  0.48611592122204944  1.0000
  Sn  Sn6       1.0  1.1500000003551605e-07  0.50000438  0.48611592122204944  1.0000
  Sn  Sn7       1.0  6.750000000355161e-07  0.4999927  0.5922385673025043  1.0000
  Sn  Sn8       1.0  0.500000725  0.9999944900000001  0.5982524141584168  1.0000
  C   C1        1.0  1.4500000003551605e-07  0.50001101  0.6918628283185966  1.0000
  O   O1        1.0  0.9999998849999999  0.50000836  0.7299951087773064  1.0000
