data_image0
_chemical_formula_structural       COSb12Rh24
_chemical_formula_sum              "C1 O1 Sb12 Rh24"
_cell_length_a       5.86395039
_cell_length_b       11.70199238109457
_cell_length_c       106.47118676
_cell_angle_alpha    74.04340323483129
_cell_angle_beta     90.0
_cell_angle_gamma    90.0

_space_group_name_H-M_alt    "P 1"
_space_group_IT_number       1

loop_
  _space_group_symop_operation_xyz
  'x, y, z'

loop_
  _atom_site_type_symbol
  _atom_site_label
  _atom_site_symmetry_multiplicity
  _atom_site_fract_x
  _atom_site_fract_y
  _atom_site_fract_z
  _atom_site_occupancy
  C   C1        1.0  0.7954713800000002  0.82998049  0.5427311333672132  1.0000
  O   O1        1.0  0.77260887  0.7864745700000001  0.5539673364784715  1.0000
  Sb  Sb1       1.0  0.71851095  0.45251679000000006  0.49212011404089007  1.0000
  Sb  Sb2       1.0  0.71851095  0.78585012  0.46357468748700364  1.0000
  Sb  Sb3       1.0  0.7064808  0.13502755999999996  0.5211070024849933  1.0000
  Sb  Sb4       1.0  0.28604404  0.88093207  0.5225462332621659  1.0000
  Sb  Sb5       1.0  0.28625439  0.21414987999999996  0.4941125415050001  1.0000
  Sb  Sb6       1.0  0.28625439  0.54748321  0.46556711495111364  1.0000
  Sb  Sb7       1.0  0.21298301000000003  0.5383064  0.5110613389593713  1.0000
  Sb  Sb8       1.0  0.21851095  0.8808165400000001  0.47983982994078256  1.0000
  Sb  Sb9       1.0  0.21851095  0.21414987999999996  0.4512943999614447  1.0000
  Sb  Sb10      1.0  0.7770390100000002  0.7832604  0.5064846345514797  1.0000
  Sb  Sb11      1.0  0.7862543900000001  0.11918345999999996  0.4778474024766725  1.0000
  Sb  Sb12      1.0  0.7862543900000001  0.45251679000000006  0.44930197249733467  1.0000
  Rh  Rh1       1.0  0.16139740000000002  0.43986612  0.48995340303889257  1.0000
  Rh  Rh2       1.0  0.16139740000000002  0.7731994600000001  0.46140797648500603  1.0000
  Rh  Rh3       1.0  0.15876150000000003  0.11290872999999996  0.51747713735378  1.0000
  Rh  Rh4       1.0  0.8273477  0.90708352  0.5249707334544149  1.0000
  Rh  Rh5       1.0  0.8421834  0.22497984999999995  0.4960578724388635  1.0000
  Rh  Rh6       1.0  0.8433679400000001  0.56013388  0.4677338259531112  1.0000
  Rh  Rh7       1.0  0.6644589900000001  0.55601716  0.5103140801786046  1.0000
  Rh  Rh8       1.0  0.6613974  0.8934672100000001  0.4820065409427801  1.0000
  Rh  Rh9       1.0  0.6613974  0.22680053999999997  0.4534611143888937  1.0000
  Rh  Rh10      1.0  0.34321242  0.7717170200000001  0.5035127335359326  1.0000
  Rh  Rh11      1.0  0.34336794000000004  0.10653278999999996  0.47568068804922364  1.0000
  Rh  Rh12      1.0  0.34336794000000004  0.43986612  0.44713526149533717  1.0000
  Rh  Rh13      1.0  0.05290116000000002  0.68104076  0.5243527101011806  1.0000
  Rh  Rh14      1.0  0.03667554000000002  0.980063  0.4984266747925927  1.0000
  Rh  Rh15      1.0  0.04144088000000002  0.3165715499999999  0.46883642392691965  1.0000
  Rh  Rh16      1.0  0.96332446  0.6834284500000001  0.4888508050650841  1.0000
  Rh  Rh17      1.0  0.96332446  0.016761779999999962  0.46030537851119757  1.0000
  Rh  Rh18      1.0  0.9505242100000001  0.34790332  0.5146973527757104  1.0000
  Rh  Rh19      1.0  0.54144088  0.6834284500000001  0.4460326635215287  1.0000
  Rh  Rh20      1.0  0.54201776  0.018408509999999965  0.5029917532186925  1.0000
  Rh  Rh21      1.0  0.54144088  0.35009510999999993  0.4745780900754151  1.0000
  Rh  Rh22      1.0  0.46332446000000005  0.6499048900000001  0.4831091389165886  1.0000
  Rh  Rh23      1.0  0.46332446000000005  0.9832382200000002  0.45456371236270204  1.0000
  Rh  Rh24      1.0  0.44778281  0.32521938  0.5114337369000039  1.0000
