data_image0
_chemical_formula_structural       COGe8Na24Se28
_chemical_formula_sum              "C1 O1 Ge8 Na24 Se28"
_cell_length_a       16.267658563478122
_cell_length_b       7.401541535478819
_cell_length_c       113.85831077
_cell_angle_alpha    92.34515401249541
_cell_angle_beta     100.4454080640361
_cell_angle_gamma    80.7634345409108

_space_group_name_H-M_alt    "P 1"
_space_group_IT_number       1

loop_
  _space_group_symop_operation_xyz
  'x, y, z'

loop_
  _atom_site_type_symbol
  _atom_site_label
  _atom_site_symmetry_multiplicity
  _atom_site_fract_x
  _atom_site_fract_y
  _atom_site_fract_z
  _atom_site_occupancy
  C   C1        1.0  0.05992232500000001  0.9019400049999998  0.5661615033770484  1.0000
  O   O1        1.0  0.04697269500000001  0.8471054549999999  0.5748485283846864  1.0000
  Ge  Ge1       1.0  0.26937600500000003  0.8014641749999999  0.5468284646898627  1.0000
  Ge  Ge2       1.0  0.17351680500000005  0.08098042499999993  0.48587178469951986  1.0000
  Ge  Ge3       1.0  0.341092445  0.817117625  0.46554375312276536  1.0000
  Ge  Ge4       1.0  0.5026465050000001  0.6280802749999999  0.5310514648362212  1.0000
  Ge  Ge5       1.0  0.02615602500000001  0.521573895  0.5443152799435136  1.0000
  Ge  Ge6       1.0  0.8685256250000001  0.6250854149999998  0.4761110317617109  1.0000
  Ge  Ge7       1.0  0.700949985  0.888948215  0.49643906333846527  1.0000
  Ge  Ge8       1.0  0.534283315  0.05561488499999993  0.43223893110018646  1.0000
  Na  Na1       1.0  0.937687885  0.4363662549999999  0.4488913421114759  1.0000
  Na  Na2       1.0  0.104354545  0.2696995849999999  0.5130914743497547  1.0000
  Na  Na3       1.0  0.43768788500000005  0.43636625499999987  0.44889134211147597  1.0000
  Na  Na4       1.0  0.604354545  0.2696995849999999  0.5130914743497547  1.0000
  Na  Na5       1.0  0.276973125  0.3669501049999999  0.545071968366993  1.0000
  Na  Na6       1.0  0.09750770500000001  0.5844968649999999  0.4829713614552884  1.0000
  Na  Na7       1.0  0.326907445  0.944959945  0.4337013343271704  1.0000
  Na  Na8       1.0  0.49357410500000004  0.7782932749999999  0.49790146656544915  1.0000
  Na  Na9       1.0  0.05880154500000001  0.973927535  0.5421853121988435  1.0000
  Na  Na10      1.0  0.9445347250000001  0.12156897499999987  0.4790114550059422  1.0000
  Na  Na11      1.0  0.717132365  0.7352534149999999  0.5274258163686885  1.0000
  Na  Na12      1.0  0.5484683250000001  0.927772565  0.4640813498957815  1.0000
  Na  Na13      1.0  0.36772335500000003  0.1761179149999999  0.5182411504659716  1.0000
  Na  Na14      1.0  0.20105669500000004  0.3427845849999999  0.454041018227693  1.0000
  Na  Na15      1.0  0.674319075  0.5299479249999999  0.44374166599525894  1.0000
  Na  Na16      1.0  0.840985735  0.36328125499999997  0.5079417982335377  1.0000
  Na  Na17      1.0  0.533875395  0.2158673249999999  0.5460639798024802  1.0000
  Na  Na18      1.0  0.3872534350000001  0.33718218499999986  0.48388790435283624  1.0000
  Na  Na19      1.0  0.08036366500000001  0.8898610349999998  0.44942621266249533  1.0000
  Na  Na20      1.0  0.24703032500000005  0.7231943649999999  0.5136263449007741  1.0000
  Na  Na21      1.0  0.834247405  0.17407263499999986  0.5376367496127671  1.0000
  Na  Na22      1.0  0.654789005  0.3688836549999999  0.4780949121083945  1.0000
  Na  Na23      1.0  0.961678775  0.8162048050000001  0.5125566037987354  1.0000
  Na  Na24      1.0  0.7950121050000001  0.982871475  0.4483564715604566  1.0000
  Se  Se1       1.0  0.07553218500000002  0.4822962149999999  0.43271845215030497  1.0000
  Se  Se2       1.0  0.24219884500000005  0.3156295449999999  0.4969185843885837  1.0000
  Se  Se3       1.0  0.25720058500000004  0.6889373149999999  0.4486381149669477  1.0000
  Se  Se4       1.0  0.42386724500000006  0.5222706449999999  0.5128382472052265  1.0000
  Se  Se5       1.0  0.9738439750000001  0.2933032349999999  0.5290139067600469  1.0000
  Se  Se6       1.0  0.799843585  0.39043629499999993  0.4650642320726469  1.0000
  Se  Se7       1.0  0.7848418550000001  0.017128524999999874  0.5133447014942829  1.0000
  Se  Se8       1.0  0.618175185  0.18379519499999983  0.4491445692560042  1.0000
  Se  Se9       1.0  0.09380711500000002  0.939372205  0.4978946253994947  1.0000
  Se  Se10      1.0  0.9271404450000001  0.1060388649999999  0.43369449701322377  1.0000
  Se  Se11      1.0  0.638437385  0.4364147849999999  0.5373396789148076  1.0000
  Se  Se12      1.0  0.47041341500000006  0.611446925  0.4726312126076382  1.0000
  Se  Se13      1.0  0.948235315  0.7666936349999999  0.464088191061736  1.0000
  Se  Se14      1.0  0.147629685  0.635335915  0.5328022563354544  1.0000
  Se  Se15      1.0  0.404962345  0.26128558499999993  0.42515147161531375  1.0000
  Se  Se16      1.0  0.571629015  0.09461891499999985  0.4893516038535925  1.0000
  Se  Se17      1.0  0.259480365  0.03982250499999992  0.5324515194640276  1.0000
  Se  Se18      1.0  0.09046456500000001  0.20034734499999995  0.4675067016587526  1.0000
  Se  Se19      1.0  0.531434645  0.930140755  0.528068003858611  1.0000
  Se  Se20      1.0  0.364519675  0.11512589499999994  0.46094122775861673  1.0000
  Se  Se21      1.0  0.784911205  0.6723851649999999  0.43027598256419924  1.0000
  Se  Se22      1.0  0.9515778750000001  0.505718495  0.49447611480247805  1.0000
  Se  Se23      1.0  0.510856095  0.7576066149999999  0.4368414564643352  1.0000
  Se  Se24      1.0  0.677522765  0.590939945  0.501041588702614  1.0000
  Se  Se25      1.0  0.42204034500000004  0.5938614849999998  0.5471945903326793  1.0000
  Se  Se26      1.0  0.277591485  0.8070410149999998  0.483522283323049  1.0000
  Se  Se27      1.0  0.9087890450000001  0.7800872349999999  0.541498356673604  1.0000
  Se  Se28      1.0  0.764450945  0.8990248250000001  0.47846053313818165  1.0000
