data_image0
_chemical_formula_structural       COCo12Sb12
_chemical_formula_sum              "C1 O1 Co12 Sb12"
_cell_length_a       6.534097453802765
_cell_length_b       8.55157106899258
_cell_length_c       99.91442297
_cell_angle_alpha    91.04170235176497
_cell_angle_beta     95.33542893330561
_cell_angle_gamma    94.77438516299128

_space_group_name_H-M_alt    "P 1"
_space_group_IT_number       1

loop_
  _space_group_symop_operation_xyz
  'x, y, z'

loop_
  _atom_site_type_symbol
  _atom_site_label
  _atom_site_symmetry_multiplicity
  _atom_site_fract_x
  _atom_site_fract_y
  _atom_site_fract_z
  _atom_site_occupancy
  C   C1        1.0  0.507259125  0.09386148999999998  0.5350067207035918  1.0000
  O   O1        1.0  0.600368295  0.12720810999999999  0.5454033174182293  1.0000
  Co  Co1       1.0  0.5177464549999999  0.08253219999999999  0.48682381443888084  1.0000
  Co  Co2       1.0  0.267746455  0.74919887  0.4618737751336314  1.0000
  Co  Co3       1.0  0.892746455  0.41586553  0.4743487947862561  1.0000
  Co  Co4       1.0  0.9552464549999998  0.9158655299999999  0.45563626680432123  1.0000
  Co  Co5       1.0  0.5802464549999999  0.5825322  0.468111286456946  1.0000
  Co  Co6       1.0  0.205246455  0.24919886999999996  0.48058630311556627  1.0000
  Co  Co7       1.0  0.3567057349999999  0.05034967999999998  0.5198577197244069  1.0000
  Co  Co8       1.0  0.143824705  0.7615384000000001  0.5008337134807003  1.0000
  Co  Co9       1.0  0.7775652749999998  0.41739281  0.5100490466869257  1.0000
  Co  Co10      1.0  0.8287637649999999  0.91266578  0.49264663219008  1.0000
  Co  Co11      1.0  0.44389500499999995  0.5716142399999999  0.5047790898264517  1.0000
  Co  Co12      1.0  0.08618623499999996  0.24676149999999997  0.5157681072129706  1.0000
  Sb  Sb1       1.0  0.632329795  0.8880877599999999  0.46915087067949696  1.0000
  Sb  Sb2       1.0  0.257329795  0.55475442  0.48162589033212166  1.0000
  Sb  Sb3       1.0  0.007329794999999972  0.22142108999999996  0.45667585102687225  1.0000
  Sb  Sb4       1.0  0.15316312499999996  0.94364331  0.4795467188930153  1.0000
  Sb  Sb5       1.0  0.903163125  0.6103099799999999  0.4545966825817704  1.0000
  Sb  Sb6       1.0  0.528163125  0.27697664  0.46707169924039055  1.0000
  Sb  Sb7       1.0  0.525390715  0.86708632  0.5066450043146625  1.0000
  Sb  Sb8       1.0  0.12977962499999995  0.54459099  0.518903925706143  1.0000
  Sb  Sb9       1.0  0.882551985  0.21902613  0.49370110859090005  1.0000
  Sb  Sb10      1.0  0.9926702049999999  0.94965032  0.518039290147203  1.0000
  Sb  Sb11      1.0  0.778163125  0.6103099799999999  0.4920217385456401  1.0000
  Sb  Sb12      1.0  0.4180865149999999  0.27606575  0.5048147334497518  1.0000
