data_image0
_chemical_formula_structural       COPd12V4
_chemical_formula_sum              "C1 O1 Pd12 V4"
_cell_length_a       4.80472757
_cell_length_b       4.804727563366874
_cell_length_c       103.05157642
_cell_angle_alpha    90.0
_cell_angle_beta     90.0
_cell_angle_gamma    110.04600954940815

_space_group_name_H-M_alt    "P 1"
_space_group_IT_number       1

loop_
  _space_group_symop_operation_xyz
  'x, y, z'

loop_
  _atom_site_type_symbol
  _atom_site_label
  _atom_site_symmetry_multiplicity
  _atom_site_fract_x
  _atom_site_fract_y
  _atom_site_fract_z
  _atom_site_occupancy
  C   C1        1.0  0.499999995  0.49999953500000005  0.5512091928145539  1.0000
  O   O1        1.0  0.5000013150000001  0.5000004050000001  0.5625216105661697  1.0000
  Pd  Pd1       1.0  7.650000000550132e-07  0.5000007150000001  0.4374783894338304  1.0000
  Pd  Pd2       1.0  0.500000765  7.150000000196174e-07  0.4642057624688879  1.0000
  Pd  Pd3       1.0  0.500000765  7.150000000196174e-07  0.4374783894338304  1.0000
  Pd  Pd4       1.0  7.650000000550132e-07  0.5000007150000001  0.4642057624688879  1.0000
  Pd  Pd5       1.0  0.5000007650000001  0.5000007150000001  0.4775694505900591  1.0000
  Pd  Pd6       1.0  7.650000000203663e-07  7.150000000196174e-07  0.4508420743477166  1.0000
  Pd  Pd7       1.0  7.650000000550132e-07  0.5000007150000001  0.49093313550394546  1.0000
  Pd  Pd8       1.0  0.4999993850000001  0.9999987950000001  0.5182062312707464  1.0000
  Pd  Pd9       1.0  0.500000765  7.150000000196174e-07  0.49093313550394546  1.0000
  Pd  Pd10      1.0  0.999998865  0.49999951500000006  0.5182062280634615  1.0000
  Pd  Pd11      1.0  0.49999832500000013  0.4999983650000001  0.5325900829486688  1.0000
  Pd  Pd12      1.0  1.9500000002036626e-07  1.2500000001961746e-07  0.5040138929883249  1.0000
  V   V1        1.0  0.5000007650000001  0.5000007150000001  0.4508420743477166  1.0000
  V   V2        1.0  7.650000000203663e-07  7.150000000196174e-07  0.4775694505900591  1.0000
  V   V3        1.0  0.49999986499999993  0.499999895  0.5048481623127069  1.0000
  V   V4        1.0  0.999999805  0.999999875  0.5280809194236019  1.0000
