data_image0
_chemical_formula_structural       COSi12V20
_chemical_formula_sum              "C1 O1 Si12 V20"
_cell_length_a       4.74404692
_cell_length_b       7.079945880214754
_cell_length_c       110.02460471
_cell_angle_alpha    90.0
_cell_angle_beta     90.0
_cell_angle_gamma    109.57461296888283

_space_group_name_H-M_alt    "P 1"
_space_group_IT_number       1

loop_
  _space_group_symop_operation_xyz
  'x, y, z'

loop_
  _atom_site_type_symbol
  _atom_site_label
  _atom_site_symmetry_multiplicity
  _atom_site_fract_x
  _atom_site_fract_y
  _atom_site_fract_z
  _atom_site_occupancy
  C   C1        1.0  0.9690610599999999  0.20403369499999996  0.5589471181727445  1.0000
  O   O1        1.0  0.02574119999999994  0.293506955  0.5681163015019685  1.0000
  Si  Si1       1.0  0.021973180000000037  0.9087122550000001  0.5137168278129024  1.0000
  Si  Si2       1.0  0.52197318  0.9087122550000001  0.45308704774993686  1.0000
  Si  Si3       1.0  0.8551155899999999  0.073356225  0.5442383277606668  1.0000
  Si  Si4       1.0  0.3560797299999999  0.076925355  0.48340193596252623  1.0000
  Si  Si5       1.0  0.8560797300000001  0.576925355  0.4329708801648915  1.0000
  Si  Si6       1.0  0.3560797299999999  0.576925355  0.4936006602278569  1.0000
  Si  Si7       1.0  0.19018627999999999  0.24513845500000003  0.45308704774993686  1.0000
  Si  Si8       1.0  0.6901862799999999  0.24513845500000003  0.5137168278129024  1.0000
  Si  Si9       1.0  0.8560797300000001  0.076925355  0.48340193596252623  1.0000
  Si  Si10      1.0  0.3587140299999999  0.079594175  0.5437092589718672  1.0000
  Si  Si11      1.0  0.35471706  0.5784865050000001  0.5346410860668036  1.0000
  Si  Si12      1.0  0.8560797300000001  0.576925355  0.4732032153349822  1.0000
  V   V1        1.0  0.53448646  0.925937335  0.5258510110439664  1.0000
  V   V2        1.0  0.030938940000000192  0.926643775  0.4652258837102298  1.0000
  V   V3        1.0  0.10607972999999994  0.576925355  0.45308704774993686  1.0000
  V   V4        1.0  0.60607973  0.576925355  0.5137168278129024  1.0000
  V   V5        1.0  0.25597350999999996  0.376712905  0.43188369849803165  1.0000
  V   V6        1.0  0.75597351  0.376712905  0.4925134749232104  1.0000
  V   V7        1.0  0.9507823299999998  0.776790405  0.5343958082964644  1.0000
  V   V8        1.0  0.45618595  0.777137805  0.47429039700184206  1.0000
  V   V9        1.0  0.60607973  0.576925355  0.45308704774993686  1.0000
  V   V10       1.0  0.10607972999999994  0.576925355  0.5137168278129024  1.0000
  V   V11       1.0  0.7552174300000001  0.382208115  0.5342469573390044  1.0000
  V   V12       1.0  0.25597350999999996  0.376712905  0.47429039700184206  1.0000
  V   V13       1.0  0.68122052  0.227206935  0.4409482117896439  1.0000
  V   V14       1.0  0.18122051999999997  0.227206935  0.5015779918526093  1.0000
  V   V15       1.0  0.53093894  0.926643775  0.5015779918526093  1.0000
  V   V16       1.0  0.030938940000000192  0.926643775  0.4409482117896439  1.0000
  V   V17       1.0  0.45618595  0.777137805  0.43188369849803165  1.0000
  V   V18       1.0  0.9561859500000001  0.777137805  0.4925134749232104  1.0000
  V   V19       1.0  0.68122052  0.227206935  0.4652258837102298  1.0000
  V   V20       1.0  0.17876527999999997  0.23026969500000002  0.5258850461766218  1.0000
