data_image0
_chemical_formula_structural       CONa16Ge8Se20
_chemical_formula_sum              "C1 O1 Na16 Ge8 Se20"
_cell_length_a       10.228598635588003
_cell_length_b       10.950626359165996
_cell_length_c       105.41960172
_cell_angle_alpha    113.74683447892643
_cell_angle_beta     97.97510859178563
_cell_angle_gamma    90.1397081348262

_space_group_name_H-M_alt    "P 1"
_space_group_IT_number       1

loop_
  _space_group_symop_operation_xyz
  'x, y, z'

loop_
  _atom_site_type_symbol
  _atom_site_label
  _atom_site_symmetry_multiplicity
  _atom_site_fract_x
  _atom_site_fract_y
  _atom_site_fract_z
  _atom_site_occupancy
  C   C1        1.0  0.83571547  0.489730765  0.5584483106911645  1.0000
  O   O1        1.0  0.78718167  0.47145863499999996  0.5667443707402671  1.0000
  Na  Na1       1.0  0.65223182  0.33195246500000003  0.5065372813550786  1.0000
  Na  Na2       1.0  0.15223182  0.33195246500000003  0.45053946904045744  1.0000
  Na  Na3       1.0  0.44735873  0.5202657049999999  0.4833935147832893  1.0000
  Na  Na4       1.0  0.89262182  0.542217345  0.5363318575644281  1.0000
  Na  Na5       1.0  0.7439447400000001  0.242919845  0.4631017391347688  1.0000
  Na  Na6       1.0  0.22681441999999996  0.22263751499999998  0.5162039561505002  1.0000
  Na  Na7       1.0  0.36878191  0.6121904549999999  0.524055888599368  1.0000
  Na  Na8       1.0  0.85564582  0.6092983249999999  0.4708312446889779  1.0000
  Na  Na9       1.0  0.5497952800000001  0.42610908499999994  0.4389675874344971  1.0000
  Na  Na10      1.0  0.04979527999999998  0.42610908499999994  0.4949653963892495  1.0000
  Na  Na11      1.0  0.5497952800000001  0.9261090849999999  0.4949653963892495  1.0000
  Na  Na12      1.0  0.04979527999999998  0.9261090849999999  0.43896758743449715  1.0000
  Na  Na13      1.0  0.41673551  0.02120201499999996  0.5343449925056929  1.0000
  Na  Na14      1.0  0.94088336  0.02961600499999997  0.4817255785384759  1.0000
  Na  Na15      1.0  0.6587071999999999  0.8226021649999999  0.4522074052852708  1.0000
  Na  Na16      1.0  0.1587072  0.8226021649999999  0.5082052175998919  1.0000
  Ge  Ge1       1.0  0.33995439  0.6963412449999999  0.4540953625300491  1.0000
  Ge  Ge2       1.0  0.83995439  0.6963412449999999  0.5100931748446702  1.0000
  Ge  Ge3       1.0  0.7409431099999999  0.05477592499999997  0.5325789984936965  1.0000
  Ge  Ge4       1.0  0.25963616999999994  0.15587692499999994  0.47983762129369756  1.0000
  Ge  Ge5       1.0  0.66339329  0.7912415650000001  0.5254049262690774  1.0000
  Ge  Ge6       1.0  0.16210995999999997  0.7599428549999999  0.4692468582984232  1.0000
  Ge  Ge7       1.0  0.4374806  0.09227531499999997  0.4646861255253235  1.0000
  Ge  Ge8       1.0  0.9403146099999999  0.09236161499999997  0.5221475503912271  1.0000
  Se  Se1       1.0  0.45557234  0.776194705  0.5108876090723516  1.0000
  Se  Se2       1.0  0.9562812500000001  0.771318475  0.45612048977321745  1.0000
  Se  Se3       1.0  0.64330931  0.08089969499999997  0.4778124940505292  1.0000
  Se  Se4       1.0  0.15240480999999997  0.09204598499999997  0.5341257610748658  1.0000
  Se  Se5       1.0  0.74394002  0.978797985  0.433255629259733  1.0000
  Se  Se6       1.0  0.24394001999999998  0.9787979849999998  0.4892534382144855  1.0000
  Se  Se7       1.0  0.35565054  0.8734201850000001  0.4446795456092612  1.0000
  Se  Se8       1.0  0.8556505400000001  0.8734201849999998  0.5006773545640136  1.0000
  Se  Se9       1.0  0.84323006  0.354892655  0.4438170740409783  1.0000
  Se  Se10      1.0  0.34323006  0.354892655  0.49981488635559945  1.0000
  Se  Se11      1.0  0.25636049  0.49732551500000005  0.4341181008280159  1.0000
  Se  Se12      1.0  0.7563604899999999  0.49732551500000005  0.4901159097827684  1.0000
  Se  Se13      1.0  0.44511953000000004  0.252295045  0.4547186954456252  1.0000
  Se  Se14      1.0  0.93462726  0.26487160499999995  0.5136237315646088  1.0000
  Se  Se15      1.0  0.64057886  0.688320235  0.5408527154161323  1.0000
  Se  Se16      1.0  0.15447102999999998  0.599923125  0.47921428837812147  1.0000
  Se  Se17      1.0  0.5840024100000001  0.19341579499999995  0.5283760480558379  1.0000
  Se  Se18      1.0  0.056372279999999976  0.18148125499999995  0.467309860410513  1.0000
  Se  Se19      1.0  0.5432182799999999  0.6707369150000001  0.46662312341323364  1.0000
  Se  Se20      1.0  0.04371874999999998  0.670092905  0.522796418308708  1.0000
