data_image0
_chemical_formula_structural       CONa16Ge8Se20
_chemical_formula_sum              "C1 O1 Na16 Ge8 Se20"
_cell_length_a       7.254448651753208
_cell_length_b       15.527055860982749
_cell_length_c       105.17906405
_cell_angle_alpha    106.11366784549804
_cell_angle_beta     101.8550616466417
_cell_angle_gamma    71.97143964551375

_space_group_name_H-M_alt    "P 1"
_space_group_IT_number       1

loop_
  _space_group_symop_operation_xyz
  'x, y, z'

loop_
  _atom_site_type_symbol
  _atom_site_label
  _atom_site_symmetry_multiplicity
  _atom_site_fract_x
  _atom_site_fract_y
  _atom_site_fract_z
  _atom_site_occupancy
  C   C1        1.0  0.5636676500000001  0.47358228  0.5579923184734383  1.0000
  O   O1        1.0  0.56651849  0.4565726500000001  0.5679729198083749  1.0000
  Na  Na1       1.0  0.8211048  0.20366407000000006  0.513380837973032  1.0000
  Na  Na2       1.0  0.8197323000000001  0.7046985600000002  0.45607657935010393  1.0000
  Na  Na3       1.0  0.23125421999999995  0.7997430600000001  0.44567809665036884  1.0000
  Na  Na4       1.0  0.23125421999999998  0.29974306000000006  0.5014228164944529  1.0000
  Na  Na5       1.0  0.1158518699999999  0.8999549600000002  0.48777180003570914  1.0000
  Na  Na6       1.0  0.11585187  0.39995496  0.4320270801916251  1.0000
  Na  Na7       1.0  0.93513465  0.10448666000000004  0.4697275958088477  1.0000
  Na  Na8       1.0  0.9218696  0.6110371900000002  0.5252963451844249  1.0000
  Na  Na9       1.0  0.52549326  0.002220810000000025  0.4787496979222784  1.0000
  Na  Na10      1.0  0.5493222299999999  0.49928138000000005  0.5333697045170216  1.0000
  Na  Na11      1.0  0.025493259999999993  0.5022208100000001  0.4787496979222784  1.0000
  Na  Na12      1.0  0.04916437999999997  0.982983  0.5313952611413594  1.0000
  Na  Na13      1.0  0.7526224800000001  0.8086269600000002  0.5013708200506111  1.0000
  Na  Na14      1.0  0.7526224799999999  0.30862696  0.44562610020652704  1.0000
  Na  Na15      1.0  0.29836404  0.19581466000000003  0.4561285757939457  1.0000
  Na  Na16      1.0  0.30141076999999983  0.6978193200000001  0.5126677247735831  1.0000
  Ge  Ge1       1.0  0.6002594299999999  0.96487909  0.444458457949293  1.0000
  Ge  Ge2       1.0  0.6002594299999999  0.46487909  0.500203177793377  1.0000
  Ge  Ge3       1.0  0.45170472999999994  0.03459041000000003  0.512913943621738  1.0000
  Ge  Ge4       1.0  0.4507270899999999  0.5395625300000001  0.4572962180511798  1.0000
  Ge  Ge5       1.0  0.6428173699999999  0.34011443  0.47920232720004946  1.0000
  Ge  Ge6       1.0  0.6566760700000001  0.8391851300000001  0.5371625885580881  1.0000
  Ge  Ge7       1.0  0.4081691499999999  0.6643271900000002  0.4782970686445074  1.0000
  Ge  Ge8       1.0  0.34976799  0.17602744  0.5311410284324398  1.0000
  Se  Se1       1.0  0.96585037  0.30149003  0.47362785421223613  1.0000
  Se  Se2       1.0  0.9745067400000003  0.79798912  0.5296956169311444  1.0000
  Se  Se3       1.0  0.08513614999999995  0.7029515900000001  0.48387154163232077  1.0000
  Se  Se4       1.0  0.09933038  0.18404964000000004  0.5417926467850297  1.0000
  Se  Se5       1.0  0.3953499799999999  0.8971831800000002  0.5167947426587125  1.0000
  Se  Se6       1.0  0.38235014000000006  0.40113844000000004  0.4616058255327179  1.0000
  Se  Se7       1.0  0.6686363799999999  0.10330318000000005  0.44014885046775487  1.0000
  Se  Se8       1.0  0.6686363799999999  0.60330318  0.49589357031183895  1.0000
  Se  Se9       1.0  0.18875778999999998  0.09167965000000003  0.4966632922731572  1.0000
  Se  Se10      1.0  0.18875778999999998  0.5916796500000001  0.44091857242907323  1.0000
  Se  Se11      1.0  0.86222873  0.9127619700000001  0.4608361035713996  1.0000
  Se  Se12      1.0  0.86213878  0.41590102000000007  0.5164850082780374  1.0000
  Se  Se13      1.0  0.4895286  0.7926557100000002  0.4747638323543376  1.0000
  Se  Se14      1.0  0.47106537  0.29419708000000006  0.5303845213141435  1.0000
  Se  Se15      1.0  0.5614579199999998  0.21178591000000005  0.48273556349021923  1.0000
  Se  Se16      1.0  0.57074377  0.7032811800000001  0.5380136465236098  1.0000
  Se  Se17      1.0  0.7658503400000001  0.006662430000000026  0.5065183107908463  1.0000
  Se  Se18      1.0  0.7658503400000001  0.5066624300000001  0.4507735909467623  1.0000
  Se  Se19      1.0  0.2851361799999999  0.9977791900000001  0.4509810850537105  1.0000
  Se  Se20      1.0  0.2851361800000001  0.4977791900000001  0.5067258015531113  1.0000
