data_image0
_chemical_formula_structural       CONa24Ge12Se30
_chemical_formula_sum              "C1 O1 Na24 Ge12 Se30"
_cell_length_a       10.950626359165996
_cell_length_b       15.656318186052479
_cell_length_c       105.41960172
_cell_angle_alpha    103.95075895531754
_cell_angle_beta     66.25316552107358
_cell_angle_gamma    98.87199455172738

_space_group_name_H-M_alt    "P 1"
_space_group_IT_number       1

loop_
  _space_group_symop_operation_xyz
  'x, y, z'

loop_
  _atom_site_type_symbol
  _atom_site_label
  _atom_site_symmetry_multiplicity
  _atom_site_fract_x
  _atom_site_fract_y
  _atom_site_fract_z
  _atom_site_occupancy
  C   C1        1.0  0.5512853149999998  0.4237695449999999  0.5579668448703815  1.0000
  O   O1        1.0  0.5814935349999999  0.463270945  0.5670236766229438  1.0000
  Na  Na1       1.0  0.43183020499999997  0.40381669499999995  0.47512141731755336  1.0000
  Na  Na2       1.0  0.41380902499999994  0.060766065  0.5156164629540448  1.0000
  Na  Na3       1.0  0.43183020499999997  0.737150035  0.4377895435610954  1.0000
  Na  Na4       1.0  0.620143445  0.267234635  0.49061688636092793  1.0000
  Na  Na5       1.0  0.6179634649999999  0.9334916149999999  0.5247004021270503  1.0000
  Na  Na6       1.0  0.620143445  0.6005679749999999  0.4532850092446014  1.0000
  Na  Na7       1.0  0.34124455499999995  0.4738334249999999  0.5194499857518461  1.0000
  Na  Na8       1.0  0.34279758499999996  0.131625305  0.4473170257171867  1.0000
  Na  Na9       1.0  0.342797585  0.7982919749999999  0.4846488994736445  1.0000
  Na  Na10      1.0  0.709176065  0.206092695  0.44375753044837885  1.0000
  Na  Na11      1.0  0.709176065  0.872759365  0.4810894042048367  1.0000
  Na  Na12      1.0  0.723041375  0.546677145  0.5162494622117894  1.0000
  Na  Na13      1.0  0.516556435  0.301221545  0.5354013822542304  1.0000
  Na  Na14      1.0  0.5259868249999999  0.0021923350000000075  0.46420321496101163  1.0000
  Na  Na15      1.0  0.5259868249999999  0.668859005  0.5015350887174695  1.0000
  Na  Na16      1.0  0.025986824999999946  0.335525665  0.4828691501593063  1.0000
  Na  Na17      1.0  0.052254714999999945  0.9853060749999999  0.5196863424332928  1.0000
  Na  Na18      1.0  0.025986824999999936  0.668859005  0.44553727640284835  1.0000
  Na  Na19      1.0  0.12949374499999997  0.262917725  0.4360452744599302  1.0000
  Na  Na20      1.0  0.12949374499999994  0.929584385  0.47337714821638804  1.0000
  Na  Na21      1.0  0.12949374499999994  0.596251055  0.5107090219728458  1.0000
  Na  Na22      1.0  0.9311343250000002  0.40620255499999997  0.5272939586718308  1.0000
  Na  Na23      1.0  0.9224799050000001  0.07480028500000001  0.4550292783457667  1.0000
  Na  Na24      1.0  0.9224799050000001  0.7414669450000001  0.4923611554620932  1.0000
  Ge  Ge1       1.0  0.7988773749999999  0.194105055  0.5163026153341754  1.0000
  Ge  Ge2       1.0  0.796218985  0.8622984049999999  0.44124168430610566  1.0000
  Ge  Ge3       1.0  0.796218985  0.5289650749999999  0.4785735580625636  1.0000
  Ge  Ge4       1.0  0.255754665  0.475419595  0.4498328718594598  1.0000
  Ge  Ge5       1.0  0.25575466499999994  0.142086265  0.4871647456159177  1.0000
  Ge  Ge6       1.0  0.24884219499999993  0.8234890949999999  0.5256432921519899  1.0000
  Ge  Ge7       1.0  0.8598205950000002  0.410402125  0.45678279716538517  1.0000
  Ge  Ge8       1.0  0.8598205950000002  0.077068785  0.49411467092184297  1.0000
  Ge  Ge9       1.0  0.8649309649999998  0.730677285  0.5296215345730865  1.0000
  Ge  Ge10      1.0  0.19215305499999993  0.260649215  0.5089555065130962  1.0000
  Ge  Ge11      1.0  0.19215305499999993  0.9273158849999998  0.4342917556403118  1.0000
  Ge  Ge12      1.0  0.19215305499999993  0.5939825449999999  0.47162363275663827  1.0000
  Se  Se1       1.0  0.871196215  0.273182985  0.46222519307662024  1.0000
  Se  Se2       1.0  0.8711962149999998  0.9398496449999999  0.4995570668330782  1.0000
  Se  Se3       1.0  0.8580390849999998  0.594824685  0.535979397261163  1.0000
  Se  Se4       1.0  0.18077743499999993  0.39786835499999995  0.5035131106018609  1.0000
  Se  Se5       1.0  0.1680160849999999  0.9566935449999999  0.5406438760591068  1.0000
  Se  Se6       1.0  0.18077743499999996  0.7312016849999999  0.4661812368454031  1.0000
  Se  Se7       1.0  0.07867572499999993  0.464955495  0.4398310837627249  1.0000
  Se  Se8       1.0  0.07867572499999993  0.13162216499999999  0.4771629575191829  1.0000
  Se  Se9       1.0  0.07624192499999992  0.7852103249999999  0.5129044441596383  1.0000
  Se  Se10      1.0  0.9740131750000001  0.214853055  0.5266873478226337  1.0000
  Se  Se11      1.0  0.9732979249999998  0.872762505  0.45124346904297197  1.0000
  Se  Se12      1.0  0.973297925  0.5394291750000001  0.48857534279942977  1.0000
  Se  Se13      1.0  0.45477039499999994  0.5311488550000001  0.43297632337705627  1.0000
  Se  Se14      1.0  0.45477039499999994  0.197815525  0.47030819713351424  1.0000
  Se  Se15      1.0  0.45477039499999994  0.8644821949999999  0.5076400708899721  1.0000
  Se  Se16      1.0  0.6058681149999999  0.13642718499999998  0.5333908435608345  1.0000
  Se  Se17      1.0  0.5972032549999999  0.806569145  0.45809822942864054  1.0000
  Se  Se18      1.0  0.5972032549999999  0.473235815  0.49543010318509834  1.0000
  Se  Se19      1.0  0.3569637049999999  0.275996805  0.5187001302617007  1.0000
  Se  Se20      1.0  0.352172785  0.9324085049999998  0.4445443612932562  1.0000
  Se  Se21      1.0  0.352172785  0.5990751649999999  0.48187623504971405  1.0000
  Se  Se22      1.0  0.6998008649999999  0.405309505  0.4465301915124406  1.0000
  Se  Se23      1.0  0.6998008649999998  0.071976165  0.48386206526889847  1.0000
  Se  Se24      1.0  0.689563285  0.7456723949999999  0.5229859417807402  1.0000
  Se  Se25      1.0  0.281358995  0.339910335  0.4547724063062107  1.0000
  Se  Se26      1.0  0.281358995  0.006577005000000007  0.49210428006266865  1.0000
  Se  Se27      1.0  0.273080995  0.6878703650000001  0.5303247920446243  1.0000
  Se  Se28      1.0  0.7706146549999998  0.33114100499999993  0.5109658940124019  1.0000
  Se  Se29      1.0  0.7706146549999998  0.9978076649999998  0.4363021464994861  1.0000
  Se  Se30      1.0  0.7706146549999999  0.664474335  0.4736340202559439  1.0000
