data_image0
_chemical_formula_structural       COCa8Sb4
_chemical_formula_sum              "C1 O1 Ca8 Sb4"
_cell_length_a       4.84415602
_cell_length_b       4.84415602
_cell_length_c       120.86968548
_cell_angle_alpha    90.0
_cell_angle_beta     90.0
_cell_angle_gamma    90.0

_space_group_name_H-M_alt    "P 1"
_space_group_IT_number       1

loop_
  _space_group_symop_operation_xyz
  'x, y, z'

loop_
  _atom_site_type_symbol
  _atom_site_label
  _atom_site_symmetry_multiplicity
  _atom_site_fract_x
  _atom_site_fract_y
  _atom_site_fract_z
  _atom_site_occupancy
  C   C1        1.0  0.25022108  0.749739545  0.5632907168886206  1.0000
  O   O1        1.0  0.24984041999999995  0.7501504849999999  0.5734264070968877  1.0000
  Ca  Ca1       1.0  0.25007868999999994  0.749885665  0.49129189903049647  1.0000
  Ca  Ca2       1.0  0.7500786899999999  0.749885665  0.44563650054995185  1.0000
  Ca  Ca3       1.0  0.7500786899999999  0.24988566499999998  0.47012508440236234  1.0000
  Ca  Ca4       1.0  0.25007868999999994  0.24988566499999998  0.44563650054995185  1.0000
  Ca  Ca5       1.0  0.7501595799999999  0.249849515  0.5598925524518338  1.0000
  Ca  Ca6       1.0  0.25007868999999994  0.24988566499999998  0.515780482882907  1.0000
  Ca  Ca7       1.0  0.25001602999999994  0.749903165  0.5422407803701509  1.0000
  Ca  Ca8       1.0  0.7500786899999999  0.749885665  0.515780482882907  1.0000
  Sb  Sb1       1.0  0.25007868999999994  0.749885665  0.4646994081967917  1.0000
  Sb  Sb2       1.0  0.7500786899999999  0.24988566499999998  0.4967175710274283  1.0000
  Sb  Sb3       1.0  0.7500786899999999  0.24988566499999998  0.5348433905297467  1.0000
  Sb  Sb4       1.0  0.25007868999999994  0.749885665  0.42657359290311214  1.0000
