data_image0
_chemical_formula_structural       COAs8Ca4Pd8
_chemical_formula_sum              "C1 O1 As8 Ca4 Pd8"
_cell_length_a       6.03378226
_cell_length_b       6.033782261085026
_cell_length_c       107.33296443
_cell_angle_alpha    90.0
_cell_angle_beta     90.0
_cell_angle_gamma    117.92348407338285

_space_group_name_H-M_alt    "P 1"
_space_group_IT_number       1

loop_
  _space_group_symop_operation_xyz
  'x, y, z'

loop_
  _atom_site_type_symbol
  _atom_site_label
  _atom_site_symmetry_multiplicity
  _atom_site_fract_x
  _atom_site_fract_y
  _atom_site_fract_z
  _atom_site_occupancy
  C   C1        1.0  3.700000000285675e-07  1.5499999995827436e-07  0.5569870344910085  1.0000
  O   O1        1.0  6.999999979662164e-08  0.9999999249999998  0.5676879011823525  1.0000
  As  As1       1.0  0.12166328  0.8783374349999999  0.4468047602035263  1.0000
  As  As2       1.0  0.62166328  0.378337435  0.47579007949704516  1.0000
  As  As3       1.0  0.37833744  0.621663275  0.47579007949704516  1.0000
  As  As4       1.0  0.8783374399999999  0.12166327499999996  0.4468047602035263  1.0000
  As  As5       1.0  0.12166328  0.8783374349999999  0.504775398790564  1.0000
  As  As6       1.0  0.6177918100000002  0.38220845499999995  0.5337535946517283  1.0000
  As  As7       1.0  0.38220859000000007  0.6177919350000001  0.5337535911734899  1.0000
  As  As8       1.0  0.8783374399999999  0.12166327499999996  0.504775398790564  1.0000
  Ca  Ca1       1.0  0.50000036  0.500000355  0.4468047602035263  1.0000
  Ca  Ca2       1.0  3.600000000285675e-07  3.5499999995827435e-07  0.47579007949704516  1.0000
  Ca  Ca3       1.0  0.50000036  0.500000355  0.504775398790564  1.0000
  Ca  Ca4       1.0  8.000000017993614e-08  0.9999999850000001  0.5316647350697289  1.0000
  Pd  Pd1       1.0  3.60000000051614e-07  0.500000355  0.4323120988176476  1.0000
  Pd  Pd2       1.0  0.50000036  3.5499999995827435e-07  0.4612974181111664  1.0000
  Pd  Pd3       1.0  0.50000036  3.5499999995827435e-07  0.4323120988176476  1.0000
  Pd  Pd4       1.0  3.60000000051614e-07  0.500000355  0.4612974181111664  1.0000
  Pd  Pd5       1.0  3.60000000051614e-07  0.500000355  0.49028274088292373  1.0000
  Pd  Pd6       1.0  0.5000002600000001  1.499999995827439e-08  0.5195860233447472  1.0000
  Pd  Pd7       1.0  0.50000036  3.5499999995827435e-07  0.49028274088292373  1.0000
  Pd  Pd8       1.0  0.99999992  0.5000001550000001  0.519586037257701  1.0000
