data_image0
_chemical_formula_structural       COCa12Ga12
_chemical_formula_sum              "C1 O1 Ca12 Ga12"
_cell_length_a       7.673402513319554
_cell_length_b       7.673402510802656
_cell_length_c       104.14574248
_cell_angle_alpha    94.48963801786996
_cell_angle_beta     94.48963801639434
_cell_angle_gamma    99.69486151084057

_space_group_name_H-M_alt    "P 1"
_space_group_IT_number       1

loop_
  _space_group_symop_operation_xyz
  'x, y, z'

loop_
  _atom_site_type_symbol
  _atom_site_label
  _atom_site_symmetry_multiplicity
  _atom_site_fract_x
  _atom_site_fract_y
  _atom_site_fract_z
  _atom_site_occupancy
  C   C1        1.0  0.684717325  0.43335037  0.5526351712082413  1.0000
  O   O1        1.0  0.809722995  0.3876231299999999  0.5587197781562019  1.0000
  Ca  Ca1       1.0  0.3379604449999999  0.67981471  0.4686023062601122  1.0000
  Ca  Ca2       1.0  0.949071555  0.29092582  0.48681702592567183  1.0000
  Ca  Ca3       1.0  0.726849335  0.0687036  0.45038758331590273  1.0000
  Ca  Ca4       1.0  0.21421945499999992  0.97022236  0.44128022184379795  1.0000
  Ca  Ca5       1.0  0.8253305750000001  0.58133348  0.4594949447880074  1.0000
  Ca  Ca6       1.0  0.43644168499999997  0.19244458999999997  0.47770966445356705  1.0000
  Ca  Ca7       1.0  0.17541456499999994  0.5182097099999999  0.523598107012398  1.0000
  Ca  Ca8       1.0  0.788194575  0.14430383  0.5413401207759871  1.0000
  Ca  Ca9       1.0  0.560182665  0.90203693  0.5050317488698813  1.0000
  Ca  Ca10      1.0  0.04755279499999992  0.8035556999999999  0.4959243873977766  1.0000
  Ca  Ca11      1.0  0.6615467349999999  0.42027456999999996  0.5140030201432789  1.0000
  Ca  Ca12      1.0  0.2754843849999999  0.029777640000000005  0.5320132995963403  1.0000
  Ga  Ga1       1.0  0.05255539499999996  0.9652197599999999  0.4686023062601122  1.0000
  Ga  Ga2       1.0  0.6636665049999999  0.5763308699999998  0.48681702592567183  1.0000
  Ga  Ga3       1.0  0.44144428499999994  0.35410864999999997  0.45038758331590273  1.0000
  Ga  Ga4       1.0  0.49962450499999994  0.6848173099999999  0.44128022184379795  1.0000
  Ga  Ga5       1.0  0.11073562499999995  0.29592842999999996  0.45949494478800745  1.0000
  Ga  Ga6       1.0  0.7218467350000002  0.9070395399999999  0.47770966445356705  1.0000
  Ga  Ga7       1.0  0.889061345  0.80684564  0.524023328228335  1.0000
  Ga  Ga8       1.0  0.470233575  0.4151593799999999  0.5405735855515263  1.0000
  Ga  Ga9       1.0  0.274777615  0.18744197999999998  0.5050317488698813  1.0000
  Ga  Ga10      1.0  0.332957845  0.5181506499999999  0.4959243873977766  1.0000
  Ga  Ga11      1.0  0.9524472049999999  0.13268076999999998  0.5149943461599666  1.0000
  Ga  Ga12      1.0  0.564302275  0.74556843  0.5324234652520851  1.0000
