data_image0
_chemical_formula_structural       COCa4Al4Pd4Ca4Al4Pd4
_chemical_formula_sum              "C1 O1 Ca8 Al8 Pd8"
_cell_length_a       7.94278322
_cell_length_b       5.68412721
_cell_length_c       104.88838348
_cell_angle_alpha    90.0
_cell_angle_beta     90.0
_cell_angle_gamma    90.0

_space_group_name_H-M_alt    "P 1"
_space_group_IT_number       1

loop_
  _space_group_symop_operation_xyz
  'x, y, z'

loop_
  _atom_site_type_symbol
  _atom_site_label
  _atom_site_symmetry_multiplicity
  _atom_site_fract_x
  _atom_site_fract_y
  _atom_site_fract_z
  _atom_site_occupancy
  C   C1        1.0  0.7499987999999999  0.624152015  0.551836283652529  1.0000
  O   O1        1.0  0.74999854  0.6241506449999998  0.5630979610685234  1.0000
  Ca  Ca1       1.0  0.40037414000000004  0.875847925  0.5188756165067292  1.0000
  Ca  Ca2       1.0  0.60635565  0.38075396499999997  0.5336571200630107  1.0000
  Ca  Ca3       1.0  0.09963212000000005  0.372457125  0.5188757395775732  1.0000
  Ca  Ca4       1.0  0.89363628  0.867549485  0.5336566843256978  1.0000
  Al  Al1       1.0  0.75  0.12415207499999997  0.5052552730592542  1.0000
  Al  Al2       1.0  0.75  0.6241520749999999  0.5052552730592542  1.0000
  Al  Al3       1.0  0.25  0.6241520749999999  0.493685822072163  1.0000
  Al  Al4       1.0  0.25  0.12415207499999997  0.493685822072163  1.0000
  Pd  Pd1       1.0  0.028405110000000035  0.872770525  0.5072378146338351  1.0000
  Pd  Pd2       1.0  0.524726  0.8741520749999999  0.49233935386082256  1.0000
  Pd  Pd3       1.0  0.47159629  0.375532655  0.5072378745061376  1.0000
  Pd  Pd4       1.0  0.9752739999999999  0.374152075  0.49233935386082256  1.0000
  Ca  Ca5       1.0  0.39962298000000007  0.8741520749999999  0.46421603613462153  1.0000
  Ca  Ca6       1.0  0.60037702  0.374152075  0.4792877440674496  1.0000
  Ca  Ca7       1.0  0.10037702000000001  0.374152075  0.46421603613462153  1.0000
  Ca  Ca8       1.0  0.8996229799999998  0.8741520749999999  0.4792877440674496  1.0000
  Al  Al5       1.0  0.75  0.12415207499999997  0.44981795812990816  1.0000
  Al  Al6       1.0  0.75  0.6241520749999999  0.44981795812990816  1.0000
  Al  Al7       1.0  0.25  0.6241520749999999  0.43824850381657793  1.0000
  Al  Al8       1.0  0.25  0.12415207499999997  0.43824850381657793  1.0000
  Pd  Pd5       1.0  0.024726000000000033  0.8741520749999999  0.45116442301500953  1.0000
  Pd  Pd6       1.0  0.524726  0.8741520749999999  0.43690203893147644  1.0000
  Pd  Pd7       1.0  0.47527400000000003  0.374152075  0.45116442301500953  1.0000
  Pd  Pd8       1.0  0.9752739999999999  0.374152075  0.43690203893147644  1.0000
