data_image0
_chemical_formula_structural       CONa8Pt4Se8Na8Pt4Se8
_chemical_formula_sum              "C1 O1 Na16 Pt8 Se16"
_cell_length_a       10.97020236
_cell_length_b       11.54029432
_cell_length_c       100.22785696
_cell_angle_alpha    90.0
_cell_angle_beta     90.0
_cell_angle_gamma    90.0

_space_group_name_H-M_alt    "P 1"
_space_group_IT_number       1

loop_
  _space_group_symop_operation_xyz
  'x, y, z'

loop_
  _atom_site_type_symbol
  _atom_site_label
  _atom_site_symmetry_multiplicity
  _atom_site_fract_x
  _atom_site_fract_y
  _atom_site_fract_z
  _atom_site_occupancy
  C   C1        1.0  0.8279705249999998  0.22305402500000002  0.5314753860660026  1.0000
  O   O1        1.0  0.825158055  0.17854197500000002  0.5420201453902477  1.0000
  Na  Na1       1.0  0.435824095  0.899533475  0.47682931540141604  1.0000
  Na  Na2       1.0  0.062790895  0.399533475  0.45797985460975227  1.0000
  Na  Na3       1.0  0.32455460500000005  0.6297057749999999  0.45797985460975227  1.0000
  Na  Na4       1.0  0.17406038499999998  0.129705775  0.47682931540141604  1.0000
  Na  Na5       1.0  0.935824095  0.899533475  0.45797985460975227  1.0000
  Na  Na6       1.0  0.5627908949999999  0.399533475  0.47682931540141604  1.0000
  Na  Na7       1.0  0.8245546049999999  0.6297057749999999  0.47682931540141604  1.0000
  Na  Na8       1.0  0.6740603850000001  0.129705775  0.45797985460975227  1.0000
  Pt  Pt1       1.0  0.135277535  0.7815060050000001  0.47682931540141604  1.0000
  Pt  Pt2       1.0  0.363337455  0.281506005  0.45797985460975227  1.0000
  Pt  Pt3       1.0  0.6352775350000001  0.7815060050000001  0.45797985460975227  1.0000
  Pt  Pt4       1.0  0.8633374549999998  0.281506005  0.47682931540141604  1.0000
  Se  Se1       1.0  0.051582555000000016  0.6609036050000001  0.45797985460975227  1.0000
  Se  Se2       1.0  0.44703243500000006  0.16090360499999998  0.47682931540141604  1.0000
  Se  Se3       1.0  0.21870587499999997  0.9023937750000001  0.45797985460975227  1.0000
  Se  Se4       1.0  0.279909115  0.402393775  0.47682931540141604  1.0000
  Se  Se5       1.0  0.5515825550000001  0.6609036050000001  0.47682931540141604  1.0000
  Se  Se6       1.0  0.9470324349999999  0.16090360499999998  0.45797985460975227  1.0000
  Se  Se7       1.0  0.718705875  0.9023937750000001  0.47682931540141604  1.0000
  Se  Se8       1.0  0.7799091149999999  0.402393775  0.45797985460975227  1.0000
  Na  Na9       1.0  0.469253585  0.8783248050000001  0.5151340948455523  1.0000
  Na  Na10      1.0  0.05608983500000001  0.392265295  0.4977503922523581  1.0000
  Na  Na11      1.0  0.31961432500000003  0.590862015  0.49917660579004364  1.0000
  Na  Na12      1.0  0.175462525  0.146680465  0.5137145796522536  1.0000
  Na  Na13      1.0  0.9423090049999998  0.9009699750000001  0.4966603505541291  1.0000
  Na  Na14      1.0  0.542323785  0.374912375  0.5157145556968687  1.0000
  Na  Na15      1.0  0.8105232349999999  0.629742675  0.5138538575640648  1.0000
  Na  Na16      1.0  0.6900834450000001  0.09760622500000002  0.5005366984351858  1.0000
  Pt  Pt5       1.0  0.13953336500000002  0.754473095  0.512260396530667  1.0000
  Pt  Pt6       1.0  0.354367055  0.277305485  0.49478591191838645  1.0000
  Pt  Pt7       1.0  0.6444194050000001  0.7746912750000001  0.49478327600978933  1.0000
  Pt  Pt8       1.0  0.823162875  0.294688465  0.5149805426140728  1.0000
  Se  Se9       1.0  0.05270217500000002  0.649699805  0.4938891691786407  1.0000
  Se  Se10      1.0  0.44377048500000005  0.13090131500000002  0.509979741459166  1.0000
  Se  Se11      1.0  0.21823020499999998  0.8923441550000001  0.4965448862971037  1.0000
  Se  Se12      1.0  0.267051135  0.38149239500000004  0.5146870972243819  1.0000
  Se  Se13      1.0  0.5478606650000001  0.6380603250000001  0.5109172985593746  1.0000
  Se  Se14      1.0  0.9484174449999999  0.15893799500000003  0.49482452466182897  1.0000
  Se  Se15      1.0  0.7392343749999999  0.8760600049999999  0.5142563433145433  1.0000
  Se  Se16      1.0  0.7812850849999999  0.41072388500000007  0.49493238278443574  1.0000
