data_image0
_chemical_formula_structural       COSi3Ru3Si3Ru3Si3Ru3Si3Ru3Si3Ru3Si3Ru3Si3Ru3Si3Ru3
_chemical_formula_sum              "C1 O1 Si24 Ru24"
_cell_length_a       8.343948487319167
_cell_length_b       8.3439485
_cell_length_c       100.65762437000001
_cell_angle_alpha    90.0
_cell_angle_beta     90.0
_cell_angle_gamma    60.000000029016974

_space_group_name_H-M_alt    "P 1"
_space_group_IT_number       1

loop_
  _space_group_symop_operation_xyz
  'x, y, z'

loop_
  _atom_site_type_symbol
  _atom_site_label
  _atom_site_symmetry_multiplicity
  _atom_site_fract_x
  _atom_site_fract_y
  _atom_site_fract_z
  _atom_site_occupancy
  C   C1        1.0  0.08215882499999998  0.5000841850000001  0.5465644979218202  1.0000
  O   O1        1.0  0.08211938499999996  0.500136515  0.5582287200988548  1.0000
  Si  Si1       1.0  0.08207323499999997  0.0002830150000000629  0.5009938637805604  1.0000
  Si  Si2       1.0  0.24840555499999997  0.1676208750000001  0.5191505530681176  1.0000
  Si  Si3       1.0  0.43818634500000003  0.32220235499999994  0.5337715971635782  1.0000
  Ru  Ru1       1.0  0.08327576499999997  0.9997147150000001  0.5257310053122395  1.0000
  Ru  Ru2       1.0  0.24873990499999996  0.16694968500000007  0.4925334968304532  1.0000
  Ru  Ru3       1.0  0.41024304500000003  0.336200285  0.5094412376338823  1.0000
  Si  Si4       1.0  0.08207323499999997  0.0002830150000000629  0.4502316498969854  1.0000
  Si  Si5       1.0  0.24873990499999996  0.16694968500000007  0.46715238684293275  1.0000
  Si  Si6       1.0  0.41540656499999995  0.333616345  0.484073126834613  1.0000
  Ru  Ru4       1.0  0.08207323499999997  0.0002830150000000629  0.4756127568387729  1.0000
  Ru  Ru5       1.0  0.24873990499999996  0.16694968500000007  0.4417712799011452  1.0000
  Ru  Ru6       1.0  0.41540656499999995  0.333616345  0.45869201684709254  1.0000
  Si  Si7       1.0  0.08207323499999997  0.5002830149999999  0.5009938637805604  1.0000
  Si  Si8       1.0  0.24843029499999997  0.6668324649999999  0.5191602750477095  1.0000
  Si  Si9       1.0  0.415655305  0.8331237850000001  0.5335957152226349  1.0000
  Ru  Ru7       1.0  0.08201186499999996  0.500406335  0.527657848671593  1.0000
  Ru  Ru8       1.0  0.24873990499999996  0.666949685  0.4925334968304532  1.0000
  Ru  Ru9       1.0  0.41534855499999995  0.8337323950000002  0.5090569544612368  1.0000
  Si  Si10      1.0  0.08207323499999997  0.5002830149999999  0.4502316498969854  1.0000
  Si  Si11      1.0  0.24873990499999996  0.666949685  0.46715238684293275  1.0000
  Si  Si12      1.0  0.41540656499999995  0.833616345  0.484073126834613  1.0000
  Ru  Ru10      1.0  0.08207323499999997  0.5002830149999999  0.4756127568387729  1.0000
  Ru  Ru11      1.0  0.24873990499999996  0.666949685  0.4417712799011452  1.0000
  Ru  Ru12      1.0  0.41540656499999995  0.833616345  0.45869201684709254  1.0000
  Si  Si13      1.0  0.582073235  0.00028301500000004956  0.5009938637805604  1.0000
  Si  Si14      1.0  0.7487370750000001  0.16695698499999992  0.518119030322437  1.0000
  Si  Si15      1.0  0.9040414350000001  0.322200315  0.5337717738160898  1.0000
  Ru  Ru13      1.0  0.581438535  0.9997169849999998  0.5257307616536031  1.0000
  Ru  Ru14      1.0  0.748739905  0.16694968500000004  0.4925334968304532  1.0000
  Ru  Ru15      1.0  0.917988135  0.33619845499999995  0.5094413594632006  1.0000
  Si  Si16      1.0  0.582073235  0.00028301500000004956  0.4502316498969854  1.0000
  Si  Si17      1.0  0.748739905  0.16694968500000004  0.46715238684293275  1.0000
  Si  Si18      1.0  0.915406565  0.3336163449999999  0.484073126834613  1.0000
  Ru  Ru16      1.0  0.582073235  0.00028301500000004956  0.4756127568387729  1.0000
  Ru  Ru17      1.0  0.748739905  0.16694968500000004  0.4417712799011452  1.0000
  Ru  Ru18      1.0  0.915406565  0.3336163449999999  0.45869201684709254  1.0000
  Si  Si19      1.0  0.582073235  0.500283015  0.5009938637805604  1.0000
  Si  Si20      1.0  0.7491679950000001  0.6668331850000001  0.5191601867214537  1.0000
  Si  Si21      1.0  0.9043871550000001  0.855657235  0.533777283547005  1.0000
  Ru  Ru19      1.0  0.5814636649999999  0.5015046550000001  0.5257293301591144  1.0000
  Ru  Ru20      1.0  0.748739905  0.6669496850000001  0.4925334968304532  1.0000
  Ru  Ru21      1.0  0.9179204350000001  0.828592005  0.5094384325138309  1.0000
  Si  Si22      1.0  0.582073235  0.500283015  0.4502316498969854  1.0000
  Si  Si23      1.0  0.748739905  0.6669496850000001  0.46715238684293275  1.0000
  Si  Si24      1.0  0.915406565  0.8336163450000001  0.484073126834613  1.0000
  Ru  Ru22      1.0  0.582073235  0.500283015  0.4756127568387729  1.0000
  Ru  Ru23      1.0  0.748739905  0.6669496850000001  0.4417712799011452  1.0000
  Ru  Ru24      1.0  0.915406565  0.8336163450000001  0.45869201684709254  1.0000
