data_image0
_chemical_formula_structural       COAs6Pb12Pd18
_chemical_formula_sum              "C1 O1 As6 Pb12 Pd18"
_cell_length_a       9.219380806554222
_cell_length_b       7.00162585
_cell_length_c       108.49586511999999
_cell_angle_alpha    90.0
_cell_angle_beta     85.61981710217051
_cell_angle_gamma    112.31653908098502

_space_group_name_H-M_alt    "P 1"
_space_group_IT_number       1

loop_
  _space_group_symop_operation_xyz
  'x, y, z'

loop_
  _atom_site_type_symbol
  _atom_site_label
  _atom_site_symmetry_multiplicity
  _atom_site_fract_x
  _atom_site_fract_y
  _atom_site_fract_z
  _atom_site_occupancy
  C   C1        1.0  0.8397823649999999  0.4856637199999999  0.5592556188991911  1.0000
  O   O1        1.0  0.859537695  0.53448409  0.5694694649768759  1.0000
  As  As1       1.0  0.121904255  0.8533481199999999  0.49974737234515687  1.0000
  As  As2       1.0  0.569194265  0.049849129999999985  0.5386042199880604  1.0000
  As  As3       1.0  0.677459815  0.6311258899999999  0.46032358140932145  1.0000
  As  As4       1.0  0.8996820349999999  0.15604284999999998  0.4800354786513098  1.0000
  As  As5       1.0  0.344812325  0.36989957999999995  0.5196288068709053  1.0000
  As  As6       1.0  0.45523759500000005  0.9338206199999999  0.44061168771547427  1.0000
  Pb  Pb1       1.0  0.588782375  0.95769512  0.5093781168947951  1.0000
  Pb  Pb2       1.0  0.6998934849999999  0.5132506799999998  0.4305305350231241  1.0000
  Pb  Pb3       1.0  0.14433793500000003  0.7354729  0.46995432595895964  1.0000
  Pb  Pb4       1.0  0.9599197749999999  0.31577061999999995  0.5192991490701823  1.0000
  Pb  Pb5       1.0  0.07955367500000002  0.8750707199999999  0.4390701871181491  1.0000
  Pb  Pb6       1.0  0.5239981249999999  0.09729293999999993  0.47849398160212586  1.0000
  Pb  Pb7       1.0  0.816455655  0.7505995699999999  0.530014645546074  1.0000
  Pb  Pb8       1.0  0.9221157149999999  0.29635174  0.4502424322651125  1.0000
  Pb  Pb9       1.0  0.36656015500000005  0.51857396  0.48966622320094794  1.0000
  Pb  Pb10      1.0  0.7462203449999999  0.5364141  0.4982058752959729  1.0000
  Pb  Pb11      1.0  0.20208072500000002  0.7585238599999998  0.5379928078412217  1.0000
  Pb  Pb12      1.0  0.301775905  0.3141918799999999  0.45878208436013745  1.0000
  Pd  Pd1       1.0  0.776398835  0.3834452499999999  0.5434655282731803  1.0000
  Pd  Pd2       1.0  0.942238155  0.9263472899999998  0.4624829695112112  1.0000
  Pd  Pd3       1.0  0.386682595  0.14856950999999996  0.5019067604470466  1.0000
  Pd  Pd4       1.0  0.8973109650000001  0.9920250799999999  0.5011525427123973  1.0000
  Pd  Pd5       1.0  0.353735465  0.18040902  0.5387008749030263  1.0000
  Pd  Pd6       1.0  0.452866515  0.76980286  0.46172874822842064  1.0000
  Pd  Pd7       1.0  0.817858005  0.46147356999999994  0.4727773974241367  1.0000
  Pd  Pd8       1.0  0.255980115  0.67547435  0.5121213871157998  1.0000
  Pd  Pd9       1.0  0.373413565  0.23925134999999997  0.43335360648830124  1.0000
  Pd  Pd10      1.0  0.04008022500000002  0.4660933599999999  0.49248929111798384  1.0000
  Pd  Pd11      1.0  0.49915187499999997  0.69051612  0.5300866692646928  1.0000
  Pd  Pd12      1.0  0.595635785  0.24387114  0.4530655001821484  1.0000
  Pd  Pd13      1.0  0.11431829500000003  0.007974919999999988  0.5206208423189467  1.0000
  Pd  Pd14      1.0  0.230644295  0.5705503599999999  0.44201685453457346  1.0000
  Pd  Pd15      1.0  0.675088745  0.7927725799999998  0.481440645470409  1.0000
  Pd  Pd16      1.0  0.620193925  0.35106712  0.5215501217932352  1.0000
  Pd  Pd17      1.0  0.7200159249999999  0.9033775699999999  0.44277107226922285  1.0000
  Pd  Pd18      1.0  0.16446037500000002  0.12559979  0.48219486320505833  1.0000
