data_image0
_chemical_formula_structural       COCa2Al18Ni2
_chemical_formula_sum              "C1 O1 Ca2 Al18 Ni2"
_cell_length_a       7.60955432
_cell_length_b       7.609554317750396
_cell_length_c       102.11568736000001
_cell_angle_alpha    90.0
_cell_angle_beta     90.0
_cell_angle_gamma    120.00000000977933

_space_group_name_H-M_alt    "P 1"
_space_group_IT_number       1

loop_
  _space_group_symop_operation_xyz
  'x, y, z'

loop_
  _atom_site_type_symbol
  _atom_site_label
  _atom_site_symmetry_multiplicity
  _atom_site_fract_x
  _atom_site_fract_y
  _atom_site_fract_z
  _atom_site_occupancy
  C   C1        1.0  0.22535283000000003  0.626016975  0.5314597544977923  1.0000
  O   O1        1.0  0.22727943999999994  0.6267453349999998  0.5431502829231889  1.0000
  Ca  Ca1       1.0  0.02105475999999999  0.024310244999999987  0.45684971707681094  1.0000
  Ca  Ca2       1.0  0.02860232999999999  0.02723647499999999  0.4959072281288332  1.0000
  Al  Al1       1.0  0.49674451000000003  0.975689755  0.45684971707681094  1.0000
  Al  Al2       1.0  0.5447314599999998  0.5001921549999999  0.49582919365094075  1.0000
  Al  Al3       1.0  0.9789452399999999  0.5037153849999999  0.4962453848714364  1.0000
  Al  Al4       1.0  0.06967524999999997  0.5486204949999999  0.45684971707681094  1.0000
  Al  Al5       1.0  0.49674451  0.5486204949999999  0.45684971707681094  1.0000
  Al  Al6       1.0  0.54406318  0.07249950499999998  0.49593148574321266  1.0000
  Al  Al7       1.0  0.22923382999999994  0.44066838499999994  0.4777771789764608  1.0000
  Al  Al8       1.0  0.80613905  0.23337233499999996  0.517084675862344  1.0000
  Al  Al9       1.0  0.44346735  0.23601453499999997  0.517119689478432  1.0000
  Al  Al10      1.0  0.6046966199999998  0.8161311749999999  0.4777771789764608  1.0000
  Al  Al11      1.0  0.2292338299999999  0.8161311749999999  0.4777771789764608  1.0000
  Al  Al12      1.0  0.8128756899999998  0.6079521049999999  0.47523512691886877  1.0000
  Al  Al13      1.0  0.8128756899999998  0.23248931499999997  0.47523512691886877  1.0000
  Al  Al14      1.0  0.8062763399999998  0.6007198249999999  0.5171212179628853  1.0000
  Al  Al15      1.0  0.43741289999999994  0.23248931499999997  0.47523512691886877  1.0000
  Al  Al16      1.0  0.6141544999999999  0.820735485  0.5140114660221349  1.0000
  Al  Al17      1.0  0.23433951999999997  0.44168387499999995  0.5154231031855468  1.0000
  Al  Al18      1.0  0.23551081000000001  0.819939655  0.5154655610870279  1.0000
  Ni  Ni1       1.0  0.3524955800000001  0.6898455250000001  0.4968316309949677  1.0000
  Ni  Ni2       1.0  0.6877214299999999  0.35764357499999994  0.45684971707681094  1.0000
