data_image0
_chemical_formula_structural       COCaAl9Co2CaAl9Co2
_chemical_formula_sum              "C1 O1 Ca2 Al18 Co4"
_cell_length_a       7.9413726561208975
_cell_length_b       7.94137265
_cell_length_c       101.07675696
_cell_angle_alpha    90.0
_cell_angle_beta     90.0
_cell_angle_gamma    120.00000001615838

_space_group_name_H-M_alt    "P 1"
_space_group_IT_number       1

loop_
  _space_group_symop_operation_xyz
  'x, y, z'

loop_
  _atom_site_type_symbol
  _atom_site_label
  _atom_site_symmetry_multiplicity
  _atom_site_fract_x
  _atom_site_fract_y
  _atom_site_fract_z
  _atom_site_occupancy
  C   C1        1.0  0.10260825999999999  0.953130565  0.530109333667754  1.0000
  O   O1        1.0  0.10322379000000001  0.9300377950000001  0.5418469414187862  1.0000
  Ca  Ca1       1.0  0.10329571000000001  0.6337786750000001  0.49566939890814726  1.0000
  Al  Al1       1.0  0.10333619000000001  0.10657894500000002  0.49648328986781026  1.0000
  Al  Al2       1.0  0.6064743899999999  0.12223058499999993  0.4957647843693476  1.0000
  Al  Al3       1.0  0.6001408299999998  0.619213345  0.49576492887414  1.0000
  Al  Al4       1.0  0.5078101200000001  0.8237581350000002  0.5144656783673713  1.0000
  Al  Al5       1.0  0.30917668000000004  0.420000325  0.5144011831114532  1.0000
  Al  Al6       1.0  0.33738343  0.052754835000000014  0.5158763218515563  1.0000
  Al  Al7       1.0  0.89739174  0.21419010500000002  0.514398274568187  1.0000
  Al  Al8       1.0  0.8690194599999999  0.8185812849999999  0.5158806785173158  1.0000
  Al  Al9       1.0  0.6986444  0.41905581500000005  0.5144664316370333  1.0000
  Co  Co1       1.0  0.7717548499999999  0.9535648750000001  0.4971887099961444  1.0000
  Co  Co2       1.0  0.43500292  0.28522234500000004  0.4971762241671754  1.0000
  Ca  Ca2       1.0  0.10331960000000003  0.6208197850000002  0.45815305858121397  1.0000
  Al  Al10      1.0  0.10331960000000003  0.12081978500000001  0.45815305858121397  1.0000
  Al  Al11      1.0  0.6033195999999998  0.12081978500000001  0.45815305858121397  1.0000
  Al  Al12      1.0  0.6033195999999998  0.6208197850000002  0.45815305858121397  1.0000
  Al  Al13      1.0  0.52834669  0.8333333350000002  0.4773691213875092  1.0000
  Al  Al14      1.0  0.31583315000000006  0.40830624499999996  0.4773691213875092  1.0000
  Al  Al15      1.0  0.31583315000000006  0.045846874999999995  0.4773691213875092  1.0000
  Al  Al16      1.0  0.89080606  0.195792695  0.4773691213875092  1.0000
  Al  Al17      1.0  0.89080606  0.8333333350000001  0.4773691213875092  1.0000
  Al  Al18      1.0  0.67829251  0.40830624499999996  0.4773691213875092  1.0000
  Co  Co3       1.0  0.76998627  0.9541531249999999  0.45815305858121397  1.0000
  Co  Co4       1.0  0.43665294000000004  0.28748645500000003  0.45815305858121397  1.0000
