data_image0
_chemical_formula_structural       COCa5Al10Si10
_chemical_formula_sum              "C1 O1 Ca5 Al10 Si10"
_cell_length_a       7.247246149379141
_cell_length_b       8.289684535848641
_cell_length_c       110.73994028999999
_cell_angle_alpha    72.81183999149154
_cell_angle_beta     69.15868896458306
_cell_angle_gamma    90.0000000272375

_space_group_name_H-M_alt    "P 1"
_space_group_IT_number       1

loop_
  _space_group_symop_operation_xyz
  'x, y, z'

loop_
  _atom_site_type_symbol
  _atom_site_label
  _atom_site_symmetry_multiplicity
  _atom_site_fract_x
  _atom_site_fract_y
  _atom_site_fract_z
  _atom_site_occupancy
  C   C1        1.0  0.6618987500000001  0.41604475  0.5415462522428816  1.0000
  O   O1        1.0  0.52897461  0.40290594  0.5517873899358022  1.0000
  Ca  Ca1       1.0  0.025115250000000023  0.01435382999999999  0.5298381264147355  1.0000
  Ca  Ca2       1.0  0.20192312000000007  0.40768635000000003  0.49470810184324043  1.0000
  Ca  Ca3       1.0  0.5913973499999999  0.20397642  0.5127316723135137  1.0000
  Ca  Ca4       1.0  0.4019231200000001  0.80768635  0.45791926108415  1.0000
  Ca  Ca5       1.0  0.8019231200000001  0.6076863499999999  0.4763136814636952  1.0000
  Al  Al1       1.0  0.34260318  0.98564617  0.49948818628959135  1.0000
  Al  Al2       1.0  0.5426031800000001  0.38564617  0.4626993455305009  1.0000
  Al  Al3       1.0  0.9426031800000001  0.18564616999999997  0.4810937659100461  1.0000
  Al  Al4       1.0  0.7621557900000001  0.77336753  0.5186290154592977  1.0000
  Al  Al5       1.0  0.08435072000000003  0.63985399  0.5288130495135922  1.0000
  Al  Al6       1.0  0.44949860999999997  0.62828062  0.5084721941105128  1.0000
  Al  Al7       1.0  0.6612430600000001  0.02972652999999999  0.4715335970173443  1.0000
  Al  Al8       1.0  0.06124306000000004  0.82972653  0.4899280173968896  1.0000
  Al  Al9       1.0  0.8594145000000002  0.37678868  0.5247561564199995  1.0000
  Al  Al10      1.0  0.2612430600000001  0.22972652999999998  0.453139176637799  1.0000
  Si  Si1       1.0  0.41582025  0.76599495  0.4860203324836475  1.0000
  Si  Si2       1.0  0.6158202500000001  0.16599494999999997  0.44923149172455695  1.0000
  Si  Si3       1.0  0.01582025000000002  0.9659949499999999  0.4676259121041022  1.0000
  Si  Si4       1.0  0.80213427  0.56787172  0.5048006641238716  1.0000
  Si  Si5       1.0  0.19695185  0.36764575999999993  0.5257457063376216  1.0000
  Si  Si6       1.0  0.39188359000000006  0.83908045  0.52279017548537  1.0000
  Si  Si7       1.0  0.5880259900000001  0.24937774999999998  0.4850014508232882  1.0000
  Si  Si8       1.0  0.98417975  0.04759316999999999  0.5036790385890403  1.0000
  Si  Si9       1.0  0.7880259900000001  0.64937775  0.44821261006419766  1.0000
  Si  Si10      1.0  0.18802599000000003  0.44937775  0.46660703044374296  1.0000
