data_image0
_chemical_formula_structural       COAg16Na8
_chemical_formula_sum              "C1 O1 Ag16 Na8"
_cell_length_a       5.76953615
_cell_length_b       8.15935627
_cell_length_c       104.61721691
_cell_angle_alpha    90.0
_cell_angle_beta     90.0
_cell_angle_gamma    90.0

_space_group_name_H-M_alt    "P 1"
_space_group_IT_number       1

loop_
  _space_group_symop_operation_xyz
  'x, y, z'

loop_
  _atom_site_type_symbol
  _atom_site_label
  _atom_site_symmetry_multiplicity
  _atom_site_fract_x
  _atom_site_fract_y
  _atom_site_fract_z
  _atom_site_occupancy
  C   C1        1.0  0.12501773  0.660240525  0.5505059405818785  1.0000
  O   O1        1.0  0.12501642  0.5879989649999999  0.560041956990674  1.0000
  Ag  Ag1       1.0  0.62502828  0.689155645  0.4537452971144341  1.0000
  Ag  Ag2       1.0  0.62506239  0.692416705  0.5088735962570157  1.0000
  Ag  Ag3       1.0  0.37502828  0.43915564500000004  0.46753254791060156  1.0000
  Ag  Ag4       1.0  0.37588367000000006  0.430198155  0.5212729780467793  1.0000
  Ag  Ag5       1.0  0.12502828  0.18915564500000004  0.4537452971144341  1.0000
  Ag  Ag6       1.0  0.12506247999999998  0.180214975  0.5086080669999576  1.0000
  Ag  Ag7       1.0  0.8750282800000001  0.43915564500000004  0.46753254791060156  1.0000
  Ag  Ag8       1.0  0.8742657299999999  0.430145305  0.5212726140633  1.0000
  Ag  Ag9       1.0  0.12497172  0.176820515  0.5352942172770571  1.0000
  Ag  Ag10      1.0  0.12502828  0.18915564500000004  0.48131980201570973  1.0000
  Ag  Ag11      1.0  0.8750282800000001  0.9391556449999999  0.43995804300932595  1.0000
  Ag  Ag12      1.0  0.8750282800000001  0.9391556449999999  0.4951070561208179  1.0000
  Ag  Ag13      1.0  0.62508443  0.6780068149999999  0.5356805824313468  1.0000
  Ag  Ag14      1.0  0.62502828  0.689155645  0.48131980201570973  1.0000
  Ag  Ag15      1.0  0.37502828  0.9391556449999999  0.43995804300932595  1.0000
  Ag  Ag16      1.0  0.37502828  0.9391556449999999  0.4951070561208179  1.0000
  Na  Na1       1.0  0.62502821  0.06084435500000002  0.5234175554707939  1.0000
  Na  Na2       1.0  0.62502828  0.06415564500000003  0.46753254791060156  1.0000
  Na  Na3       1.0  0.12502828  0.8141556449999999  0.46753254791060156  1.0000
  Na  Na4       1.0  0.12504115999999998  0.7942434249999999  0.5261085118044606  1.0000
  Na  Na5       1.0  0.12502828  0.5641556449999999  0.43995804300932595  1.0000
  Na  Na6       1.0  0.12502828  0.5641556449999999  0.4951070561208179  1.0000
  Na  Na7       1.0  0.62502828  0.31415564500000004  0.43995804300932595  1.0000
  Na  Na8       1.0  0.62502828  0.31415564500000004  0.4951070561208179  1.0000
