data_image0
_chemical_formula_structural       COCa4In16Ir4Ca4In16Ir4
_chemical_formula_sum              "C1 O1 Ca8 In32 Ir8"
_cell_length_a       15.922422000963232
_cell_length_b       8.86661668
_cell_length_c       100.34040093
_cell_angle_alpha    90.0
_cell_angle_beta     74.20380702951385
_cell_angle_gamma    90.0

_space_group_name_H-M_alt    "P 1"
_space_group_IT_number       1

loop_
  _space_group_symop_operation_xyz
  'x, y, z'

loop_
  _atom_site_type_symbol
  _atom_site_label
  _atom_site_symmetry_multiplicity
  _atom_site_fract_x
  _atom_site_fract_y
  _atom_site_fract_z
  _atom_site_occupancy
  C   C1        1.0  0.28922748  0.05225110500000003  0.544486962752407  1.0000
  O   O1        1.0  0.30580973000000006  0.9431202149999999  0.5501257403217895  1.0000
  Ca  Ca1       1.0  0.36938356  0.797988175  0.5256849396308864  1.0000
  Ca  Ca2       1.0  0.87190045  0.7818968450000001  0.5040113030744033  1.0000
  Ca  Ca3       1.0  0.28183745000000004  0.280155715  0.5293492314257596  1.0000
  Ca  Ca4       1.0  0.76843738  0.28141290500000005  0.5104817955804272  1.0000
  In  In1       1.0  0.56305151  0.038866105000000026  0.5224892167779086  1.0000
  In  In2       1.0  0.07284168  0.032565155000000026  0.49728633502530795  1.0000
  In  In3       1.0  0.41357254  0.481733815  0.5033786958453177  1.0000
  In  In4       1.0  0.9137410599999999  0.4828418850000001  0.5241342108643344  1.0000
  In  In5       1.0  0.5391852300000001  0.782565155  0.4987401708356438  1.0000
  In  In6       1.0  0.02475178000000002  0.7815912950000001  0.5250615608783444  1.0000
  In  In7       1.0  0.5563715  0.528815775  0.5228697735092008  1.0000
  In  In8       1.0  0.07284168  0.532565155  0.49728633502530795  1.0000
  In  In9       1.0  0.09446121000000002  0.2842492550000001  0.5208206011781277  1.0000
  In  In10      1.0  0.6064981199999999  0.282565155  0.4958324992149721  1.0000
  In  In11      1.0  0.41395462  0.08404181500000003  0.5029041156939301  1.0000
  In  In12      1.0  0.91382187  0.08093975500000003  0.5240229490612848  1.0000
  In  In13      1.0  0.21763003  0.9671667849999999  0.5134794841561157  1.0000
  In  In14      1.0  0.72959063  0.9618113550000003  0.5310287294918189  1.0000
  In  In15      1.0  0.21791396000000002  0.603683985  0.5135669823296901  1.0000
  In  In16      1.0  0.72843066  0.597131425  0.5307704258847551  1.0000
  Ir  Ir1       1.0  0.17043514  0.782565155  0.49307065082818097  1.0000
  Ir  Ir2       1.0  0.66033128  0.7801334650000001  0.5145379166362635  1.0000
  Ir  Ir3       1.0  0.47338395  0.27889508500000004  0.519223092018191  1.0000
  Ir  Ir4       1.0  0.96981683  0.282652825  0.5020744962141186  1.0000
  Ca  Ca5       1.0  0.37195044  0.782565155  0.4843659175419139  1.0000
  Ca  Ca6       1.0  0.8719504399999999  0.782565155  0.4627677204550551  1.0000
  Ca  Ca7       1.0  0.27373291  0.282565155  0.48860855844559026  1.0000
  Ca  Ca8       1.0  0.7737329099999999  0.282565155  0.4670103643824786  1.0000
  In  In17      1.0  0.5728416799999999  0.032565155000000026  0.4756881409621963  1.0000
  In  In18      1.0  0.07284168  0.032565155000000026  0.4540899468990846  1.0000
  In  In19      1.0  0.4152748  0.467434845  0.46089626584363746  1.0000
  In  In20      1.0  0.9152747999999999  0.467434845  0.48249445990674905  1.0000
  In  In21      1.0  0.5391852300000001  0.782565155  0.45554378270942053  1.0000
  In  In22      1.0  0.03918523000000002  0.782565155  0.4771419767725322  1.0000
  In  In23      1.0  0.5728416799999999  0.532565155  0.4756881409621963  1.0000
  In  In24      1.0  0.07284168  0.532565155  0.4540899468990846  1.0000
  In  In25      1.0  0.10649812  0.282565155  0.47423430212811307  1.0000
  In  In26      1.0  0.6064981199999999  0.282565155  0.4526361080650015  1.0000
  In  In27      1.0  0.4152748  0.09769546500000002  0.46089626584363746  1.0000
  In  In28      1.0  0.9152747999999999  0.09769546500000002  0.48249445990674905  1.0000
  In  In29      1.0  0.23040855000000002  0.9674348449999999  0.46888181899389625  1.0000
  In  In30      1.0  0.7304085499999999  0.9674348449999999  0.49048001608075514  1.0000
  In  In31      1.0  0.23040855000000002  0.5976954650000001  0.46888181899389625  1.0000
  In  In32      1.0  0.7304085499999999  0.5976954650000001  0.49048001608075514  1.0000
  Ir  Ir5       1.0  0.17043514  0.782565155  0.44987425967821043  1.0000
  Ir  Ir6       1.0  0.6704351399999999  0.782565155  0.47147245676506927  1.0000
  Ir  Ir7       1.0  0.47524822  0.282565155  0.4799038251593232  1.0000
  Ir  Ir8       1.0  0.9752482199999999  0.282565155  0.45830563109621164  1.0000
