data_image0
_chemical_formula_structural       COCa4Co8Ge8
_chemical_formula_sum              "C1 O1 Ca4 Co8 Ge8"
_cell_length_a       5.957645681606122
_cell_length_b       5.67263006
_cell_length_c       104.03578034
_cell_angle_alpha    90.0
_cell_angle_beta     90.0
_cell_angle_gamma    118.42968190805784

_space_group_name_H-M_alt    "P 1"
_space_group_IT_number       1

loop_
  _space_group_symop_operation_xyz
  'x, y, z'

loop_
  _atom_site_type_symbol
  _atom_site_label
  _atom_site_symmetry_multiplicity
  _atom_site_fract_x
  _atom_site_fract_y
  _atom_site_fract_z
  _atom_site_occupancy
  C   C1        1.0  0.09920265999999996  0.6981181850000001  0.5548478633906877  1.0000
  O   O1        1.0  0.052563259999999966  0.7616426950000001  0.5646207782841065  1.0000
  Ca  Ca1       1.0  0.20713347  0.06411959499999999  0.44901066296605346  1.0000
  Ca  Ca2       1.0  0.20713347  0.5641195950000001  0.4762735421948279  1.0000
  Ca  Ca3       1.0  0.20804400999999997  0.066033945  0.503156948301923  1.0000
  Ca  Ca4       1.0  0.20518255999999996  0.570209735  0.5318716707825233  1.0000
  Co  Co1       1.0  0.70713347  0.06411959500000002  0.4353792217158933  1.0000
  Co  Co2       1.0  0.70713347  0.564119595  0.4626421042162135  1.0000
  Co  Co3       1.0  0.70713347  0.564119595  0.4353792217158933  1.0000
  Co  Co4       1.0  0.70713347  0.06411959500000002  0.4626421042162135  1.0000
  Co  Co5       1.0  0.70713347  0.06411959500000002  0.489904983444988  1.0000
  Co  Co6       1.0  0.70754161  0.565785425  0.5175394317411797  1.0000
  Co  Co7       1.0  0.70713347  0.564119595  0.489904983444988  1.0000
  Co  Co8       1.0  0.70682424  0.06555627499999997  0.5176326348048697  1.0000
  Ge  Ge1       1.0  0.9441768700000001  0.43264129500000004  0.44901066296605346  1.0000
  Ge  Ge2       1.0  0.9441768700000001  0.9326412950000003  0.4762735421948279  1.0000
  Ge  Ge3       1.0  0.47009007  0.195597895  0.4762735421948279  1.0000
  Ge  Ge4       1.0  0.47009007  0.6955978950000001  0.44901066296605346  1.0000
  Ge  Ge5       1.0  0.941962  0.431845935  0.5037186236148371  1.0000
  Ge  Ge6       1.0  0.9474367400000001  0.935880405  0.5305240164446409  1.0000
  Ge  Ge7       1.0  0.47308869000000003  0.200520015  0.5309329596494303  1.0000
  Ge  Ge8       1.0  0.47302685  0.6983359750000001  0.5037505309994476  1.0000
