data_image0
_chemical_formula_structural       COCa3Al27Co6
_chemical_formula_sum              "C1 O1 Ca3 Al27 Co6"
_cell_length_a       8.84055852529639
_cell_length_b       13.75486092
_cell_length_c       105.36223409
_cell_angle_alpha    90.0
_cell_angle_beta     77.85517117454906
_cell_angle_gamma    38.92758560216682

_space_group_name_H-M_alt    "P 1"
_space_group_IT_number       1

loop_
  _space_group_symop_operation_xyz
  'x, y, z'

loop_
  _atom_site_type_symbol
  _atom_site_label
  _atom_site_symmetry_multiplicity
  _atom_site_fract_x
  _atom_site_fract_y
  _atom_site_fract_z
  _atom_site_occupancy
  C   C1        1.0  0.92996821  0.1333427649999999  0.5375698166850369  1.0000
  O   O1        1.0  0.91148935  0.1441073049999999  0.5488634075059342  1.0000
  Ca  Ca1       1.0  0.9812520100000001  0.10933106499999984  0.5120357037245379  1.0000
  Ca  Ca2       1.0  0.30102419999999996  0.449847035  0.45498343599747737  1.0000
  Ca  Ca3       1.0  0.6343575299999998  0.783180365  0.482952211986434  1.0000
  Al  Al1       1.0  0.8078386800000001  0.943161155  0.49665244112112683  1.0000
  Al  Al2       1.0  0.15077650000000004  0.2624163849999999  0.5248953693007953  1.0000
  Al  Al3       1.0  0.4676908600000001  0.6165136949999998  0.46896782567008233  1.0000
  Al  Al4       1.0  0.6343575300000001  0.28318036499999993  0.482952211986434  1.0000
  Al  Al5       1.0  0.97545649  0.6128493349999998  0.5130613243748329  1.0000
  Al  Al6       1.0  0.30102419999999996  0.9498470349999999  0.45498343599747737  1.0000
  Al  Al7       1.0  0.8071377000000001  0.44946809499999985  0.4965778886676196  1.0000
  Al  Al8       1.0  0.15164787999999974  0.786733205  0.5248621927373902  1.0000
  Al  Al9       1.0  0.46769086  0.11651369499999993  0.4689678256700824  1.0000
  Al  Al10      1.0  0.08851064999999969  0.16236057499999998  0.47910536848302254  1.0000
  Al  Al11      1.0  0.42450722  0.4962203949999998  0.5078056163746815  1.0000
  Al  Al12      1.0  0.7551773199999998  0.829027245  0.45113659249406585  1.0000
  Al  Al13      1.0  0.9676908599999998  0.8290272450000002  0.46896782567008233  1.0000
  Al  Al14      1.0  0.3054644900000001  0.1590068849999999  0.49685992134096935  1.0000
  Al  Al15      1.0  0.65277211  0.4979158749999998  0.5244160829112647  1.0000
  Al  Al16      1.0  0.08851064999999969  0.9498470350000001  0.47910536848302254  1.0000
  Al  Al17      1.0  0.42482300999999995  0.27954226499999996  0.5078241563176505  1.0000
  Al  Al18      1.0  0.7551773199999998  0.6165136949999999  0.45113659249406585  1.0000
  Al  Al19      1.0  0.8468710699999998  0.283180365  0.4588302795008889  1.0000
  Al  Al20      1.0  0.18020440999999995  0.6165136949999999  0.4867990554898455  1.0000
  Al  Al21      1.0  0.5340888600000002  0.934926465  0.5145533434021674  1.0000
  Al  Al22      1.0  0.96769086  0.40400015499999986  0.46896782567008233  1.0000
  Al  Al23      1.0  0.3054167199999999  0.7359101749999999  0.49684748642266724  1.0000
  Al  Al24      1.0  0.6514696200000001  0.05015296499999992  0.5244567070006381  1.0000
  Al  Al25      1.0  0.8468710699999998  0.07066682499999999  0.4588302795008888  1.0000
  Al  Al26      1.0  0.18020440999999995  0.40400015499999997  0.4867990554898455  1.0000
  Al  Al27      1.0  0.5352800700000001  0.7310390649999998  0.5145122158748061  1.0000
  Co  Co1       1.0  0.6343575299999998  0.449847035  0.48295221198643395  1.0000
  Co  Co2       1.0  0.98152173  0.777159555  0.5107694934160601  1.0000
  Co  Co3       1.0  0.30102419999999996  0.1165136949999999  0.4549834359974774  1.0000
  Co  Co4       1.0  0.6343575300000001  0.11651369499999993  0.482952211986434  1.0000
  Co  Co5       1.0  0.9820829799999999  0.4415513949999999  0.5107819618968947  1.0000
  Co  Co6       1.0  0.3010242000000002  0.7831803649999998  0.4549834359974774  1.0000
