data_image0
_chemical_formula_structural       COCa4Cu16In4
_chemical_formula_sum              "C1 O1 Ca4 Cu16 In4"
_cell_length_a       7.38470552
_cell_length_b       5.22177535
_cell_length_c       101.33065209
_cell_angle_alpha    90.0
_cell_angle_beta     90.0
_cell_angle_gamma    90.0

_space_group_name_H-M_alt    "P 1"
_space_group_IT_number       1

loop_
  _space_group_symop_operation_xyz
  'x, y, z'

loop_
  _atom_site_type_symbol
  _atom_site_label
  _atom_site_symmetry_multiplicity
  _atom_site_fract_x
  _atom_site_fract_y
  _atom_site_fract_z
  _atom_site_occupancy
  C   C1        1.0  0.7033783650000001  1.6150000000179133e-06  0.5465938587337769  1.0000
  O   O1        1.0  0.671757815  5.485000000017913e-06  0.5581236994924136  1.0000
  Ca  Ca1       1.0  0.06345426500000004  3.3750000000179134e-06  0.4805913502104138  1.0000
  Ca  Ca2       1.0  0.06090517500000005  0.9999983849999999  0.5345379428251334  1.0000
  Ca  Ca3       1.0  0.5634542650000001  0.500003375  0.4548253274997464  1.0000
  Ca  Ca4       1.0  0.566307255  0.5000025050000001  0.5058829637956807  1.0000
  Cu  Cu1       1.0  0.18781370500000005  0.748722265  0.4548253274997464  1.0000
  Cu  Cu2       1.0  0.18092397500000004  0.751574835  0.5067593475785915  1.0000
  Cu  Cu3       1.0  0.935908175  0.500000025  0.5199088826515225  1.0000
  Cu  Cu4       1.0  0.939094825  0.500003375  0.4676423201263315  1.0000
  Cu  Cu5       1.0  0.939094825  0.500003375  0.4420083348731614  1.0000
  Cu  Cu6       1.0  0.939094825  0.500003375  0.49354037720257377  1.0000
  Cu  Cu7       1.0  0.18781370500000005  0.251284485  0.4548253274997464  1.0000
  Cu  Cu8       1.0  0.18092434500000007  0.24842896500000003  0.506758923985212  1.0000
  Cu  Cu9       1.0  0.676461875  0.251311755  0.5316785391013922  1.0000
  Cu  Cu10      1.0  0.687813705  0.24872226500000003  0.4805913502104138  1.0000
  Cu  Cu11      1.0  0.4390948250000001  3.3750000000179134e-06  0.49340833974507636  1.0000
  Cu  Cu12      1.0  0.4390948250000001  3.3750000000179134e-06  0.44187630050758653  1.0000
  Cu  Cu13      1.0  0.4266531150000001  2.335000000017913e-06  0.5190415365580145  1.0000
  Cu  Cu14      1.0  0.4390948250000001  3.3750000000179134e-06  0.46777435758382874  1.0000
  Cu  Cu15      1.0  0.676460765  0.748692735  0.5316780165664934  1.0000
  Cu  Cu16      1.0  0.687813705  0.751284485  0.4805913502104138  1.0000
  In  In1       1.0  0.8134542650000001  3.3750000000179134e-06  0.4548253274997464  1.0000
  In  In2       1.0  0.820262725  2.515000000017913e-06  0.5070544097406601  1.0000
  In  In3       1.0  0.326746975  0.49999764500000005  0.5313050534175935  1.0000
  In  In4       1.0  0.31345426500000007  0.500003375  0.4805913502104138  1.0000
