data_image0
_chemical_formula_structural       CONa6Ca6Al2As8
_chemical_formula_sum              "C1 O1 Na6 Ca6 Al2 As8"
_cell_length_a       7.30341319
_cell_length_b       9.567651021849748
_cell_length_c       108.27060408
_cell_angle_alpha    60.00000000639543
_cell_angle_beta     90.0
_cell_angle_gamma    90.0

_space_group_name_H-M_alt    "P 1"
_space_group_IT_number       1

loop_
  _space_group_symop_operation_xyz
  'x, y, z'

loop_
  _atom_site_type_symbol
  _atom_site_label
  _atom_site_symmetry_multiplicity
  _atom_site_fract_x
  _atom_site_fract_y
  _atom_site_fract_z
  _atom_site_occupancy
  C   C1        1.0  0.7765139749999999  0.5378427000000001  0.5390916910924339  1.0000
  O   O1        1.0  0.6291418549999999  0.4968621100000001  0.5460750812274898  1.0000
  Na  Na1       1.0  0.40028576499999996  0.73611948  0.5372813358409249  1.0000
  Na  Na2       1.0  0.8001263549999998  0.10074640000000003  0.5287478305240195  1.0000
  Na  Na3       1.0  0.8439369749999999  0.72518102  0.4705389553091941  1.0000
  Na  Na4       1.0  0.40475676499999996  0.36649415  0.53733420461635  1.0000
  Na  Na5       1.0  0.343936975  0.8625905100000001  0.48268154897670756  1.0000
  Na  Na6       1.0  0.8439369749999999  0.13740949000000002  0.4705389553091941  1.0000
  Ca  Ca1       1.0  0.671629175  0.9493997200000001  0.5048160548874164  1.0000
  Ca  Ca2       1.0  0.17162917499999994  0.05060028000000002  0.5003446120182462  1.0000
  Ca  Ca3       1.0  0.17162917499999994  0.47469986000000003  0.46286780451085097  1.0000
  Ca  Ca4       1.0  0.671629175  0.52530014  0.5048160548874165  1.0000
  Ca  Ca5       1.0  0.17162917499999994  0.47469986000000003  0.5003446120182461  1.0000
  Ca  Ca6       1.0  0.671629175  0.52530014  0.45392491877251023  1.0000
  Al  Al1       1.0  0.05763852499999997  0.6659786300000001  0.5172956061415934  1.0000
  Al  Al2       1.0  0.5493069649999999  0.33333333  0.4878523428491144  1.0000
  As  As1       1.0  0.9037952349999999  0.75411835  0.5333278245794776  1.0000
  As  As2       1.0  0.434941955  0.18407471000000003  0.5140066854676888  1.0000
  As  As3       1.0  0.44236147499999995  0.61964434  0.47520198342251885  1.0000
  As  As4       1.0  0.9102357049999998  0.39232257  0.5331471298011309  1.0000
  As  As5       1.0  0.942361475  0.8098221700000001  0.4920076087380748  1.0000
  As  As6       1.0  0.44236147499999995  0.19017783000000002  0.47520198342251885  1.0000
  As  As7       1.0  0.39044568499999993  0.68920766  0.5132684561024212  1.0000
  As  As8       1.0  0.8995499449999999  0.33333333  0.4878523428491144  1.0000
