data_image0
_chemical_formula_structural       COAs6Ca6Na6
_chemical_formula_sum              "C1 O1 As6 Ca6 Na6"
_cell_length_a       7.04612552
_cell_length_b       8.629706095894443
_cell_length_c       107.94454718
_cell_angle_alpha    94.3477531460362
_cell_angle_beta     90.0
_cell_angle_gamma    114.09484254589599

_space_group_name_H-M_alt    "P 1"
_space_group_IT_number       1

loop_
  _space_group_symop_operation_xyz
  'x, y, z'

loop_
  _atom_site_type_symbol
  _atom_site_label
  _atom_site_symmetry_multiplicity
  _atom_site_fract_x
  _atom_site_fract_y
  _atom_site_fract_z
  _atom_site_occupancy
  C   C1        1.0  0.16884434999999992  0.10228922  0.5365710338142544  1.0000
  O   O1        1.0  0.12692126999999997  0.08887511  0.5469540581176037  1.0000
  As  As1       1.0  0.09343291999999997  0.11287746  0.46036925087533076  1.0000
  As  As2       1.0  0.9203993799999997  0.7688773899999999  0.5170662982507548  1.0000
  As  As3       1.0  0.5100995899999999  0.94621079  0.4896624938774455  1.0000
  As  As4       1.0  0.8017662499999999  0.5295441200000001  0.47501587237638804  1.0000
  As  As5       1.0  0.6417165499999998  0.23228167999999996  0.5320135105832364  1.0000
  As  As6       1.0  0.21597045999999995  0.36958481  0.5045291732327083  1.0000
  Ca  Ca1       1.0  0.9059329199999998  0.23787745999999999  0.4823391813693223  1.0000
  Ca  Ca2       1.0  0.48926624999999996  0.40454412  0.45304594188239644  1.0000
  Ca  Ca3       1.0  0.3009553099999999  0.07733601000000002  0.5139001887185379  1.0000
  Ca  Ca4       1.0  0.19759958999999994  0.82121079  0.46769256338345383  1.0000
  Ca  Ca5       1.0  0.010733750000000007  0.4949443  0.5245860043615498  1.0000
  Ca  Ca6       1.0  0.61426625  0.6545441200000001  0.49698580287037963  1.0000
  Na  Na1       1.0  0.9892662499999999  0.40454412  0.45304594188239644  1.0000
  Na  Na2       1.0  0.8036558799999999  0.05378921  0.5141876538346879  1.0000
  Na  Na3       1.0  0.4059329199999999  0.23787745999999999  0.4823391813693223  1.0000
  Na  Na4       1.0  0.54790854  0.5221090700000001  0.5275853357574006  1.0000
  Na  Na5       1.0  0.11426624999999999  0.6545441200000001  0.49698580287037974  1.0000
  Na  Na6       1.0  0.6975995899999998  0.82121079  0.4676925633834539  1.0000
