data_image0
_chemical_formula_structural       COCa6Si12
_chemical_formula_sum              "C1 O1 Ca6 Si12"
_cell_length_a       5.964332456716561
_cell_length_b       8.35476731787565
_cell_length_c       101.04490381
_cell_angle_alpha    86.81170901896638
_cell_angle_beta     89.16796838342181
_cell_angle_gamma    81.6773697813066

_space_group_name_H-M_alt    "P 1"
_space_group_IT_number       1

loop_
  _space_group_symop_operation_xyz
  'x, y, z'

loop_
  _atom_site_type_symbol
  _atom_site_label
  _atom_site_symmetry_multiplicity
  _atom_site_fract_x
  _atom_site_fract_y
  _atom_site_fract_z
  _atom_site_occupancy
  C   C1        1.0  0.21038496500000006  0.25307535999999997  0.5347169165293247  1.0000
  O   O1        1.0  0.2094549150000001  0.21965529999999994  0.546005068752822  1.0000
  Ca  Ca1       1.0  0.03472222500000004  0.005437049999999957  0.4817317580499463  1.0000
  Ca  Ca2       1.0  0.8680555550000001  0.67210372  0.4561285318909047  1.0000
  Ca  Ca3       1.0  0.4513888850000001  0.3387703799999999  0.4689301449704255  1.0000
  Ca  Ca4       1.0  0.7912691050000003  0.9945629500000001  0.519143915228059  1.0000
  Ca  Ca5       1.0  0.613444775  0.67062046  0.49489071123186534  1.0000
  Ca  Ca6       1.0  0.20872354500000007  0.32827808999999997  0.5092444265773668  1.0000
  Si  Si1       1.0  0.548611115  0.9498814899999999  0.4710637456141522  1.0000
  Si  Si2       1.0  0.13194444500000005  0.6165481599999999  0.483865358693673  1.0000
  Si  Si3       1.0  0.9652777750000002  0.28321483  0.45826213560701834  1.0000
  Si  Si4       1.0  0.3541666650000001  0.72765927  0.46679654432669887  1.0000
  Si  Si5       1.0  0.9374999950000003  0.39432593999999993  0.4795981543338327  1.0000
  Si  Si6       1.0  0.7708333350000002  0.060992609999999954  0.45399493124717816  1.0000
  Si  Si7       1.0  0.30219346500000005  0.9434151099999999  0.5100102589515498  1.0000
  Si  Si8       1.0  0.8758465850000002  0.6159809299999999  0.5223765608940942  1.0000
  Si  Si9       1.0  0.716080485  0.28805144999999993  0.4971159888281011  1.0000
  Si  Si10      1.0  0.10078357500000006  0.71894447  0.5052087634385788  1.0000
  Si  Si11      1.0  0.6919278150000001  0.38608655999999997  0.5187307191319407  1.0000
  Si  Si12      1.0  0.5208333350000001  0.060992609999999954  0.4923997674133535  1.0000
