data_image0
_chemical_formula_structural       COAu12Se12
_chemical_formula_sum              "C1 O1 Au12 Se12"
_cell_length_a       6.499781292332608
_cell_length_b       12.198834227279912
_cell_length_c       111.18081568
_cell_angle_alpha    120.19835017046233
_cell_angle_beta     102.97328073205722
_cell_angle_gamma    79.07850028174407

_space_group_name_H-M_alt    "P 1"
_space_group_IT_number       1

loop_
  _space_group_symop_operation_xyz
  'x, y, z'

loop_
  _atom_site_type_symbol
  _atom_site_label
  _atom_site_symmetry_multiplicity
  _atom_site_fract_x
  _atom_site_fract_y
  _atom_site_fract_z
  _atom_site_occupancy
  C   C1        1.0  0.536432445  0.11840628000000002  0.5579915266721865  1.0000
  O   O1        1.0  0.39354059500000005  0.08432084  0.5592246641497639  1.0000
  Au  Au1       1.0  0.6363640850000001  0.51526635  0.48008708822049695  1.0000
  Au  Au2       1.0  0.6363640850000001  0.18193302  0.44922084136179596  1.0000
  Au  Au3       1.0  0.6366390450000001  0.84332578  0.5116045227845232  1.0000
  Au  Au4       1.0  0.136364085  0.68193302  0.44922084136179596  1.0000
  Au  Au5       1.0  0.13783931500000002  0.32963087999999996  0.5107939170810454  1.0000
  Au  Au6       1.0  0.13636408500000002  0.015266349999999998  0.48008708822049695  1.0000
  Au  Au7       1.0  0.6363640850000001  0.8485996800000001  0.4646539666431213  1.0000
  Au  Au8       1.0  0.631870485  0.46215486000000006  0.5250471676825031  1.0000
  Au  Au9       1.0  0.6363640850000001  0.18193302  0.4955202135018223  1.0000
  Au  Au10      1.0  0.136364085  0.68193302  0.49552021350182235  1.0000
  Au  Au11      1.0  0.136364085  0.34859967999999997  0.46465396664312136  1.0000
  Au  Au12      1.0  0.11259497500000001  0.98473365  0.5103609105369928  1.0000
  Se  Se1       1.0  0.412378115  0.7275357100000001  0.48707470799026237  1.0000
  Se  Se2       1.0  0.412378115  0.3942023800000001  0.4562084611315614  1.0000
  Se  Se3       1.0  0.45536772499999995  0.049621059999999995  0.5244341899230176  1.0000
  Se  Se4       1.0  0.860350055  0.6363303200000001  0.45766634687335583  1.0000
  Se  Se5       1.0  0.887405025  0.26766228999999997  0.5191955048601682  1.0000
  Se  Se6       1.0  0.8603500550000002  0.9696636500000001  0.4885325937320569  1.0000
  Se  Se7       1.0  0.412378115  0.7275357100000001  0.440775335850236  1.0000
  Se  Se8       1.0  0.39058416500000004  0.38845666000000006  0.502206053963979  1.0000
  Se  Se9       1.0  0.412378115  0.06086905  0.47164158270893697  1.0000
  Se  Se10      1.0  0.8603500550000002  0.9696636500000001  0.4422332215920305  1.0000
  Se  Se11      1.0  0.8612893850000002  0.6367415200000001  0.5039451880198005  1.0000
  Se  Se12      1.0  0.860350055  0.30299698999999997  0.4730994721546812  1.0000
