data_image0
_chemical_formula_structural       COCa12Zn4
_chemical_formula_sum              "C1 O1 Ca12 Zn4"
_cell_length_a       11.10724381562805
_cell_length_b       7.030584162542869
_cell_length_c       99.65235872
_cell_angle_alpha    92.99119248892829
_cell_angle_beta     91.01948809795263
_cell_angle_gamma    83.66589736476146

_space_group_name_H-M_alt    "P 1"
_space_group_IT_number       1

loop_
  _space_group_symop_operation_xyz
  'x, y, z'

loop_
  _atom_site_type_symbol
  _atom_site_label
  _atom_site_symmetry_multiplicity
  _atom_site_fract_x
  _atom_site_fract_y
  _atom_site_fract_z
  _atom_site_occupancy
  C   C1        1.0  0.806200165  0.9831092499999999  0.5320953446783304  1.0000
  O   O1        1.0  0.8098412949999999  0.10009079  0.5410817724933694  1.0000
  Ca  Ca1       1.0  0.790917105  0.7235004999999999  0.5140292046084448  1.0000
  Ca  Ca2       1.0  0.248863965  0.39544862999999997  0.5265856740564212  1.0000
  Ca  Ca3       1.0  0.598509375  0.28366729999999996  0.5184651906694379  1.0000
  Ca  Ca4       1.0  0.44405167500000003  0.8343716  0.5233026628423909  1.0000
  Ca  Ca5       1.0  0.10756632500000005  0.8978609  0.5110207174496689  1.0000
  Ca  Ca6       1.0  0.04470735500000004  0.3739618899999999  0.4961129802210598  1.0000
  Ca  Ca7       1.0  0.915130125  0.85502227  0.47830312389969754  1.0000
  Ca  Ca8       1.0  0.369742925  0.53583037  0.4918084493429002  1.0000
  Ca  Ca9       1.0  0.7132037750000001  0.42131954999999993  0.4820213285983877  1.0000
  Ca  Ca10      1.0  0.5716692750000001  0.9695330900000001  0.48809024464420997  1.0000
  Ca  Ca11      1.0  0.24016569499999998  0.016890749999999958  0.47399859302153796  1.0000
  Ca  Ca12      1.0  0.16970735500000003  0.49896188999999996  0.4589182275066305  1.0000
  Zn  Zn1       1.0  0.832205435  0.12240422999999995  0.5028249280785498  1.0000
  Zn  Zn2       1.0  0.328539885  0.12176503999999999  0.5031592553450087  1.0000
  Zn  Zn3       1.0  0.9552926449999999  0.25258457999999995  0.46635244390139097  1.0000
  Zn  Zn4       1.0  0.45458040499999997  0.26326806999999997  0.46656437662677747  1.0000
