data_image0
_chemical_formula_structural       CONa32Si32
_chemical_formula_sum              "C1 O1 Na32 Si32"
_cell_length_a       6.63280772
_cell_length_b       20.122888050398505
_cell_length_c       105.85699313
_cell_angle_alpha    95.99166535022938
_cell_angle_beta     90.0
_cell_angle_gamma    90.0

_space_group_name_H-M_alt    "P 1"
_space_group_IT_number       1

loop_
  _space_group_symop_operation_xyz
  'x, y, z'

loop_
  _atom_site_type_symbol
  _atom_site_label
  _atom_site_symmetry_multiplicity
  _atom_site_fract_x
  _atom_site_fract_y
  _atom_site_fract_z
  _atom_site_occupancy
  C   C1        1.0  0.38625474000000004  0.6978409599999998  0.5541624443512422  1.0000
  O   O1        1.0  0.2981304700000001  0.6880612299999999  0.5632418649757673  1.0000
  Na  Na1       1.0  0.6028561100000001  0.83876374  0.5049477298401427  1.0000
  Na  Na2       1.0  0.6028561100000001  0.33876374  0.44849264393145066  1.0000
  Na  Na3       1.0  0.6028561100000001  0.40988717999999996  0.4860868797737736  1.0000
  Na  Na4       1.0  0.6056705900000001  0.88835974  0.5406461350603636  1.0000
  Na  Na5       1.0  0.41471945000000004  0.15988718  0.4578593385130801  1.0000
  Na  Na6       1.0  0.42135241000000007  0.6591140299999999  0.5168782722546474  1.0000
  Na  Na7       1.0  0.41471945000000004  0.58876374  0.47672018519214415  1.0000
  Na  Na8       1.0  0.16874537000000006  0.04380469000000001  0.5406483774563311  1.0000
  Na  Na9       1.0  0.3476541  0.25289823  0.4932132209329251  1.0000
  Na  Na10      1.0  0.3476541  0.75289823  0.43675813502423294  1.0000
  Na  Na11      1.0  0.8476541000000002  0.24575268999999997  0.4695938474202978  1.0000
  Na  Na12      1.0  0.8866324900000001  0.75039771  0.5263998682978951  1.0000
  Na  Na13      1.0  0.6699214600000001  0.74575269  0.4695938474202978  1.0000
  Na  Na14      1.0  0.6332979300000001  0.25102461  0.5262131939145629  1.0000
  Na  Na15      1.0  0.16992146000000005  0.75289823  0.4932132209329251  1.0000
  Na  Na16      1.0  0.16992146000000005  0.25289823  0.43675813502423294  1.0000
  Na  Na17      1.0  0.10285611000000004  0.08876374  0.47672018519214415  1.0000
  Na  Na18      1.0  0.35050278  0.54416404  0.5408904918620184  1.0000
  Na  Na19      1.0  0.09521632000000003  0.15814654999999997  0.5165010416363536  1.0000
  Na  Na20      1.0  0.10285611000000004  0.6598871799999999  0.4578593385130801  1.0000
  Na  Na21      1.0  0.9147194500000002  0.90988718  0.4860868797737736  1.0000
  Na  Na22      1.0  0.9108784000000001  0.39007522999999994  0.5405719327551327  1.0000
  Na  Na23      1.0  0.9147194500000002  0.83876374  0.4484926439314506  1.0000
  Na  Na24      1.0  0.9147194500000002  0.33876374  0.5049477298401427  1.0000
  Na  Na25      1.0  0.7716977500000002  0.99710177  0.5198898947215537  1.0000
  Na  Na26      1.0  0.8476541000000002  0.50289823  0.46498567628492643  1.0000
  Na  Na27      1.0  0.3476541  0.9957526899999999  0.49782138868099135  1.0000
  Na  Na28      1.0  0.3476541  0.49575268999999994  0.44136630277229927  1.0000
  Na  Na29      1.0  0.16992146000000005  0.9957526899999999  0.44136630277229927  1.0000
  Na  Na30      1.0  0.16992146000000005  0.49575268999999994  0.49782138868099135  1.0000
  Na  Na31      1.0  0.6699214600000001  0.0028982300000000008  0.4649856762849264  1.0000
  Na  Na32      1.0  0.7428907200000001  0.49658624999999995  0.5197571055875418  1.0000
  Si  Si1       1.0  0.046709740000000034  0.37915218999999994  0.4789067956321153  1.0000
  Si  Si2       1.0  0.059294840000000036  0.89269682  0.5357115361083898  1.0000
  Si  Si3       1.0  0.046709740000000034  0.86949873  0.5121278139818009  1.0000
  Si  Si4       1.0  0.046709740000000034  0.36949873  0.4556727280731089  1.0000
  Si  Si5       1.0  0.9708658200000001  0.61949873  0.48390026933380237  1.0000
  Si  Si6       1.0  0.4871296200000001  0.11424369  0.5284021890173153  1.0000
  Si  Si7       1.0  0.9708658200000001  0.12915219  0.450679254371422  1.0000
  Si  Si8       1.0  0.9708658200000001  0.62915219  0.5071343368928088  1.0000
  Si  Si9       1.0  0.30137818000000005  0.31212639  0.46721775113377234  1.0000
  Si  Si10      1.0  0.2885437500000001  0.8120842199999999  0.5246617844736842  1.0000
  Si  Si11      1.0  0.3196642400000001  0.93361596  0.5220301702152428  1.0000
  Si  Si12      1.0  0.30137818000000005  0.43652453  0.46736177257145195  1.0000
  Si  Si13      1.0  0.7161973800000001  0.68652453  0.4955893138321454  1.0000
  Si  Si14      1.0  0.7161973800000001  0.18652453  0.4391342313107584  1.0000
  Si  Si15      1.0  0.7161973800000001  0.062126390000000004  0.43899020987307885  1.0000
  Si  Si16      1.0  0.7161973800000001  0.56212639  0.49544529239446583  1.0000
  Si  Si17      1.0  0.54670974  0.12915219  0.507134336892809  1.0000
  Si  Si18      1.0  0.54670974  0.62915219  0.45067925437142187  1.0000
  Si  Si19      1.0  0.54670974  0.11949872999999998  0.4839002693338024  1.0000
  Si  Si20      1.0  0.029134180000000037  0.6117257999999999  0.5283040350778158  1.0000
  Si  Si21      1.0  0.47086582000000005  0.86949873  0.4556727280731089  1.0000
  Si  Si22      1.0  0.47086582000000005  0.36949873  0.512127813981801  1.0000
  Si  Si23      1.0  0.47086582000000005  0.87915219  0.47890679563211536  1.0000
  Si  Si24      1.0  0.45789239000000004  0.39279004  0.5357343258970136  1.0000
  Si  Si25      1.0  0.8013781800000002  0.062126390000000004  0.49544529239446594  1.0000
  Si  Si26      1.0  0.8013781800000002  0.56212639  0.43899020987307885  1.0000
  Si  Si27      1.0  0.8013781800000002  0.18652453  0.49558931383214544  1.0000
  Si  Si28      1.0  0.8013781800000002  0.68652453  0.4391342313107584  1.0000
  Si  Si29      1.0  0.21619738000000005  0.9365245299999999  0.4673617725714519  1.0000
  Si  Si30      1.0  0.19839165000000006  0.43414354  0.5220417852843854  1.0000
  Si  Si31      1.0  0.21619738000000005  0.81212639  0.46721775113377234  1.0000
  Si  Si32      1.0  0.22852177000000004  0.31220061  0.5247541630580107  1.0000
