data_image0
_chemical_formula_structural       COAg4Au12
_chemical_formula_sum              "C1 O1 Ag4 Au12"
_cell_length_a       5.906440180839888
_cell_length_b       7.671714252972985
_cell_length_c       100.68685703
_cell_angle_alpha    83.63367791823676
_cell_angle_beta     67.35941481873287
_cell_angle_gamma    67.35941484412142

_space_group_name_H-M_alt    "P 1"
_space_group_IT_number       1

loop_
  _space_group_symop_operation_xyz
  'x, y, z'

loop_
  _atom_site_type_symbol
  _atom_site_label
  _atom_site_symmetry_multiplicity
  _atom_site_fract_x
  _atom_site_fract_y
  _atom_site_fract_z
  _atom_site_occupancy
  C   C1        1.0  0.7775078699999998  0.053968300000000004  0.5366863440403749  1.0000
  O   O1        1.0  0.7060284299999999  0.05177937  0.5492850163171029  1.0000
  Ag  Ag1       1.0  0.12331688999999993  0.21234346  0.4697836890683591  1.0000
  Ag  Ag2       1.0  0.6288348699999998  0.7010280400000001  0.5081349880271793  1.0000
  Ag  Ag3       1.0  0.87331689  0.7956768000000001  0.4634342036946435  1.0000
  Ag  Ag4       1.0  0.3660765299999999  0.30757268  0.5026887710104236  1.0000
  Au  Au1       1.0  0.3733168899999999  0.7962084800000001  0.463393692975005  1.0000
  Au  Au2       1.0  0.8774806399999999  0.2989101  0.5013791245444925  1.0000
  Au  Au3       1.0  0.6306299599999999  0.03739069  0.5201720510421114  1.0000
  Au  Au4       1.0  0.12251935999999991  0.5454109500000001  0.48250290908010557  1.0000
  Au  Au5       1.0  0.1498570099999999  0.0384579  0.519864956502426  1.0000
  Au  Au6       1.0  0.6241144199999998  0.5454109500000001  0.48250290908010557  1.0000
  Au  Au7       1.0  0.6233168899999999  0.21181178  0.4698241997879976  1.0000
  Au  Au8       1.0  0.1300981899999998  0.7124153400000002  0.5070332287254481  1.0000
  Au  Au9       1.0  0.3741144199999999  0.9626093099999999  0.4888118837341826  1.0000
  Au  Au10      1.0  0.87411442  0.46260931  0.450714983682897  1.0000
  Au  Au11      1.0  0.8725193599999997  0.9626093099999999  0.4888118837341826  1.0000
  Au  Au12      1.0  0.37251935999999997  0.46260931  0.450714983682897  1.0000
