data_image0
_chemical_formula_structural       COSe12Ti6V3
_chemical_formula_sum              "C1 O1 Se12 Ti6 V3"
_cell_length_a       7.002291928896656
_cell_length_b       7.115476779027341
_cell_length_c       101.02972976
_cell_angle_alpha    91.8672091018778
_cell_angle_beta     92.74083069831791
_cell_angle_gamma    117.54241609782542

_space_group_name_H-M_alt    "P 1"
_space_group_IT_number       1

loop_
  _space_group_symop_operation_xyz
  'x, y, z'

loop_
  _atom_site_type_symbol
  _atom_site_label
  _atom_site_symmetry_multiplicity
  _atom_site_fract_x
  _atom_site_fract_y
  _atom_site_fract_z
  _atom_site_occupancy
  C   C1        1.0  0.162017345  0.42719813000000006  0.5512934307116178  1.0000
  O   O1        1.0  0.07406364500000005  0.3959827800000001  0.5609219788468542  1.0000
  Se  Se1       1.0  0.5733150850000001  0.22448539000000003  0.5252643442455613  1.0000
  Se  Se2       1.0  0.056695815000000004  0.21870786000000003  0.5119127499220456  1.0000
  Se  Se3       1.0  0.545616905  0.73252878  0.5118575946832508  1.0000
  Se  Se4       1.0  0.04769451499999997  0.73669705  0.5216470230146849  1.0000
  Se  Se5       1.0  0.752305485  0.46515989000000013  0.49146304369865174  1.0000
  Se  Se6       1.0  0.265733665  0.42056197000000006  0.48126675410854935  1.0000
  Se  Se7       1.0  0.7455855950000001  0.94475821  0.4813444622440182  1.0000
  Se  Se8       1.0  0.272453545  0.94096364  0.4913853324918365  1.0000
  Se  Se9       1.0  0.952305485  0.66515989  0.46074957961861085  1.0000
  Se  Se10      1.0  0.465733665  0.6205619700000001  0.4505532900285084  1.0000
  Se  Se11      1.0  0.9455855950000002  0.14475821000000003  0.4506309981639773  1.0000
  Se  Se12      1.0  0.47245354500000003  0.14096364000000003  0.4606718684117955  1.0000
  Ti  Ti1       1.0  0.14108566499999997  0.57547535  0.5020087388701681  1.0000
  Ti  Ti2       1.0  0.664636335  0.12020113  0.5061452681399713  1.0000
  Ti  Ti3       1.0  0.3313591349999999  0.75713907  0.46979148523318665  1.0000
  Ti  Ti4       1.0  0.8866800150000002  0.32858279000000007  0.47222484849397367  1.0000
  Ti  Ti5       1.0  0.531359135  0.95713907  0.4390780211531456  1.0000
  Ti  Ti6       1.0  0.08668001500000001  0.5285827900000001  0.44151138441393273  1.0000
  V   V1        1.0  0.9045870350000002  0.8412935600000001  0.5035633622815074  1.0000
  V   V2        1.0  0.109019575  0.04286093000000001  0.47100816532790696  1.0000
  V   V3        1.0  0.309019575  0.24286093  0.44029470124786607  1.0000
