data_image0
_chemical_formula_structural       COCo4Sn4Rh8Co4Sn4Rh8
_chemical_formula_sum              "C1 O1 Co8 Sn8 Rh16"
_cell_length_a       5.77497454
_cell_length_b       8.24577071856867
_cell_length_c       104.64984724
_cell_angle_alpha    110.49820107682687
_cell_angle_beta     90.0
_cell_angle_gamma    69.50179892317313

_space_group_name_H-M_alt    "P 1"
_space_group_IT_number       1

loop_
  _space_group_symop_operation_xyz
  'x, y, z'

loop_
  _atom_site_type_symbol
  _atom_site_label
  _atom_site_symmetry_multiplicity
  _atom_site_fract_x
  _atom_site_fract_y
  _atom_site_fract_z
  _atom_site_occupancy
  C   C1        1.0  0.76142594  0.6030286600000001  0.547837968443363  1.0000
  O   O1        1.0  0.7081762699999999  0.7093460200000001  0.5596909650948418  1.0000
  Co  Co1       1.0  0.000885220000000018  0.12447735000000001  0.48859484458638897  1.0000
  Co  Co2       1.0  0.50088522  0.12447735000000001  0.46100295381297524  1.0000
  Co  Co3       1.0  0.75088522  0.62447735  0.47479890085519566  1.0000
  Co  Co4       1.0  0.25088522  0.62447735  0.4472070067707549  1.0000
  Sn  Sn1       1.0  0.000885220000000018  0.12447735000000001  0.46100295381297524  1.0000
  Sn  Sn2       1.0  0.50088522  0.12447735000000001  0.48859484458638897  1.0000
  Sn  Sn3       1.0  0.75088522  0.62447735  0.4472070067707549  1.0000
  Sn  Sn4       1.0  0.25088522  0.62447735  0.47479890085519566  1.0000
  Rh  Rh1       1.0  0.62588522  0.37447735000000004  0.4541049819473786  1.0000
  Rh  Rh2       1.0  0.12588522  0.37447735000000004  0.4816968727207923  1.0000
  Rh  Rh3       1.0  0.12588522  0.37447735000000004  0.4541049819473786  1.0000
  Rh  Rh4       1.0  0.62588522  0.37447735000000004  0.4816968727207923  1.0000
  Rh  Rh5       1.0  0.8758852200000001  0.87447735  0.46790092567857183  1.0000
  Rh  Rh6       1.0  0.3758852200000001  0.87447735  0.4403090349051582  1.0000
  Rh  Rh7       1.0  0.3758852200000001  0.87447735  0.46790092567857183  1.0000
  Rh  Rh8       1.0  0.8758852200000001  0.87447735  0.4403090349051582  1.0000
  Co  Co5       1.0  0.9991147799999999  0.12771296000000001  0.5408432980334938  1.0000
  Co  Co6       1.0  0.49706831999999995  0.13251293000000003  0.5166634934521954  1.0000
  Co  Co7       1.0  0.7429238699999999  0.6409796600000001  0.5305730616978144  1.0000
  Co  Co8       1.0  0.25088522  0.62447735  0.5023907916286093  1.0000
  Sn  Sn5       1.0  0.002064960000000013  0.12355290000000002  0.5155918927995813  1.0000
  Sn  Sn6       1.0  0.49087784999999995  0.14472956  0.5436486517673401  1.0000
  Sn  Sn7       1.0  0.75088522  0.62447735  0.5023907916286093  1.0000
  Sn  Sn8       1.0  0.24305518  0.6401543000000001  0.5309730138963026  1.0000
  Rh  Rh9       1.0  0.62588522  0.37447735000000004  0.5092887634942059  1.0000
  Rh  Rh10      1.0  0.10386279000000001  0.38593418  0.5363457412965553  1.0000
  Rh  Rh11      1.0  0.12588522  0.37447735000000004  0.5092887634942059  1.0000
  Rh  Rh12      1.0  0.6368340799999999  0.38601994000000006  0.5363393675695317  1.0000
  Rh  Rh13      1.0  0.8718512  0.8764471  0.5232765282650802  1.0000
  Rh  Rh14      1.0  0.3758852200000001  0.87447735  0.4954928197630126  1.0000
  Rh  Rh15      1.0  0.3787860099999999  0.8763388600000002  0.5232902259838836  1.0000
  Rh  Rh16      1.0  0.8758852200000001  0.87447735  0.4954928197630126  1.0000
