data_image0
_chemical_formula_structural       Sb2Pd2Sb2Pd2Sb2Pd2Sb2Pd2CO
_chemical_formula_sum              "Sb8 Pd8 C1 O1"
_cell_length_a       8.351433192024974
_cell_length_b       5.72545424
_cell_length_c       103.40573278
_cell_angle_alpha    90.0
_cell_angle_beta     120.0000000315888
_cell_angle_gamma    90.0

_space_group_name_H-M_alt    "P 1"
_space_group_IT_number       1

loop_
  _space_group_symop_operation_xyz
  'x, y, z'

loop_
  _atom_site_type_symbol
  _atom_site_label
  _atom_site_symmetry_multiplicity
  _atom_site_fract_x
  _atom_site_fract_y
  _atom_site_fract_z
  _atom_site_occupancy
  Sb  Sb1       1.0  0.34294955499999996  0.4373190600000001  0.48202059215600673  1.0000
  Sb  Sb2       1.0  0.17628289499999997  0.93731906  0.45509934501753757  1.0000
  Pd  Pd1       1.0  0.009616224999999978  0.18731906000000004  0.4685599685867721  1.0000
  Pd  Pd2       1.0  0.009616224999999978  0.68731906  0.4685599685867721  1.0000
  Sb  Sb3       1.0  0.34931553499999995  0.51520038  0.5207168655653249  1.0000
  Sb  Sb4       1.0  0.17735617499999998  0.9398462000000001  0.4956073072988014  1.0000
  Pd  Pd3       1.0  0.05266565499999998  0.20098210000000002  0.5125215658548992  1.0000
  Pd  Pd4       1.0  0.9903837750000001  0.6893789600000001  0.5072615659414985  1.0000
  Sb  Sb5       1.0  0.842949555  0.4373190600000001  0.48202059215600673  1.0000
  Sb  Sb6       1.0  0.676282895  0.93731906  0.45509934501753757  1.0000
  Pd  Pd5       1.0  0.509616225  0.18731906000000004  0.4685599685867722  1.0000
  Pd  Pd6       1.0  0.509616225  0.68731906  0.4685599685867722  1.0000
  Sb  Sb7       1.0  0.8275641249999999  0.45244722000000004  0.5211239406338898  1.0000
  Sb  Sb8       1.0  0.691937895  0.98653182  0.4964789547541199  1.0000
  Pd  Pd7       1.0  0.49305035500000005  0.21330181000000006  0.5085124314379215  1.0000
  Pd  Pd8       1.0  0.5163232149999999  0.71222099  0.5065836286891933  1.0000
  C   C1        1.0  0.18995183499999999  0.07449368000000003  0.5325141923186696  1.0000
  O   O1        1.0  0.269800885  0.013468180000000015  0.5449006549824624  1.0000
