data_image0
_chemical_formula_structural       COIn12Se14In12Se14
_chemical_formula_sum              "C1 O1 In24 Se28"
_cell_length_a       9.73252678
_cell_length_b       18.23855653479031
_cell_length_c       99.27883063
_cell_angle_alpha    90.0
_cell_angle_beta     90.0
_cell_angle_gamma    100.91087816154885

_space_group_name_H-M_alt    "P 1"
_space_group_IT_number       1

loop_
  _space_group_symop_operation_xyz
  'x, y, z'

loop_
  _atom_site_type_symbol
  _atom_site_label
  _atom_site_symmetry_multiplicity
  _atom_site_fract_x
  _atom_site_fract_y
  _atom_site_fract_z
  _atom_site_occupancy
  C   C1        1.0  0.7130432399999999  0.236069715  0.5394646126363406  1.0000
  O   O1        1.0  0.65311719  0.24306682500000001  0.5491521592859249  1.0000
  In  In1       1.0  0.5212419799999999  0.7290025149999999  0.4513678468925569  1.0000
  In  In2       1.0  0.66658802  0.534764395  0.45114770453417713  1.0000
  In  In3       1.0  0.01054750999999989  0.6049745049999999  0.47202705086421476  1.0000
  In  In4       1.0  0.3475542399999999  0.047964134999999984  0.45088853015649094  1.0000
  In  In5       1.0  0.06366750999999993  0.125237815  0.47197490986675805  1.0000
  In  In6       1.0  0.92610959  0.876769615  0.4509095428604999  1.0000
  In  In7       1.0  0.3231890799999999  0.46724303500000003  0.4722130715404353  1.0000
  In  In8       1.0  0.97922959  0.39703292500000004  0.4509616809088052  1.0000
  In  In9       1.0  0.1756527499999999  0.8140734249999999  0.4508769871777552  1.0000
  In  In10      1.0  0.8141243499999999  0.187934005  0.47194235713316496  1.0000
  In  In11      1.0  0.64222286  0.9540432950000001  0.4719538971627491  1.0000
  In  In12      1.0  0.4685351199999999  0.27300491499999996  0.47243321389881504  1.0000
  Se  Se1       1.0  0.7541741  0.27413154500000003  0.45091465963824806  1.0000
  Se  Se2       1.0  0.7487256200000001  0.8213735550000001  0.471999039823839  1.0000
  Se  Se3       1.0  0.52474747  0.593655765  0.4722985025593452  1.0000
  Se  Se4       1.0  0.43879224  0.909146745  0.45084784071407513  1.0000
  Se  Se5       1.0  0.2356029999999999  0.727875885  0.4719800266445062  1.0000
  Se  Se6       1.0  0.8739922099999998  0.659108285  0.45103558369473656  1.0000
  Se  Se7       1.0  0.24105147999999996  0.18063387500000003  0.45093366986842937  1.0000
  Se  Se8       1.0  0.4650296299999999  0.40835166500000003  0.45123313555308703  1.0000
  Se  Se9       1.0  0.8307066000000001  0.007175854999999978  0.4509551278943058  1.0000
  Se  Se10      1.0  0.11578488999999995  0.342899145  0.4721009507009948  1.0000
  Se  Se11      1.0  0.55098486  0.09286068499999997  0.4719132077203333  1.0000
  Se  Se12      1.0  0.1640262099999999  0.532996715  0.4514323802243639  1.0000
  Se  Se13      1.0  0.8257508900000001  0.4690107149999999  0.4724977472306221  1.0000
  Se  Se14      1.0  0.1590705  0.9948315750000002  0.47202049490056397  1.0000
  In  In13      1.0  0.5025889599999999  0.720569555  0.5017529077853692  1.0000
  In  In14      1.0  0.6700170899999999  0.529176455  0.4935485188864044  1.0000
  In  In15      1.0  0.016210529999999945  0.599654135  0.5098716444790662  1.0000
  In  In16      1.0  0.33655509  0.03502767499999998  0.4943176487344654  1.0000
  In  In17      1.0  0.038046019999999924  0.100735365  0.5111641779280676  1.0000
  In  In18      1.0  0.9637731500000001  0.891759825  0.5053876897485726  1.0000
  In  In19      1.0  0.3353290299999999  0.48008784499999996  0.5106905913932492  1.0000
  In  In20      1.0  0.98945249  0.394938035  0.495109230472438  1.0000
  In  In21      1.0  0.11967540999999994  0.783406705  0.4953790807783365  1.0000
  In  In22      1.0  0.7941937899999999  0.164158365  0.5126543015743881  1.0000
  In  In23      1.0  0.63960945  0.9543967750000001  0.5109564691921583  1.0000
  In  In24      1.0  0.3808805899999999  0.28776825500000003  0.5160559059298476  1.0000
  Se  Se15      1.0  0.76459356  0.268553635  0.49498689967071263  1.0000
  Se  Se16      1.0  0.7472454099999999  0.850060905  0.5220720981892228  1.0000
  Se  Se17      1.0  0.5472712199999998  0.582857075  0.5164329431448278  1.0000
  Se  Se18      1.0  0.43831639  0.905530695  0.49298162414918034  1.0000
  Se  Se19      1.0  0.2037091799999999  0.713997185  0.5173276950476211  1.0000
  Se  Se20      1.0  0.8741932099999997  0.667040745  0.4922245976186286  1.0000
  Se  Se21      1.0  0.2418345299999999  0.17067444499999998  0.49474790928548074  1.0000
  Se  Se22      1.0  0.46544994999999995  0.403341985  0.49310760305123685  1.0000
  Se  Se23      1.0  0.85300826  0.005168424999999979  0.49350838978276224  1.0000
  Se  Se24      1.0  0.14155701999999995  0.368665515  0.5184640679787305  1.0000
  Se  Se25      1.0  0.5510402  0.07759353499999999  0.51825158456664  1.0000
  Se  Se26      1.0  0.17486309999999994  0.534622685  0.4921767092975482  1.0000
  Se  Se27      1.0  0.83828748  0.47228757499999996  0.5126049563724964  1.0000
  Se  Se28      1.0  0.17075552  0.9933622650000001  0.5179350639392057  1.0000
