data_image0
_chemical_formula_structural       COCa9Pb3
_chemical_formula_sum              "C1 O1 Ca9 Pb3"
_cell_length_a       7.31200031
_cell_length_b       7.312000306686205
_cell_length_c       105.82133949
_cell_angle_alpha    90.0
_cell_angle_beta     90.0
_cell_angle_gamma    60.00000003024862

_space_group_name_H-M_alt    "P 1"
_space_group_IT_number       1

loop_
  _space_group_symop_operation_xyz
  'x, y, z'

loop_
  _atom_site_type_symbol
  _atom_site_label
  _atom_site_symmetry_multiplicity
  _atom_site_fract_x
  _atom_site_fract_y
  _atom_site_fract_z
  _atom_site_occupancy
  C   C1        1.0  0.5706682250000001  0.5713275550000001  0.5334912472165662  1.0000
  O   O1        1.0  0.569558955  0.570231675  0.5445449694346511  1.0000
  Ca  Ca1       1.0  0.9223619550000003  0.9223555750000001  0.4858859768104176  1.0000
  Ca  Ca2       1.0  0.246138655  0.246343585  0.455455030565349  1.0000
  Ca  Ca3       1.0  0.5669474950000001  0.5672493650000001  0.5096117182942187  1.0000
  Ca  Ca4       1.0  0.9263768250000001  0.4228451650000001  0.4834594181291756  1.0000
  Ca  Ca5       1.0  0.246138655  0.7463435850000002  0.455455030565349  1.0000
  Ca  Ca6       1.0  0.5675068950000001  0.07414416500000001  0.5146527074367498  1.0000
  Ca  Ca7       1.0  0.423172035  0.9258558350000001  0.48341242987370114  1.0000
  Ca  Ca8       1.0  0.7461386550000002  0.246343585  0.455455030565349  1.0000
  Ca  Ca9       1.0  0.07362317500000001  0.5684410150000001  0.5147402827668687  1.0000
  Pb  Pb1       1.0  0.746138655  0.7463435850000002  0.455455030565349  1.0000
  Pb  Pb2       1.0  0.08435605500000001  0.08386880500000002  0.5108234404993655  1.0000
  Pb  Pb3       1.0  0.41280594500000006  0.413009845  0.48355386178076687  1.0000
