data_image0
_chemical_formula_structural       COFe8As16
_chemical_formula_sum              "C1 O1 Fe8 As16"
_cell_length_a       8.37411272649497
_cell_length_b       6.083756615012976
_cell_length_c       104.26045909
_cell_angle_alpha    112.71780825854557
_cell_angle_beta     105.7430550241619
_cell_angle_gamma    70.64049666251309

_space_group_name_H-M_alt    "P 1"
_space_group_IT_number       1

loop_
  _space_group_symop_operation_xyz
  'x, y, z'

loop_
  _atom_site_type_symbol
  _atom_site_label
  _atom_site_symmetry_multiplicity
  _atom_site_fract_x
  _atom_site_fract_y
  _atom_site_fract_z
  _atom_site_occupancy
  C   C1        1.0  0.10849893500000002  0.25161166999999995  0.539881435383407  1.0000
  O   O1        1.0  0.17151200500000002  0.3076776399999999  0.5520224887970302  1.0000
  Fe  Fe1       1.0  0.8197660550000001  0.12301156999999996  0.5108128256908416  1.0000
  Fe  Fe2       1.0  0.5605639550000001  0.88850372  0.4910937542187246  1.0000
  Fe  Fe3       1.0  0.060563955000000017  0.38850372  0.45001818804887683  1.0000
  Fe  Fe4       1.0  0.310563955  0.6385037200000001  0.4705559711338007  1.0000
  Fe  Fe5       1.0  0.810563955  0.13850372000000002  0.4705559711338007  1.0000
  Fe  Fe6       1.0  0.5605639550000001  0.88850372  0.45001818804887683  1.0000
  Fe  Fe7       1.0  0.060563955000000017  0.38850372  0.4910937542187246  1.0000
  Fe  Fe8       1.0  0.300242605  0.6496599399999998  0.510708290017962  1.0000
  As  As1       1.0  0.9461448549999999  0.09250136999999999  0.4931344310646315  1.0000
  As  As2       1.0  0.696144855  0.8425013699999999  0.4725966479797075  1.0000
  As  As3       1.0  0.22281629500000003  0.34026982999999994  0.5132530823584035  1.0000
  As  As4       1.0  0.446144855  0.59250137  0.4520588648947837  1.0000
  As  As5       1.0  0.9249830450000001  0.43450605999999986  0.4685152942878939  1.0000
  As  As6       1.0  0.674983045  0.18450606000000003  0.44797751120296997  1.0000
  As  As7       1.0  0.174983045  0.68450606  0.48905307737281783  1.0000
  As  As8       1.0  0.436039345  0.9262343099999999  0.5110623515402103  1.0000
  As  As9       1.0  0.5854044850000001  0.4532417399999999  0.4816940972354583  1.0000
  As  As10      1.0  0.33540448500000003  0.20324173999999998  0.4611563141505345  1.0000
  As  As11      1.0  0.8398363750000001  0.71355771  0.5003633889618141  1.0000
  As  As12      1.0  0.07948598500000002  0.9261658099999999  0.5233680391090872  1.0000
  As  As13      1.0  0.035723415000000015  0.82376569  0.45941784503214306  1.0000
  As  As14      1.0  0.964276585  0.43319116999999996  0.5253831406644741  1.0000
  As  As15      1.0  0.28572341500000004  0.07376568999999997  0.4799556281170669  1.0000
  As  As16      1.0  0.547708955  0.33372845999999995  0.501452673544095  1.0000
