data_image0
_chemical_formula_structural       COAs32Rh16
_chemical_formula_sum              "C1 O1 As32 Rh16"
_cell_length_a       10.445093041237795
_cell_length_b       13.806737471255268
_cell_length_c       106.61932224
_cell_angle_alpha    87.22616622602644
_cell_angle_beta     90.68455125366494
_cell_angle_gamma    41.53079280373982

_space_group_name_H-M_alt    "P 1"
_space_group_IT_number       1

loop_
  _space_group_symop_operation_xyz
  'x, y, z'

loop_
  _atom_site_type_symbol
  _atom_site_label
  _atom_site_symmetry_multiplicity
  _atom_site_fract_x
  _atom_site_fract_y
  _atom_site_fract_z
  _atom_site_occupancy
  C   C1        1.0  0.859124  0.34120763499999995  0.5408652939618371  1.0000
  O   O1        1.0  0.95704277  0.28198487499999997  0.5502524431553563  1.0000
  As  As1       1.0  0.6419431200000001  0.13621403499999984  0.4890259175575248  1.0000
  As  As2       1.0  0.3919431199999999  0.886214035  0.46755975559067114  1.0000
  As  As3       1.0  0.9036445899999999  0.37989181499999997  0.5104733026431827  1.0000
  As  As4       1.0  0.1359416700000001  0.6278920249999999  0.5329662581113362  1.0000
  As  As5       1.0  0.7442933  0.4979686949999998  0.47715552840182074  1.0000
  As  As6       1.0  0.49429329999999994  0.24796869499999996  0.45568936643496716  1.0000
  As  As7       1.0  0.9942933  0.7479686949999999  0.4986216903686744  1.0000
  As  As8       1.0  0.24770944  0.013180324999999904  0.5200363369813935  1.0000
  As  As9       1.0  0.9979486600000002  0.4943133349999998  0.45600323263419573  1.0000
  As  As10      1.0  0.7474695799999999  0.24185656500000005  0.5209695311473461  1.0000
  As  As11      1.0  0.24794866000000007  0.7443133349999999  0.4774693946010494  1.0000
  As  As12      1.0  0.49794866000000004  0.994313335  0.4989355565679031  1.0000
  As  As13      1.0  0.8955984800000001  0.13255867499999996  0.46787362178989983  1.0000
  As  As14      1.0  0.7818537100000001  0.8309811449999998  0.5279772095229214  1.0000
  As  As15      1.0  0.14559847999999992  0.3825586749999999  0.48933978375675335  1.0000
  As  As16      1.0  0.3920335099999998  0.632065785  0.5108336800048682  1.0000
  As  As17      1.0  0.95280769  0.2603896949999999  0.4566659359864365  1.0000
  As  As18      1.0  0.7023575  0.04916818499999989  0.5225148921683906  1.0000
  As  As19      1.0  0.20280768999999996  0.510389695  0.47813209795329004  1.0000
  As  As20      1.0  0.45280769000000004  0.7603896949999998  0.4995982599201437  1.0000
  As  As21      1.0  0.18238106  0.12484069499999992  0.48795939276636363  1.0000
  As  As22      1.0  0.93238106  0.874840695  0.46649323079950994  1.0000
  As  As23      1.0  0.4315614899999999  0.375780615  0.5092968195839626  1.0000
  As  As24      1.0  0.5657433  0.6814373049999999  0.5306699867025899  1.0000
  As  As25      1.0  0.68708409  0.3701376649999999  0.48836321420528406  1.0000
  As  As26      1.0  0.43708409000000004  0.12013766499999987  0.4668970522384305  1.0000
  As  As27      1.0  0.9391610300000001  0.6175073749999999  0.5100025995127454  1.0000
  As  As28      1.0  0.21353901000000022  0.8698532249999996  0.5306026928607632  1.0000
  As  As29      1.0  0.4575107199999999  0.505686665  0.4570697574253569  1.0000
  As  As30      1.0  0.20971504999999996  0.2546960749999999  0.522544347177195  1.0000
  As  As31      1.0  0.7075107200000001  0.7556866649999997  0.4785359193922105  1.0000
  As  As32      1.0  0.9575107200000001  0.005686664999999764  0.5000020813590642  1.0000
  Rh  Rh1       1.0  0.5457083999999999  0.33088239499999994  0.4738154348148093  1.0000
  Rh  Rh2       1.0  0.2957084  0.08088239499999994  0.4523492728479556  1.0000
  Rh  Rh3       1.0  0.7957084  0.5808823949999998  0.49528159678166295  1.0000
  Rh  Rh4       1.0  0.042957229999999846  0.8234392449999998  0.516770409842624  1.0000
  Rh  Rh5       1.0  0.96871476  0.1751135849999999  0.503372722153201  1.0000
  Rh  Rh6       1.0  0.71871476  0.9251135849999997  0.4819065601863473  1.0000
  Rh  Rh7       1.0  0.21638526  0.43000006499999993  0.5236387092871948  1.0000
  Rh  Rh8       1.0  0.46871475999999984  0.675113585  0.46044039821949373  1.0000
  Rh  Rh9       1.0  0.09418338  0.2996449649999999  0.4712137188114971  1.0000
  Rh  Rh10      1.0  0.84418338  0.049644964999999805  0.4497475568446435  1.0000
  Rh  Rh11      1.0  0.3441833800000001  0.5496449649999999  0.4926798807783507  1.0000
  Rh  Rh12      1.0  0.5937367500000001  0.8026527949999999  0.5141152310749636  1.0000
  Rh  Rh13      1.0  0.6775665  0.4516794649999999  0.5265936724518336  1.0000
  Rh  Rh14      1.0  0.42207622999999994  0.20265596499999985  0.5063643048728622  1.0000
  Rh  Rh15      1.0  0.9211770199999999  0.7054137749999998  0.46312259000537315  1.0000
  Rh  Rh16      1.0  0.17117701999999996  0.955413775  0.4845887519722268  1.0000
