data_image0
_chemical_formula_structural       CONa10Au2Se24Na10Au2Se24
_chemical_formula_sum              "C1 O1 Na20 Au4 Se48"
_cell_length_a       8.561560550710988
_cell_length_b       17.38322995
_cell_length_c       106.50986206
_cell_angle_alpha    90.0
_cell_angle_beta     73.4599184356538
_cell_angle_gamma    90.0

_space_group_name_H-M_alt    "P 1"
_space_group_IT_number       1

loop_
  _space_group_symop_operation_xyz
  'x, y, z'

loop_
  _atom_site_type_symbol
  _atom_site_label
  _atom_site_symmetry_multiplicity
  _atom_site_fract_x
  _atom_site_fract_y
  _atom_site_fract_z
  _atom_site_occupancy
  C   C1        1.0  0.08619749999999995  0.10420396000000003  0.5686588435304336  1.0000
  O   O1        1.0  0.09963382999999998  0.12811910000000004  0.578319246939535  1.0000
  Na  Na1       1.0  0.15093128999999997  0.34392916000000007  0.5161746096853317  1.0000
  Na  Na2       1.0  0.80685921  0.8384354800000001  0.547221192099932  1.0000
  Na  Na3       1.0  0.4822529699999999  0.9285011  0.5160096106724452  1.0000
  Na  Na4       1.0  0.48566498999999996  0.39194381000000006  0.5540367910884934  1.0000
  Na  Na5       1.0  0.04365632999999997  0.055188560000000025  0.545577454348744  1.0000
  Na  Na6       1.0  0.94167794  0.56147309  0.5210154102669541  1.0000
  Na  Na7       1.0  0.21318894999999996  0.75195603  0.5239842476008063  1.0000
  Na  Na8       1.0  0.7692331499999999  0.21415969000000004  0.5477375445733124  1.0000
  Na  Na9       1.0  0.3972756799999999  0.12958427000000006  0.509229301282672  1.0000
  Na  Na10      1.0  0.6027243199999999  0.62958427  0.49260669708209814  1.0000
  Au  Au1       1.0  0.4658937199999999  0.8911791099999999  0.5467966679958508  1.0000
  Au  Au2       1.0  0.65894716  0.34069368000000005  0.5157424963465038  1.0000
  Se  Se1       1.0  0.07604867999999997  0.77826402  0.5002513222733315  1.0000
  Se  Se2       1.0  0.2877476199999999  0.53639764  0.5042570225222136  1.0000
  Se  Se3       1.0  0.42812425  0.75263365  0.5452032714829148  1.0000
  Se  Se4       1.0  0.56805143  0.21897533000000005  0.5289023356602213  1.0000
  Se  Se5       1.0  0.25322393  0.97154599  0.497610217163912  1.0000
  Se  Se6       1.0  0.74677607  0.47154598999999997  0.504225781200858  1.0000
  Se  Se7       1.0  0.50742501  0.028454010000000023  0.5478162820268493  1.0000
  Se  Se8       1.0  0.9239513199999999  0.27826402000000006  0.5015846760914385  1.0000
  Se  Se9       1.0  0.792268  0.36942052000000003  0.5596263413197018  1.0000
  Se  Se10      1.0  0.39337808999999996  0.40240808000000006  0.529898962605307  1.0000
  Se  Se11      1.0  0.66796262  0.7424994900000002  0.5259715884693253  1.0000
  Se  Se12      1.0  0.3275965599999999  0.25335441000000003  0.5452696515781583  1.0000
  Se  Se13      1.0  0.017441099999999973  0.9395013  0.515753633394242  1.0000
  Se  Se14      1.0  0.08511091999999998  0.18361505000000006  0.5273328620331467  1.0000
  Se  Se15      1.0  0.06414175999999998  0.65250157  0.4902375258397463  1.0000
  Se  Se16      1.0  0.93585824  0.15250157000000003  0.5115984725250238  1.0000
  Se  Se17      1.0  0.68966719  0.05281060000000002  0.5603178494918559  1.0000
  Se  Se18      1.0  0.40464595999999997  0.53418939  0.5223145062657032  1.0000
  Se  Se19      1.0  0.56536971  0.77130874  0.5075313248406997  1.0000
  Se  Se20      1.0  0.43463029  0.27130874000000005  0.49430467352407026  1.0000
  Se  Se21      1.0  0.13562583999999997  0.90851943  0.5331121637000535  1.0000
  Se  Se22      1.0  0.8399321499999999  0.40820727000000007  0.537792260350604  1.0000
  Se  Se23      1.0  0.88036894  0.68353205  0.5378237656155348  1.0000
  Se  Se24      1.0  0.7122523799999999  0.036397640000000016  0.49757897584255656  1.0000
  Na  Na11      1.0  0.15093128999999997  0.34392916000000007  0.4476178369060506  1.0000
  Na  Na12      1.0  0.8490687099999998  0.8439291600000001  0.4856613921072771  1.0000
  Na  Na13      1.0  0.4822529699999999  0.9285011  0.447452837893164  1.0000
  Na  Na14      1.0  0.5177470299999999  0.4285011  0.4858263876923249  1.0000
  Na  Na15      1.0  0.05832205999999997  0.06147309000000003  0.48082059152565465  1.0000
  Na  Na16      1.0  0.94167794  0.56147309  0.45245863748767284  1.0000
  Na  Na17      1.0  0.21318894999999996  0.75195603  0.45542747482152507  1.0000
  Na  Na18      1.0  0.78681105  0.25195603  0.47785175076396375  1.0000
  Na  Na19      1.0  0.3972756799999999  0.12958427000000006  0.44067252850339084  1.0000
  Na  Na20      1.0  0.6027243199999999  0.62958427  0.424049924302817  1.0000
  Au  Au3       1.0  0.34105283999999997  0.84069368  0.48609350544610486  1.0000
  Au  Au4       1.0  0.65894716  0.34069368000000005  0.4471857235672227  1.0000
  Se  Se25      1.0  0.07604867999999997  0.77826402  0.43169454949405034  1.0000
  Se  Se26      1.0  0.2877476199999999  0.53639764  0.4357002497429324  1.0000
  Se  Se27      1.0  0.4189533999999999  0.71103806  0.4743028168694011  1.0000
  Se  Se28      1.0  0.5810466  0.21103806000000006  0.45897640871608786  1.0000
  Se  Se29      1.0  0.25322393  0.97154599  0.4290534443846309  1.0000
  Se  Se30      1.0  0.74677607  0.47154598999999997  0.4356690084215768  1.0000
  Se  Se31      1.0  0.60621507  0.90198131  0.4717816929680227  1.0000
  Se  Se32      1.0  0.9239513199999999  0.27826402000000006  0.43302790331215735  1.0000
  Se  Se33      1.0  0.9825589  0.43950130000000004  0.4860823683983668  1.0000
  Se  Se34      1.0  0.39378492999999987  0.40198131000000004  0.4614975326174663  1.0000
  Se  Se35      1.0  0.66796262  0.7424994900000002  0.45741481569004405  1.0000
  Se  Se36      1.0  0.33203738  0.24249949000000004  0.4758644098954449  1.0000
  Se  Se37      1.0  0.017441099999999973  0.9395013  0.4471968606149608  1.0000
  Se  Se38      1.0  0.07793168999999997  0.17828878000000004  0.4594010253718122  1.0000
  Se  Se39      1.0  0.06414175999999998  0.65250157  0.4216807530604651  1.0000
  Se  Se40      1.0  0.93585824  0.15250157000000003  0.4430416997457426  1.0000
  Se  Se41      1.0  0.59535404  0.03418939000000002  0.47952149209906686  1.0000
  Se  Se42      1.0  0.40464595999999997  0.53418939  0.45375773348642207  1.0000
  Se  Se43      1.0  0.56536971  0.77130874  0.43897455206141855  1.0000
  Se  Se44      1.0  0.43463029  0.27130874000000005  0.42574790074478913  1.0000
  Se  Se45      1.0  0.13719623999999997  0.91841293  0.46486337193896743  1.0000
  Se  Se46      1.0  0.86280376  0.41841293000000007  0.4684158570743601  1.0000
  Se  Se47      1.0  0.9220683099999999  0.67828878  0.47387820021367677  1.0000
  Se  Se48      1.0  0.7122523799999999  0.036397640000000016  0.42902220306327543  1.0000
