data_image0
_chemical_formula_structural       COAg3Ca6Pb3
_chemical_formula_sum              "C1 O1 Ag3 Ca6 Pb3"
_cell_length_a       5.488901201677587
_cell_length_b       5.4889012
_cell_length_c       110.33502157000001
_cell_angle_alpha    90.0
_cell_angle_beta     90.0
_cell_angle_gamma    119.99999998988977

_space_group_name_H-M_alt    "P 1"
_space_group_IT_number       1

loop_
  _space_group_symop_operation_xyz
  'x, y, z'

loop_
  _atom_site_type_symbol
  _atom_site_label
  _atom_site_symmetry_multiplicity
  _atom_site_fract_x
  _atom_site_fract_y
  _atom_site_fract_z
  _atom_site_occupancy
  C   C1        1.0  0.735053155  0.86781642  0.5574317422914137  1.0000
  O   O1        1.0  0.852312465  0.92606855  0.5666737227854911  1.0000
  Ag  Ag1       1.0  0.4810208649999999  0.74059812  0.5044090628066681  1.0000
  Ag  Ag2       1.0  0.8251578249999999  0.41355130999999995  0.5407626649955444  1.0000
  Ag  Ag3       1.0  0.14768753499999998  0.07393145000000001  0.46379032766033623  1.0000
  Ca  Ca1       1.0  0.8143542049999999  0.40726478  0.4536356466155179  1.0000
  Ca  Ca2       1.0  0.14768753499999998  0.07393145000000001  0.49425438176184977  1.0000
  Ca  Ca3       1.0  0.49366662499999997  0.7470817800000001  0.5361887398804841  1.0000
  Ca  Ca4       1.0  0.14768753499999998  0.07393145000000001  0.43332627721450895  1.0000
  Ca  Ca5       1.0  0.4810208649999999  0.74059812  0.47394501236084075  1.0000
  Ca  Ca6       1.0  0.8187353849999999  0.40870841999999996  0.5140399022974965  1.0000
  Pb  Pb1       1.0  0.15585323499999998  0.07649731000000001  0.5267686580104423  1.0000
  Pb  Pb2       1.0  0.4810208649999999  0.74059812  0.4434809619150134  1.0000
  Pb  Pb3       1.0  0.8143542049999999  0.40726478  0.48409969706134526  1.0000
