data_image0
_chemical_formula_structural       COAg12Ca20
_chemical_formula_sum              "C1 O1 Ag12 Ca20"
_cell_length_a       9.507500699377063
_cell_length_b       9.5075007
_cell_length_c       104.66076043999999
_cell_angle_alpha    90.0
_cell_angle_beta     90.0
_cell_angle_gamma    105.16711616115776

_space_group_name_H-M_alt    "P 1"
_space_group_IT_number       1

loop_
  _space_group_symop_operation_xyz
  'x, y, z'

loop_
  _atom_site_type_symbol
  _atom_site_label
  _atom_site_symmetry_multiplicity
  _atom_site_fract_x
  _atom_site_fract_y
  _atom_site_fract_z
  _atom_site_occupancy
  C   C1        1.0  0.54676456  0.32765838499999994  0.5518530696794894  1.0000
  O   O1        1.0  0.55475757  0.27058494499999997  0.5616950512481471  1.0000
  Ag  Ag1       1.0  0.78132849  0.989485675  0.5026801471754019  1.0000
  Ag  Ag2       1.0  0.28132849  0.489485675  0.44748473776010095  1.0000
  Ag  Ag3       1.0  0.78132849  0.989485675  0.44748473776010095  1.0000
  Ag  Ag4       1.0  0.28132849  0.489485675  0.5026801471754019  1.0000
  Ag  Ag5       1.0  0.28132849  0.989485675  0.46101039354106293  1.0000
  Ag  Ag6       1.0  0.78245251  0.490521175  0.5159121457216166  1.0000
  Ag  Ag7       1.0  0.4078653  0.11086960500000001  0.5296996463117914  1.0000
  Ag  Ag8       1.0  0.9088032999999999  0.616960485  0.47508244412361367  1.0000
  Ag  Ag9       1.0  0.15948622999999998  0.866453395  0.5295109674319279  1.0000
  Ag  Ag10      1.0  0.65385368  0.36201086499999996  0.47508244412361367  1.0000
  Ag  Ag11      1.0  0.79807097  0.49371421499999996  0.543455327852983  1.0000
  Ag  Ag12      1.0  0.28132849  0.989485675  0.48915449139443995  1.0000
  Ca  Ca1       1.0  0.53132849  0.23948567499999998  0.5026801471754019  1.0000
  Ca  Ca2       1.0  0.03132848999999999  0.7394856749999998  0.44748473776010095  1.0000
  Ca  Ca3       1.0  0.53132849  0.23948567499999998  0.44748473776010095  1.0000
  Ca  Ca4       1.0  0.03132848999999999  0.7394856749999998  0.5026801471754019  1.0000
  Ca  Ca5       1.0  0.42714266  0.843671515  0.438304948751853  1.0000
  Ca  Ca6       1.0  0.92714266  0.343671515  0.49350035816715393  1.0000
  Ca  Ca7       1.0  0.75535147  0.187792445  0.5290438884320826  1.0000
  Ca  Ca8       1.0  0.26029984  0.676828695  0.47508244412361367  1.0000
  Ca  Ca9       1.0  0.59398547  0.010514324999999995  0.47508244412361367  1.0000
  Ca  Ca10      1.0  0.09610336999999998  0.5234379749999999  0.5286988829089834  1.0000
  Ca  Ca11      1.0  0.81561275  0.7991348449999999  0.5287787252749221  1.0000
  Ca  Ca12      1.0  0.30235714  0.302142655  0.47508244412361367  1.0000
  Ca  Ca13      1.0  0.96867151  0.968457025  0.47508244412361367  1.0000
  Ca  Ca14      1.0  0.48485946  0.44846951499999993  0.5316084448314448  1.0000
  Ca  Ca15      1.0  0.13551432999999996  0.135299845  0.438304948751853  1.0000
  Ca  Ca16      1.0  0.6355143299999999  0.635299845  0.49350035816715393  1.0000
  Ca  Ca17      1.0  0.6355143299999999  0.635299845  0.4566645300800734  1.0000
  Ca  Ca18      1.0  0.13551432999999996  0.135299845  0.5118599361836499  1.0000
  Ca  Ca19      1.0  0.92714266  0.343671515  0.4566645300800734  1.0000
  Ca  Ca20      1.0  0.42714266  0.843671515  0.5118599361836499  1.0000
