data_image0
_chemical_formula_structural       Fe4Rh8Sn4CO
_chemical_formula_sum              "Fe4 Rh8 Sn4 C1 O1"
_cell_length_a       4.57169997
_cell_length_b       4.571699970113547
_cell_length_c       104.94068032
_cell_angle_alpha    90.0
_cell_angle_beta     90.0
_cell_angle_gamma    100.87765771748971

_space_group_name_H-M_alt    "P 1"
_space_group_IT_number       1

loop_
  _space_group_symop_operation_xyz
  'x, y, z'

loop_
  _atom_site_type_symbol
  _atom_site_label
  _atom_site_symmetry_multiplicity
  _atom_site_fract_x
  _atom_site_fract_y
  _atom_site_fract_z
  _atom_site_occupancy
  Fe  Fe1       1.0  0.5158051300000001  0.7876164449999998  0.4523259799294328  1.0000
  Fe  Fe2       1.0  0.015805129999999983  0.28761644499999994  0.4800723561112817  1.0000
  Fe  Fe3       1.0  0.52722292  0.7902913749999999  0.5076847073181988  1.0000
  Fe  Fe4       1.0  0.98419563  0.27796247499999993  0.5346041228014954  1.0000
  Rh  Rh1       1.0  0.5158051300000001  0.28761644499999994  0.43845279516807323  1.0000
  Rh  Rh2       1.0  0.015805129999999962  0.7876164449999998  0.4661991680203572  1.0000
  Rh  Rh3       1.0  0.015805129999999962  0.7876164449999998  0.43845279516807323  1.0000
  Rh  Rh4       1.0  0.5158051300000001  0.28761644499999994  0.4661991680203572  1.0000
  Rh  Rh5       1.0  0.5158051300000001  0.28761644499999994  0.4939455408726413  1.0000
  Rh  Rh6       1.0  0.042664849999999976  0.792660685  0.5208185555398335  1.0000
  Rh  Rh7       1.0  0.015805129999999962  0.7876164449999998  0.4939455408726413  1.0000
  Rh  Rh8       1.0  0.5158682000000001  0.29703261499999994  0.5207918923843109  1.0000
  Sn  Sn1       1.0  0.5158051300000001  0.7876164449999998  0.4800723561112817  1.0000
  Sn  Sn2       1.0  0.015805129999999983  0.28761644499999994  0.4523259799294328  1.0000
  Sn  Sn3       1.0  0.5410496  0.7909224049999999  0.5349103628604804  1.0000
  Sn  Sn4       1.0  0.015804370000000123  0.287616575  0.5068097076576235  1.0000
  C   C1        1.0  0.07320917999999998  0.23458976499999998  0.5506991927955448  1.0000
  O   O1        1.0  0.12879135  0.20733931499999994  0.5615472048319268  1.0000
