data_image0
_chemical_formula_structural       COAg3Ca6Ge3
_chemical_formula_sum              "C1 O1 Ag3 Ca6 Ge3"
_cell_length_a       5.257836076350231
_cell_length_b       5.25783608
_cell_length_c       108.63704664
_cell_angle_alpha    90.0
_cell_angle_beta     90.0
_cell_angle_gamma    120.00000002296255

_space_group_name_H-M_alt    "P 1"
_space_group_IT_number       1

loop_
  _space_group_symop_operation_xyz
  'x, y, z'

loop_
  _atom_site_type_symbol
  _atom_site_label
  _atom_site_symmetry_multiplicity
  _atom_site_fract_x
  _atom_site_fract_y
  _atom_site_fract_z
  _atom_site_occupancy
  C   C1        1.0  0.26820689499999995  0.839457545  0.5560049453498234  1.0000
  O   O1        1.0  0.18842000499999995  0.8840972450000001  0.5653364939000273  1.0000
  Ag  Ag1       1.0  0.5052580449999999  0.7825694250000002  0.5038181741393606  1.0000
  Ag  Ag2       1.0  0.799914885  0.43155646500000006  0.5413710328466792  1.0000
  Ag  Ag3       1.0  0.17192471499999995  0.11590275500000008  0.464301220465921  1.0000
  Ca  Ca1       1.0  0.8385913850000001  0.4492360850000001  0.45442198115842963  1.0000
  Ca  Ca2       1.0  0.17192471499999995  0.11590275500000008  0.4939389348318692  1.0000
  Ca  Ca3       1.0  0.471534975  0.7719468150000002  0.5348524117345502  1.0000
  Ca  Ca4       1.0  0.5052580449999999  0.7825694250000002  0.47418045977341233  1.0000
  Ca  Ca5       1.0  0.832537345  0.45077195500000006  0.5137949902905162  1.0000
  Ca  Ca6       1.0  0.17192471499999995  0.11590275500000008  0.43466350609997284  1.0000
  Ge  Ge1       1.0  0.16140861499999995  0.11803460500000007  0.5240986796209803  1.0000
  Ge  Ge2       1.0  0.5052580449999999  0.7825694250000002  0.4445427418509383  1.0000
  Ge  Ge3       1.0  0.8385913850000001  0.4492360850000001  0.48405969552437783  1.0000
