data_image0
_chemical_formula_structural       COAg3Ca6Sn3
_chemical_formula_sum              "C1 O1 Ag3 Ca6 Sn3"
_cell_length_a       5.4295167338400745
_cell_length_b       5.42951673
_cell_length_c       109.89863663
_cell_angle_alpha    90.0
_cell_angle_beta     90.0
_cell_angle_gamma    120.0000000375298

_space_group_name_H-M_alt    "P 1"
_space_group_IT_number       1

loop_
  _space_group_symop_operation_xyz
  'x, y, z'

loop_
  _atom_site_type_symbol
  _atom_site_label
  _atom_site_symmetry_multiplicity
  _atom_site_fract_x
  _atom_site_fract_y
  _atom_site_fract_z
  _atom_site_occupancy
  C   C1        1.0  0.6260980450000001  0.7067879450000001  0.556592307447908  1.0000
  O   O1        1.0  0.6712574750000001  0.6618756250000001  0.5664571480912781  1.0000
  Ag  Ag1       1.0  0.496138975  0.836240735  0.5041357973097608  1.0000
  Ag  Ag2       1.0  0.8371943550000001  0.4938829450000001  0.5398452223918532  1.0000
  Ag  Ag3       1.0  0.16280564500000003  0.16957406500000002  0.4637969729222361  1.0000
  Ca  Ca1       1.0  0.8294723150000002  0.502907395  0.45371226591773134  1.0000
  Ca  Ca2       1.0  0.16280564500000003  0.16957406500000002  0.49405109030525607  1.0000
  Ca  Ca3       1.0  0.5032879450000001  0.827301355  0.5351809049929054  1.0000
  Ca  Ca4       1.0  0.16280564500000003  0.16957406500000002  0.4335428519087219  1.0000
  Ca  Ca5       1.0  0.496138975  0.836240735  0.4738816762962466  1.0000
  Ca  Ca6       1.0  0.829425025  0.501615845  0.5133900069759172  1.0000
  Sn  Sn1       1.0  0.16447473500000004  0.16375926500000001  0.5261734309756886  1.0000
  Sn  Sn2       1.0  0.496138975  0.836240735  0.44362755891322664  1.0000
  Sn  Sn3       1.0  0.8294723150000002  0.502907395  0.4839663833007513  1.0000
