data_image0
_chemical_formula_structural       COAg3Au3Ca6
_chemical_formula_sum              "C1 O1 Ag3 Au3 Ca6"
_cell_length_a       5.286682516481223
_cell_length_b       5.28668252
_cell_length_c       108.84902382
_cell_angle_alpha    90.0
_cell_angle_beta     90.0
_cell_angle_gamma    120.00000002201762

_space_group_name_H-M_alt    "P 1"
_space_group_IT_number       1

loop_
  _space_group_symop_operation_xyz
  'x, y, z'

loop_
  _atom_site_type_symbol
  _atom_site_label
  _atom_site_symmetry_multiplicity
  _atom_site_fract_x
  _atom_site_fract_y
  _atom_site_fract_z
  _atom_site_occupancy
  C   C1        1.0  0.503369585  0.833980165  0.5566522514108487  1.0000
  O   O1        1.0  0.505188235  0.8348782450000001  0.5672932889780593  1.0000
  Ag  Ag1       1.0  0.500775085  0.832543645  0.5021053736476919  1.0000
  Ag  Ag2       1.0  0.8291645750000001  0.49684825500000007  0.5408830967098218  1.0000
  Ag  Ag3       1.0  0.167441755  0.16587697500000007  0.46244899449453775  1.0000
  Au  Au1       1.0  0.165891575  0.16512175500000006  0.5208072651381525  1.0000
  Au  Au2       1.0  0.500775085  0.832543645  0.44262080670249765  1.0000
  Au  Au3       1.0  0.834108425  0.499210305  0.48227718585565194  1.0000
  Ca  Ca1       1.0  0.834108425  0.499210305  0.4525349023830548  1.0000
  Ca  Ca2       1.0  0.167441755  0.16587697500000007  0.492191281536209  1.0000
  Ca  Ca3       1.0  0.49657116500000004  0.8304417250000001  0.5326195050980171  1.0000
  Ca  Ca4       1.0  0.167441755  0.16587697500000007  0.4327067110219405  1.0000
  Ca  Ca5       1.0  0.500775085  0.832543645  0.4723630901750948  1.0000
  Ca  Ca6       1.0  0.834108425  0.499210305  0.512019469328249  1.0000
