data_image0
_chemical_formula_structural       COAl24W6
_chemical_formula_sum              "C1 O1 Al24 W6"
_cell_length_a       5.244442158873814
_cell_length_b       9.30210009411486
_cell_length_c       104.96120389000001
_cell_angle_alpha    88.4792264167523
_cell_angle_beta     88.82539438590446
_cell_angle_gamma    87.17445419031823

_space_group_name_H-M_alt    "P 1"
_space_group_IT_number       1

loop_
  _space_group_symop_operation_xyz
  'x, y, z'

loop_
  _atom_site_type_symbol
  _atom_site_label
  _atom_site_symmetry_multiplicity
  _atom_site_fract_x
  _atom_site_fract_y
  _atom_site_fract_z
  _atom_site_occupancy
  C   C1        1.0  0.54572278  0.6046082599999999  0.5458703104399437  1.0000
  O   O1        1.0  0.5028969999999999  0.6068030299999999  0.5569205855176538  1.0000
  Al  Al1       1.0  0.94162174  0.47222034999999996  0.47295010966788026  1.0000
  Al  Al2       1.0  0.52872169  0.4211005  0.45592275639410085  1.0000
  Al  Al3       1.0  0.05251669000000002  0.25599053  0.45214368545975764  1.0000
  Al  Al4       1.0  0.030550360000000023  0.54155294  0.44482698830516076  1.0000
  Al  Al5       1.0  0.56454784  0.15713951999999998  0.4467877710640451  1.0000
  Al  Al6       1.0  0.67361416  0.7392773399999999  0.4831163354262463  1.0000
  Al  Al7       1.0  0.24975766000000002  0.23762071999999998  0.4770803907791981  1.0000
  Al  Al8       1.0  0.21447200000000005  0.6963343399999999  0.46532719904803166  1.0000
  Al  Al9       1.0  0.9694496400000001  0.9585466100000001  0.4584224271537818  1.0000
  Al  Al10      1.0  0.04515557999999999  0.9743694500000001  0.4836390853658765  1.0000
  Al  Al11      1.0  0.41347342  0.8827734100000001  0.4430794144823461  1.0000
  Al  Al12      1.0  0.48493506000000003  0.9537721699999999  0.46688235188931504  1.0000
  Al  Al13      1.0  0.12519883000000004  0.5991164999999999  0.5221265992178249  1.0000
  Al  Al14      1.0  0.6629435499999999  0.5677167999999999  0.5026592610291613  1.0000
  Al  Al15      1.0  0.19537384  0.39884768  0.4997275332358228  1.0000
  Al  Al16      1.0  0.1734075  0.6844100799999999  0.49241083275035685  1.0000
  Al  Al17      1.0  0.70740498  0.29999666  0.49437161550924125  1.0000
  Al  Al18      1.0  0.83503845  0.8355363499999999  0.5317700084191772  1.0000
  Al  Al19      1.0  0.36559098  0.33968462  0.5253116529356102  1.0000
  Al  Al20      1.0  0.36847462000000003  0.8279637099999999  0.5146389118939867  1.0000
  Al  Al21      1.0  0.11074606000000002  0.10472870999999996  0.5054116481642297  1.0000
  Al  Al22      1.0  0.07857105  0.07936999999999997  0.5306832590560193  1.0000
  Al  Al23      1.0  0.5563305600000001  0.025630549999999967  0.49066325892754215  1.0000
  Al  Al24      1.0  0.62676861  0.08703889999999996  0.5165994148598602  1.0000
  W   W1        1.0  0.44393093  0.49441883  0.4803441329504393  1.0000
  W   W2        1.0  0.7537138999999999  0.19152974  0.47072670452867377  1.0000
  W   W3        1.0  0.7145688299999999  0.70041559  0.4576879938161653  1.0000
  W   W4        1.0  0.6324587200000001  0.58787916  0.5270148162796776  1.0000
  W   W5        1.0  0.8687779599999997  0.34519925  0.518297285452804  1.0000
  W   W6        1.0  0.8590518599999999  0.8461398899999999  0.5051798929485779  1.0000
