data_image0
_chemical_formula_structural       COZn12Pt4Zn12Pt4
_chemical_formula_sum              "C1 O1 Zn24 Pt8"
_cell_length_a       5.40296844
_cell_length_b       9.037135599036791
_cell_length_c       102.41781062
_cell_angle_alpha    107.39343598289027
_cell_angle_beta     90.0
_cell_angle_gamma    72.60656401710975

_space_group_name_H-M_alt    "P 1"
_space_group_IT_number       1

loop_
  _space_group_symop_operation_xyz
  'x, y, z'

loop_
  _atom_site_type_symbol
  _atom_site_label
  _atom_site_symmetry_multiplicity
  _atom_site_fract_x
  _atom_site_fract_y
  _atom_site_fract_z
  _atom_site_occupancy
  C   C1        1.0  0.5487033349999999  0.9176054199999999  0.5530187534246536  1.0000
  O   O1        1.0  0.5793981749999999  0.8570595000000001  0.5615835340634895  1.0000
  Zn  Zn1       1.0  0.6285589249999999  0.25744003  0.4516050139932315  1.0000
  Zn  Zn2       1.0  0.12855892499999994  0.25744003  0.4779821069414225  1.0000
  Zn  Zn3       1.0  0.12855892499999994  0.25744003  0.4516050139932315  1.0000
  Zn  Zn4       1.0  0.6285589249999999  0.25744003  0.4779821069414225  1.0000
  Zn  Zn5       1.0  0.7535589249999998  0.50744003  0.44501073838224525  1.0000
  Zn  Zn6       1.0  0.2535589249999999  0.50744003  0.47138783449568755  1.0000
  Zn  Zn7       1.0  0.8785589249999998  0.7574400299999999  0.4647935588847013  1.0000
  Zn  Zn8       1.0  0.3785589249999998  0.7574400299999999  0.43841646593651035  1.0000
  Zn  Zn9       1.0  0.3785589249999998  0.7574400299999999  0.4647935588847013  1.0000
  Zn  Zn10      1.0  0.8785589249999998  0.7574400299999999  0.43841646593651035  1.0000
  Zn  Zn11      1.0  0.0035589249999999194  0.007440030000000019  0.45819928643896646  1.0000
  Zn  Zn12      1.0  0.5035589249999999  0.007440030000000019  0.4845763793871574  1.0000
  Pt  Pt1       1.0  0.0035589249999999194  0.007440030000000019  0.4845763793871574  1.0000
  Pt  Pt2       1.0  0.5035589249999999  0.007440030000000019  0.45819928643896646  1.0000
  Pt  Pt3       1.0  0.7535589249999998  0.50744003  0.47138783449568755  1.0000
  Pt  Pt4       1.0  0.2535589249999999  0.50744003  0.44501073838224525  1.0000
  Zn  Zn13      1.0  0.6285589249999999  0.25744003  0.5043591998896135  1.0000
  Zn  Zn14      1.0  0.11524320499999992  0.28097785999999997  0.5330833551494774  1.0000
  Zn  Zn15      1.0  0.12855892499999994  0.25744003  0.5043591998896135  1.0000
  Zn  Zn16      1.0  0.618173415  0.28123939000000003  0.5331147829294405  1.0000
  Zn  Zn17      1.0  0.7535589249999998  0.50744003  0.49776492744387857  1.0000
  Zn  Zn18      1.0  0.25208770500000005  0.5105027099999999  0.5258105699435237  1.0000
  Zn  Zn19      1.0  0.878813975  0.7513681699999999  0.5198111400056616  1.0000
  Zn  Zn20      1.0  0.3785589249999998  0.7574400299999999  0.49117065499814366  1.0000
  Zn  Zn21      1.0  0.3830501049999997  0.7511471200000001  0.5197944084873934  1.0000
  Zn  Zn22      1.0  0.8785589249999998  0.7574400299999999  0.49117065499814366  1.0000
  Zn  Zn23      1.0  0.00366284499999992  0.006347260000000019  0.5097276528109855  1.0000
  Zn  Zn24      1.0  0.49170324499999996  0.030677820000000015  0.5374546906125001  1.0000
  Pt  Pt5       1.0  0.9964410749999998  0.021172040000000017  0.5342269857590937  1.0000
  Pt  Pt6       1.0  0.5100270649999998  0.9936527399999999  0.5102556072288013  1.0000
  Pt  Pt7       1.0  0.7625198249999999  0.48943479000000006  0.5232441303961093  1.0000
  Pt  Pt8       1.0  0.2535589249999999  0.50744003  0.49776492744387857  1.0000
