data_image0
_chemical_formula_structural       COFe6Si6W6
_chemical_formula_sum              "C1 O1 Fe6 Si6 W6"
_cell_length_a       6.80914670009827
_cell_length_b       5.559645
_cell_length_c       99.93960459
_cell_angle_alpha    90.0
_cell_angle_beta     85.65224684173316
_cell_angle_gamma    114.09484255365214

_space_group_name_H-M_alt    "P 1"
_space_group_IT_number       1

loop_
  _space_group_symop_operation_xyz
  'x, y, z'

loop_
  _atom_site_type_symbol
  _atom_site_label
  _atom_site_symmetry_multiplicity
  _atom_site_fract_x
  _atom_site_fract_y
  _atom_site_fract_z
  _atom_site_occupancy
  C   C1        1.0  0.18183598000000006  0.05387459499999984  0.5351060568260462  1.0000
  O   O1        1.0  0.21580426000000008  0.03312987499999981  0.5463650823053898  1.0000
  Fe  Fe1       1.0  0.22988817000000006  0.8865554249999998  0.4970162852111071  1.0000
  Fe  Fe2       1.0  0.40698869000000004  0.4760818649999998  0.5213023915536269  1.0000
  Fe  Fe3       1.0  0.06250000000000003  0.3020833349999998  0.47235847873481707  1.0000
  Fe  Fe4       1.0  0.81934589  0.17711413499999973  0.5094075768525229  1.0000
  Fe  Fe5       1.0  0.47916667  0.01041666499999983  0.4598761037094226  1.0000
  Fe  Fe6       1.0  0.6458333300000001  0.5937500049999999  0.4848408537602115  1.0000
  Si  Si1       1.0  0.35416667  0.6979166649999999  0.4785996647496294  1.0000
  Si  Si2       1.0  0.5286579800000001  0.2812065849999998  0.5035675933121406  1.0000
  Si  Si3       1.0  0.18750000000000006  0.1145833349999998  0.45363491769461023  1.0000
  Si  Si4       1.0  0.9374999999999999  0.989583335  0.49108203977502385  1.0000
  Si  Si5       1.0  0.11248536000000003  0.5733222849999998  0.5155558101230224  1.0000
  Si  Si6       1.0  0.7708333300000001  0.40625000499999986  0.46611729272000474  1.0000
  W   W1        1.0  0.52232449  0.7788069749999998  0.5035694806470934  1.0000
  W   W2        1.0  0.18750000000000006  0.6145833349999998  0.45363491769461023  1.0000
  W   W3        1.0  0.35416667  0.19791666499999983  0.4785996647496294  1.0000
  W   W4        1.0  0.12041550000000004  0.08279765499999982  0.515752389539326  1.0000
  W   W5        1.0  0.7708333300000001  0.9062500049999999  0.46611729272000474  1.0000
  W   W6        1.0  0.9374999999999999  0.4895833349999998  0.49108203977502385  1.0000
