data_image0
_chemical_formula_structural       COV24Si20
_chemical_formula_sum              "C1 O1 V24 Si20"
_cell_length_a       4.857553005218506
_cell_length_b       15.986690521240234
_cell_length_c       100.0295181274414
_cell_angle_alpha    90.0
_cell_angle_beta     90.0
_cell_angle_gamma    90.0

_space_group_name_H-M_alt    "P 1"
_space_group_IT_number       1

loop_
  _space_group_symop_operation_xyz
  'x, y, z'

loop_
  _atom_site_type_symbol
  _atom_site_label
  _atom_site_symmetry_multiplicity
  _atom_site_fract_x
  _atom_site_fract_y
  _atom_site_fract_z
  _atom_site_occupancy
  C   C1        1.0  0.002500041497325471  0.009680745831956312  0.00017315402542691217  1.0000
  O   O1        1.0  0.002500041497325471  0.009680745831956312  0.00029311885724192283  1.0000
  V   V1        1.0  0.0019985684442698545  0.006614477788777361  0.9999830546330738  1.0000
  V   V2        1.0  0.007500000828259315  0.007782904026424454  0.9996182832350474  1.0000
  V   V3        1.0  0.0025000004678131316  0.007782904026424454  0.9996182832350474  1.0000
  V   V4        1.0  0.00800144052087032  0.006614477788777361  0.9999830552289444  1.0000
  V   V5        1.0  4.949999916533132e-09  0.00820534851961969  0.9998881068307626  1.0000
  V   V6        1.0  0.005000000935626263  0.006108526641745101  0.9996984534475221  1.0000
  V   V7        1.0  5.500000161210179e-10  0.006115429292989549  0.9995330043263444  1.0000
  V   V8        1.0  0.005000000552172877  0.008246172544898784  0.9993283040197752  1.0000
  V   V9        1.0  4.150000059306946e-09  0.005305322939124012  0.999823825506715  1.0000
  V   V10       1.0  0.005000000552172877  0.009012205114041062  0.9998069129126694  1.0000
  V   V11       1.0  5.500000161210179e-10  0.009029002450895588  0.9994329883470028  1.0000
  V   V12       1.0  0.005000000552172877  0.005332599386992745  0.9994283199991167  1.0000
  V   V13       1.0  0.007500000828259315  0.0015786978813712247  0.9996182832350474  1.0000
  V   V14       1.0  0.0030014662352544075  0.0027472465733842937  0.999983031394122  1.0000
  V   V15       1.0  0.00699852969247063  0.0027472465733842937  0.999983031394122  1.0000
  V   V16       1.0  0.0025000004678131316  0.0015786978813712247  0.9996182832350474  1.0000
  V   V17       1.0  0.005000000552172877  0.0032461724982938878  0.9995330043263444  1.0000
  V   V18       1.0  5.500000161210179e-10  0.001115429595921378  0.9993283040197752  1.0000
  V   V19       1.0  0.004999998634905945  0.0011563403063082596  0.9998880990844453  1.0000
  V   V20       1.0  0.009999998803625435  0.0032531000831580487  0.999698475792668  1.0000
  V   V21       1.0  0.005000000552172877  0.0003325994860281502  0.9994329883470028  1.0000
  V   V22       1.0  5.500000161210179e-10  0.004029002637315176  0.9994283199991167  1.0000
  V   V23       1.0  0.0049999978679991725  0.00405636810053653  0.9998238284860678  1.0000
  V   V24       1.0  5.500000161210179e-10  0.00034950558706025854  0.99980691350854  1.0000
  Si  Si1       1.0  0.007500000828259315  0.00468080101215396  0.9996182832350474  1.0000
  Si  Si2       1.0  0.0025000004678131316  0.00468080101215396  0.9996182832350474  1.0000
  Si  Si3       1.0  0.009999999570532207  0.006772117453585996  0.9997558968589823  1.0000
  Si  Si4       1.0  0.00500000438670674  0.007536025305489504  0.9998478605415394  1.0000
  Si  Si5       1.0  5.500000161210179e-10  0.0075417977879899244  0.9993947906607578  1.0000
  Si  Si6       1.0  0.005000000552172877  0.006819804049898408  0.9994665176853619  1.0000
  Si  Si7       1.0  5.500000161210179e-10  0.009042347297005473  0.9996859845581623  1.0000
  Si  Si8       1.0  0.005000004003253354  0.005398035924247431  0.9999342981205422  1.0000
  Si  Si9       1.0  5.500000161210179e-10  0.005319254540882858  0.9993107264341871  1.0000
  Si  Si10      1.0  0.005000000552172877  0.009042347297005473  0.9995505822098678  1.0000
  Si  Si11      1.0  0.002500041497325471  0.009680745831956312  0.0  1.0000
  Si  Si12      1.0  0.007499960949107135  0.00968074489985838  0.0  1.0000
  Si  Si13      1.0  0.005000000552172877  0.0018198042363179953  0.9993947906607578  1.0000
  Si  Si14      1.0  5.500000161210179e-10  0.0025417977413850286  0.9994665176853619  1.0000
  Si  Si15      1.0  0.004999999018359331  0.0025894976200929887  0.9997558900064709  1.0000
  Si  Si16      1.0  0.009999998803625435  0.0018255677473758085  0.9998478355149759  1.0000
  Si  Si17      1.0  0.005000000552172877  0.004042347483425061  0.9993107264341871  1.0000
  Si  Si18      1.0  5.500000161210179e-10  0.00031925440689378135  0.9995505822098678  1.0000
  Si  Si19      1.0  0.005000000552172877  0.00031925440689378135  0.9996859845581623  1.0000
  Si  Si20      1.0  0.00999999726981189  0.003963681680204208  0.9999343154007885  1.0000
