data_image0
_chemical_formula_structural       HTc24
_chemical_formula_sum              "H1 Tc24"
_cell_length_a       8.821625709533691
_cell_length_b       4.770316123962402
_cell_length_c       100.29557800292969
_cell_angle_alpha    90.0
_cell_angle_beta     90.0
_cell_angle_gamma    90.0

_space_group_name_H-M_alt    "P 1"
_space_group_IT_number       1

loop_
  _space_group_symop_operation_xyz
  'x, y, z'

loop_
  _atom_site_type_symbol
  _atom_site_label
  _atom_site_symmetry_multiplicity
  _atom_site_fract_x
  _atom_site_fract_y
  _atom_site_fract_z
  _atom_site_occupancy
  H   H1        1.0  0.0012500000422290677  0.0033333332448277596  0.00014955839128911417  1.0000
  Tc  Tc1       1.0  0.0037499999155418645  0.006666666489655519  0.9998626988370252  1.0000
  Tc  Tc2       1.0  0.0037499999155418645  0.0016666668176467637  0.0  1.0000
  Tc  Tc3       1.0  0.0012500000422290677  0.0033333332448277596  0.9998626988370252  1.0000
  Tc  Tc4       1.0  0.0012500000422290677  0.00833333369776805  0.0  1.0000
  Tc  Tc5       1.0  0.0037499999155418645  0.006666666489655519  0.9995880962139305  1.0000
  Tc  Tc6       1.0  0.0037499999155418645  0.0016666668176467637  0.9997253976740503  1.0000
  Tc  Tc7       1.0  0.0012500000422290677  0.0033333332448277596  0.9995880962139305  1.0000
  Tc  Tc8       1.0  0.0012500000422290677  0.00833333369776805  0.9997253976740503  1.0000
  Tc  Tc9       1.0  0.0037499999155418645  0.006666666489655519  0.9993134935908359  1.0000
  Tc  Tc10      1.0  0.0037499999155418645  0.0016666668176467637  0.9994507947538107  1.0000
  Tc  Tc11      1.0  0.0012500000422290677  0.0033333332448277596  0.9993134935908359  1.0000
  Tc  Tc12      1.0  0.0012500000422290677  0.00833333369776805  0.9994507947538107  1.0000
  Tc  Tc13      1.0  0.008749999662167458  0.006666666489655519  0.9998626988370252  1.0000
  Tc  Tc14      1.0  0.008749999662167458  0.0016666668176467637  0.0  1.0000
  Tc  Tc15      1.0  0.0062499999999999995  0.0033333332448277596  0.9998626988370252  1.0000
  Tc  Tc16      1.0  0.0062499999999999995  0.00833333369776805  0.0  1.0000
  Tc  Tc17      1.0  0.008749999662167458  0.006666666489655519  0.9995880962139305  1.0000
  Tc  Tc18      1.0  0.008749999662167458  0.0016666668176467637  0.9997253976740503  1.0000
  Tc  Tc19      1.0  0.0062499999999999995  0.0033333332448277596  0.9995880962139305  1.0000
  Tc  Tc20      1.0  0.0062499999999999995  0.00833333369776805  0.9997253976740503  1.0000
  Tc  Tc21      1.0  0.008749999662167458  0.006666666489655519  0.9993134935908359  1.0000
  Tc  Tc22      1.0  0.008749999662167458  0.0016666668176467637  0.9994507947538107  1.0000
  Tc  Tc23      1.0  0.0062499999999999995  0.0033333332448277596  0.9993134935908359  1.0000
  Tc  Tc24      1.0  0.0062499999999999995  0.00833333369776805  0.9994507947538107  1.0000
