data_image0
_chemical_formula_structural       HAg24Al12
_chemical_formula_sum              "H1 Ag24 Al12"
_cell_length_a       9.969144147355136
_cell_length_b       5.114678659640261
_cell_length_c       107.117431640625
_cell_angle_alpha    90.26483116692096
_cell_angle_beta     90.42334570528801
_cell_angle_gamma    89.50698184244573

_space_group_name_H-M_alt    "P 1"
_space_group_IT_number       1

loop_
  _space_group_symop_operation_xyz
  'x, y, z'

loop_
  _atom_site_type_symbol
  _atom_site_label
  _atom_site_symmetry_multiplicity
  _atom_site_fract_x
  _atom_site_fract_y
  _atom_site_fract_z
  _atom_site_occupancy
  H   H1        1.0  0.0065050103867542435  0.009283460272507935  5.7265086667321535e-05  1.0000
  Ag  Ag1       1.0  0.009722222039521519  0.0007165393109098827  0.999039826037767  1.0000
  Ag  Ag2       1.0  0.0019444443705337053  0.0007165393317526096  0.9994248387426293  1.0000
  Ag  Ag3       1.0  0.005833333298454108  0.005716539112187767  0.999232332606707  1.0000
  Ag  Ag4       1.0  0.002358733890940133  0.0008859415307006077  0.9989093141817784  1.0000
  Ag  Ag5       1.0  0.00458095597530637  0.0008859415265292297  0.9992943271354735  1.0000
  Ag  Ag6       1.0  0.008469845090079765  0.005885941212797868  0.9991018207214378  1.0000
  Ag  Ag7       1.0  0.009421638357411877  0.0025315751238306075  0.9993022134741825  1.0000
  Ag  Ag8       1.0  0.0033105275319782303  0.007531575020324937  0.9991097070894476  1.0000
  Ag  Ag9       1.0  0.0071994166467516255  0.0025315751217590814  0.9989172007989642  1.0000
  Ag  Ag10      1.0  0.008169261407970124  0.00770097711676366  0.9993642081578734  1.0000
  Ag  Ag11      1.0  0.002058150395683484  0.0027009774315449476  0.9991717018965629  1.0000
  Ag  Ag12      1.0  0.005947039323603887  0.007700977120935038  0.9989791954823994  1.0000
  Ag  Ag13      1.0  0.008055555382820346  0.005716539108016389  0.9996173450039599  1.0000
  Ag  Ag14      1.0  0.0002777777371891556  0.005716539128468934  2.3579870592590056e-06  1.0000
  Ag  Ag15      1.0  0.004166666641752934  0.0007165393244597797  0.9998098516964521  1.0000
  Ag  Ag16      1.0  0.000692067234238959  0.005885941236762047  0.9994868334261723  1.0000
  Ag  Ag17      1.0  0.0029142895054581884  0.005885941229469217  0.9998718463799952  1.0000
  Ag  Ag18      1.0  0.006803178433378591  0.0008859415161149479  0.999679340089424  1.0000
  Ag  Ag19      1.0  0.007754971700710704  0.00753157501198218  0.9998797327186165  1.0000
  Ag  Ag20      1.0  0.0016438608752770568  0.0025315751415518825  0.9996872264573936  1.0000
  Ag  Ag21      1.0  0.005532749616344468  0.007531575016153558  0.9994947203213637  1.0000
  Ag  Ag22      1.0  0.00650259475126895  0.0027009774200807395  0.9999417278040806  1.0000
  Ag  Ag23      1.0  0.0003914837389823105  0.007700977137606387  0.9997492211409568  1.0000
  Ag  Ag24      1.0  0.004280372666902714  0.0027009774242521176  0.9995567148503857  1.0000
  Al  Al1       1.0  0.003227883574573203  0.0058460045151823405  0.9993613067228793  1.0000
  Al  Al2       1.0  0.007116772315640613  0.0008460048049495232  0.9991687998757384  1.0000
  Al  Al3       1.0  0.0010056612099274775  0.005846004524035896  0.9989762937689926  1.0000
  Al  Al4       1.0  0.0007747113317837311  0.0075715113753832865  0.9992352340709771  1.0000
  Al  Al5       1.0  0.004663600306417382  0.002571511843338788  0.9990427277804782  1.0000
  Al  Al6       1.0  0.006885822017077634  0.0025715118454103137  0.9994277407339176  1.0000
  Al  Al7       1.0  0.0015612168244455327  0.0008460048200601461  0.9999388258125805  1.0000
  Al  Al8       1.0  0.00545010565893944  0.005846004511010962  0.9997463191201322  1.0000
  Al  Al9       1.0  0.009338994773712835  0.0008460047945352413  0.9995538128296889  1.0000
  Al  Al10      1.0  0.009108044475149856  0.0025715118349960322  0.9998127536878683  1.0000
  Al  Al11      1.0  0.002996933462863216  0.007571511370431544  0.9996202470247041  1.0000
  Al  Al12      1.0  0.0052191557340824455  0.007571511363138716  5.259978526907465e-06  1.0000
