data_image0
_chemical_formula_structural       COV2Se2V2Se2V2Se2V2Se2V2Se2V2Se2V2Se2V2Se2
_chemical_formula_sum              "C1 O1 V16 Se16"
_cell_length_a       7.29290246963501
_cell_length_b       7.29290246963501
_cell_length_c       109.62262725830078
_cell_angle_alpha    90.0
_cell_angle_beta     90.0
_cell_angle_gamma    90.0

_space_group_name_H-M_alt    "P 1"
_space_group_IT_number       1

loop_
  _space_group_symop_operation_xyz
  'x, y, z'

loop_
  _atom_site_type_symbol
  _atom_site_label
  _atom_site_symmetry_multiplicity
  _atom_site_fract_x
  _atom_site_fract_y
  _atom_site_fract_z
  _atom_site_occupancy
  C   C1        1.0  0.002499830410953082  0.0024999923378442655  0.0001576810100416489  1.0000
  O   O1        1.0  0.002499830410953082  0.0024999923378442655  0.00026714768328986194  1.0000
  V   V1        1.0  0.0025000206878204824  0.002500059764814727  0.9993164127679124  1.0000
  V   V2        1.0  2.0849999427238893e-08  5.970000082728335e-08  0.9993164127679124  1.0000
  Se  Se1       1.0  2.0849999427238893e-08  0.002500059764814727  0.9991583571308318  1.0000
  Se  Se2       1.0  0.0025000206878204824  5.970000082728335e-08  0.9988720580674564  1.0000
  V   V3        1.0  0.002499830410953082  0.0024999923378442655  0.9999996797455356  1.0000
  V   V4        1.0  0.009999667973251516  0.00999993972437489  0.0  1.0000
  Se  Se3       1.0  0.009999978545963944  0.002499945598694287  0.9998397982774003  1.0000
  Se  Se4       1.0  0.0025000206878204824  5.970000082728335e-08  0.9994744678612673  1.0000
  V   V5        1.0  0.0025000206878204824  0.007500059764814726  0.9993164127679124  1.0000
  V   V6        1.0  2.0849999427238893e-08  0.005000059764814727  0.9993164127679124  1.0000
  Se  Se5       1.0  2.0849999427238893e-08  0.007500059764814726  0.9991583571308318  1.0000
  Se  Se6       1.0  0.0025000206878204824  0.005000059764814727  0.9988720580674564  1.0000
  V   V7        1.0  0.002499830410953082  0.007499992337844265  0.9999996797455356  1.0000
  V   V8        1.0  0.009999667973251516  0.004999940235185273  0.0  1.0000
  Se  Se7       1.0  0.009999978545963944  0.007499945343289095  0.9998397982774003  1.0000
  Se  Se8       1.0  0.0025000206878204824  0.005000059764814727  0.9994744678612673  1.0000
  V   V9        1.0  0.007500020943225673  0.002500059764814727  0.9993164127679124  1.0000
  V   V10       1.0  0.005000020943225673  5.970000082728335e-08  0.9993164127679124  1.0000
  Se  Se9       1.0  0.005000020943225673  0.002500059764814727  0.9991583571308318  1.0000
  Se  Se10      1.0  0.007500020943225673  5.970000082728335e-08  0.9988720580674564  1.0000
  V   V11       1.0  0.007499830410953081  0.0024999923378442655  0.9999996797455356  1.0000
  V   V12       1.0  0.004999667462441134  0.00999993972437489  0.0  1.0000
  Se  Se11      1.0  0.0049999790567743264  0.002499945598694287  0.9998397982774003  1.0000
  Se  Se12      1.0  0.007500020943225673  5.970000082728335e-08  0.9994744678612673  1.0000
  V   V13       1.0  0.007500020943225673  0.007500059764814726  0.9993164127679124  1.0000
  V   V14       1.0  0.005000020943225673  0.005000059764814727  0.9993164127679124  1.0000
  Se  Se13      1.0  0.005000020943225673  0.007500059764814726  0.9991583571308318  1.0000
  Se  Se14      1.0  0.007500020943225673  0.005000059764814727  0.9988720580674564  1.0000
  V   V15       1.0  0.007499830410953081  0.007499992337844265  0.9999996797455356  1.0000
  V   V16       1.0  0.004999667462441134  0.004999940235185273  0.0  1.0000
  Se  Se15      1.0  0.0049999790567743264  0.007499945343289095  0.9998397982774003  1.0000
  Se  Se16      1.0  0.007500020943225673  0.005000059764814727  0.9994744678612673  1.0000
