data_image0
_chemical_formula_structural       Si10Rh8Si10Rh8H
_chemical_formula_sum              "Si20 Rh16 H1"
_cell_length_a       6.001636741228204
_cell_length_b       7.133999824523926
_cell_length_c       32.57065200805664
_cell_angle_alpha    90.0
_cell_angle_beta     79.91163126976875
_cell_angle_gamma    90.0

_space_group_name_H-M_alt    "P 1"
_space_group_IT_number       1

loop_
  _space_group_symop_operation_xyz
  'x, y, z'

loop_
  _atom_site_type_symbol
  _atom_site_label
  _atom_site_symmetry_multiplicity
  _atom_site_fract_x
  _atom_site_fract_y
  _atom_site_fract_z
  _atom_site_occupancy
  Si  Si1       1.0  0.004870411980549308  0.0037500003342004276  0.9983008175231697  1.0000
  Si  Si2       1.0  0.0002014656091915916  0.0037500003342004276  0.9985399453095568  1.0000
  Si  Si3       1.0  0.0036150953358542594  0.0012500003289785458  0.9966075364482451  1.0000
  Si  Si4       1.0  0.0010833023874101176  0.001249999806790378  0.9996166704840955  1.0000
  Si  Si5       1.0  0.005328868685674914  0.0012500003289785458  0.9988617805877018  1.0000
  Si  Si6       1.0  0.005129588132933508  0.0012500003289785458  0.9977078573941197  1.0000
  Si  Si7       1.0  0.006350401903678772  0.0037500003342004276  0.9994340963701508  1.0000
  Si  Si8       1.0  0.004671131427807902  0.0037500003342004276  0.9971468943295876  1.0000
  Si  Si9       1.0  0.009798534386079959  0.0012500003289785458  0.9974687296115481  1.0000
  Si  Si10      1.0  0.008932086153490582  0.0037500003342004276  0.9963861080629792  1.0000
  Rh  Rh1       1.0  0.007140062619515058  0.001250000198431504  0.9998718669113098  1.0000
  Rh  Rh2       1.0  0.0028708841724578884  0.0037499992898240918  0.9999073360348494  1.0000
  Rh  Rh3       1.0  0.0010767672745710774  0.0037500003342004276  0.9969573948984349  1.0000
  Rh  Rh4       1.0  0.008942162797060688  0.0012500003289785458  0.9990353952861178  1.0000
  Rh  Rh5       1.0  0.007147126294329515  0.0012500003289785458  0.9969707382864386  1.0000
  Rh  Rh6       1.0  0.007909433868832345  0.0012500003289785458  0.9981963219711085  1.0000
  Rh  Rh7       1.0  0.0020905664022654925  0.0037500003342004276  0.9978123529410935  1.0000
  Rh  Rh8       1.0  0.002866349903512371  0.0037500003342004276  0.9990299542392047  1.0000
  Si  Si11      1.0  0.004870411980549308  0.008750000605738275  0.9983008175231697  1.0000
  Si  Si12      1.0  0.0002014656091915916  0.008750000605738275  0.9985399453095568  1.0000
  Si  Si13      1.0  0.0036150953358542594  0.006250000208875267  0.9966075364482451  1.0000
  Si  Si14      1.0  0.0010833023874101176  0.0062499996866870995  0.9996166704840955  1.0000
  Si  Si15      1.0  0.005328868685674914  0.006250000208875267  0.9988617805877018  1.0000
  Si  Si16      1.0  0.005129588132933508  0.006250000208875267  0.9977078573941197  1.0000
  Si  Si17      1.0  0.006350401903678772  0.008750000605738275  0.9994340963701508  1.0000
  Si  Si18      1.0  0.004671131427807902  0.008750000605738275  0.9971468943295876  1.0000
  Si  Si19      1.0  0.009798534386079959  0.006250000208875267  0.9974687296115481  1.0000
  Si  Si20      1.0  0.008932086153490582  0.008750000605738275  0.9963861080629792  1.0000
  Rh  Rh9       1.0  0.007140062619515058  0.006250000208875267  0.9998718669113098  1.0000
  Rh  Rh10      1.0  0.0028708841724578884  0.00874999956136194  0.9999073360348494  1.0000
  Rh  Rh11      1.0  0.0010767672745710774  0.008750000605738275  0.9969573948984349  1.0000
  Rh  Rh12      1.0  0.008942162797060688  0.006250000208875267  0.9990353952861178  1.0000
  Rh  Rh13      1.0  0.007147126294329515  0.006250000208875267  0.9969707382864386  1.0000
  Rh  Rh14      1.0  0.007909433868832345  0.006250000208875267  0.9981963219711085  1.0000
  Rh  Rh15      1.0  0.0020905664022654925  0.008750000605738275  0.9978123529410935  1.0000
  Rh  Rh16      1.0  0.002866349903512371  0.008750000605738275  0.9990299542392047  1.0000
  H   H1        1.0  0.004099876586681423  0.004999999749349679  0.9998450953915913  1.0000
