data_image0
_chemical_formula_structural       COAl8Ca4Ga8
_chemical_formula_sum              "C1 O1 Al8 Ca4 Ga8"
_cell_length_a       6.138236045837402
_cell_length_b       6.375276048349423
_cell_length_c       102.31099700927734
_cell_angle_alpha    92.47588339921535
_cell_angle_beta     90.0
_cell_angle_gamma    90.0

_space_group_name_H-M_alt    "P 1"
_space_group_IT_number       1

loop_
  _space_group_symop_operation_xyz
  'x, y, z'

loop_
  _atom_site_type_symbol
  _atom_site_label
  _atom_site_symmetry_multiplicity
  _atom_site_fract_x
  _atom_site_fract_y
  _atom_site_fract_z
  _atom_site_occupancy
  C   C1        1.0  0.006142141759952408  0.006214823799160048  0.00012217565733908882  1.0000
  O   O1        1.0  0.006142141759952408  0.006214823799160048  0.0002394647568966091  1.0000
  Al  Al1       1.0  0.007284292599116246  0.0035907903202948587  0.9999571657818948  1.0000
  Al  Al2       1.0  0.0025000118466715977  0.001331599689895715  0.9996938693615752  1.0000
  Al  Al3       1.0  0.0027156983459482907  0.003590799678374048  0.9999571658070852  1.0000
  Al  Al4       1.0  0.007500011870947564  0.001331599689895715  0.9996938693615752  1.0000
  Al  Al5       1.0  0.007500011870947564  0.008831599502734131  0.9994306929991059  1.0000
  Al  Al6       1.0  0.0025000118466715977  0.006331599760081309  0.9991675167863918  1.0000
  Al  Al7       1.0  0.0025000118466715977  0.008831599502734131  0.9994306929991059  1.0000
  Al  Al8       1.0  0.007500011870947564  0.006331599760081309  0.9991675167863918  1.0000
  Ca  Ca1       1.0  1.1799999880220745e-08  0.006331599760081309  0.999693869141839  1.0000
  Ca  Ca2       1.0  0.00499999122423815  0.00860391041750359  0.9999482826990119  1.0000
  Ca  Ca3       1.0  1.1799999880220745e-08  0.001331599689895715  0.9991675167148364  1.0000
  Ca  Ca4       1.0  0.005000011858809581  0.0038315997249885117  0.9994306929283377  1.0000
  Ga  Ga1       1.0  0.009999978200182181  0.006683946063550192  1.7992106009640837e-05  1.0000
  Ga  Ga2       1.0  0.005000012162259161  0.004611893914175334  0.999746002194943  1.0000
  Ga  Ga3       1.0  0.009999988517467898  0.0003622694132440365  0.99991686125872  1.0000
  Ga  Ga4       1.0  0.005000011858809581  0.008025468826666063  0.9996344314423498  1.0000
  Ga  Ga5       1.0  1.1799999880220745e-08  0.0021377306584037573  0.99949013121041  1.0000
  Ga  Ga6       1.0  0.005000011858809581  0.009637730763682148  0.9992269548487278  1.0000
  Ga  Ga7       1.0  1.1799999880220745e-08  0.0055254684991332915  0.9993712549367698  1.0000
  Ga  Ga8       1.0  0.005000011858809581  0.0030254687564804698  0.9991080787240557  1.0000
