data_image0
_chemical_formula_structural       COCa8Pb4Ca8Pb4
_chemical_formula_sum              "C1 O1 Ca16 Pb8"
_cell_length_a       7.98830509185791
_cell_length_b       10.99101006335951
_cell_length_c       106.07292175292969
_cell_angle_alpha    117.96049653199734
_cell_angle_beta     90.0
_cell_angle_gamma    90.0

_space_group_name_H-M_alt    "P 1"
_space_group_IT_number       1

loop_
  _space_group_symop_operation_xyz
  'x, y, z'

loop_
  _atom_site_type_symbol
  _atom_site_label
  _atom_site_symmetry_multiplicity
  _atom_site_fract_x
  _atom_site_fract_y
  _atom_site_fract_z
  _atom_site_occupancy
  C   C1        1.0  0.007499999813462794  0.005320008937711716  0.0003035433126841666  1.0000
  O   O1        1.0  0.007499999813462794  0.005320008937711716  0.00041667270061600096  1.0000
  Ca  Ca1       1.0  0.003414611371740897  0.0006993216186891425  0.999305239070123  1.0000
  Ca  Ca2       1.0  0.006585388301818992  0.009300678855220415  0.9994802015604158  1.0000
  Ca  Ca3       1.0  0.008414611325106595  0.004300678594282359  0.9994802015477389  1.0000
  Ca  Ca4       1.0  0.0015853884650390477  0.005699321543861317  0.9993052390664877  1.0000
  Ca  Ca5       1.0  0.004785522970490113  0.006854082959784644  0.9996042519979362  1.0000
  Ca  Ca6       1.0  0.005214476936241285  0.003145917370225251  0.9991811886256117  1.0000
  Ca  Ca7       1.0  0.009785522690684303  0.008145917439297089  0.9991811886289674  1.0000
  Ca  Ca8       1.0  0.00021447709946134026  0.0018540826988465873  0.9996042519852592  1.0000
  Pb  Pb1       1.0  0.007519137131857631  0.0010930744121845327  0.9993243685162693  1.0000
  Pb  Pb2       1.0  0.0024808627748737666  0.008906925630026034  0.9994610720932966  1.0000
  Pb  Pb3       1.0  0.002519137178491932  0.003906925752820415  0.9994610720992623  1.0000
  Pb  Pb4       1.0  0.007480862495067957  0.0060930743853232616  0.9993243685149643  1.0000
  Ca  Ca9       1.0  0.003414611371740897  0.0006993216186891425  0.9997910628271169  1.0000
  Ca  Ca10      1.0  0.006585388301818992  0.009300678855220415  0.9999660253174097  1.0000
  Ca  Ca11      1.0  0.008414611325106595  0.004300678594282359  0.9999660253047328  1.0000
  Ca  Ca12      1.0  0.0015853884650390477  0.005699321543861317  0.9997910628234816  1.0000
  Ca  Ca13      1.0  0.004785522970490113  0.006854082959784644  9.007575493009426e-05  1.0000
  Ca  Ca14      1.0  0.005214476936241285  0.003145917370225251  0.9996670123826056  1.0000
  Ca  Ca15      1.0  0.009785522690684303  0.008145917439297089  0.9996670123859613  1.0000
  Ca  Ca16      1.0  0.00021447709946134026  0.0018540826988465873  9.007574225310359e-05  1.0000
  Pb  Pb5       1.0  0.007519137131857631  0.0010930744121845327  0.9998101922732632  1.0000
  Pb  Pb6       1.0  0.0024808627748737666  0.008906925630026034  0.9999468958502905  1.0000
  Pb  Pb7       1.0  0.002519137178491932  0.003906925752820415  0.9999468958562562  1.0000
  Pb  Pb8       1.0  0.007480862495067957  0.0060930743853232616  0.9998101922719582  1.0000
