data_image0
_chemical_formula_structural       HSn8
_chemical_formula_sum              "H1 Sn8"
_cell_length_a       4.75570821762085
_cell_length_b       6.725587368011475
_cell_length_c       108.04566955566406
_cell_angle_alpha    90.0
_cell_angle_beta     90.0
_cell_angle_gamma    90.0

_space_group_name_H-M_alt    "P 1"
_space_group_IT_number       1

loop_
  _space_group_symop_operation_xyz
  'x, y, z'

loop_
  _atom_site_type_symbol
  _atom_site_label
  _atom_site_symmetry_multiplicity
  _atom_site_fract_x
  _atom_site_fract_y
  _atom_site_fract_z
  _atom_site_occupancy
  H   H1        1.0  0.002499997838008399  0.005000001351511449  0.0001140312068865442  1.0000
  Sn  Sn1       1.0  0.005000001550993975  0.008749999734128894  0.999331107851816  1.0000
  Sn  Sn2       1.0  0.004999998809337959  0.008725815987666133  0.9997791792477871  1.0000
  Sn  Sn3       1.0  1.1500000644195741e-09  0.0012500000609287948  0.999331107851816  1.0000
  Sn  Sn4       1.0  0.009999999185336499  0.0012741731448524625  0.9997791792477871  1.0000
  Sn  Sn5       1.0  1.1500000644195741e-09  0.0037500000443118505  0.9995511863433731  1.0000
  Sn  Sn6       1.0  0.009999997618675918  0.003752191819231187  0.0  1.0000
  Sn  Sn7       1.0  0.0049999980260076685  0.00624781088379171  1.654984739893242e-09  1.0000
  Sn  Sn8       1.0  0.005000001550993975  0.006249999889220373  0.9995511863433731  1.0000
