data_image0
_chemical_formula_structural       HFe2Si4Fe2Si4Fe2Si4Fe2Si4
_chemical_formula_sum              "H1 Fe8 Si16"
_cell_length_a       7.6846184730529785
_cell_length_b       5.8324890419511535
_cell_length_c       100.73847198486328
_cell_angle_alpha    109.23166207734982
_cell_angle_beta     90.0
_cell_angle_gamma    70.76833792265019

_space_group_name_H-M_alt    "P 1"
_space_group_IT_number       1

loop_
  _space_group_symop_operation_xyz
  'x, y, z'

loop_
  _atom_site_type_symbol
  _atom_site_label
  _atom_site_symmetry_multiplicity
  _atom_site_fract_x
  _atom_site_fract_y
  _atom_site_fract_z
  _atom_site_occupancy
  H   H1        1.0  0.009948665297646028  0.007153544276927824  0.0002460142192571371  1.0000
  Fe  Fe1       1.0  5.1334698805145606e-05  7.741935302836105e-05  0.9998040432681709  1.0000
  Fe  Fe2       1.0  0.0025513345833687376  7.741935302836105e-05  0.9996133359831663  1.0000
  Si  Si1       1.0  0.0032331288158767495  0.007350242112742032  0.9997520339081728  1.0000
  Si  Si2       1.0  0.00073312889344032  0.007350242112742032  0.9995613269190067  1.0000
  Si  Si3       1.0  0.004369540022047806  0.002804597288057804  0.999665345214411  1.0000
  Si  Si4       1.0  0.0018695400996113771  0.002804597288057804  0.999474638225245  1.0000
  Fe  Fe3       1.0  8.953297837663926e-05  0.009922581003365833  0.00017491093878712976  1.0000
  Fe  Fe4       1.0  0.002548761389868689  8.717015157872775e-05  0.9999898229387196  1.0000
  Si  Si5       1.0  0.003174637295059746  0.00758244944204585  0.0001417384182690575  1.0000
  Si  Si6       1.0  0.0007210194999739852  0.007397539502119006  0.9999457516294459  1.0000
  Si  Si7       1.0  0.004374796997234293  0.002783427833795446  5.3081956993571115e-05  1.0000
  Si  Si8       1.0  0.0018695400996113771  0.002804597288057804  0.9998560524994157  1.0000
  Fe  Fe5       1.0  0.005051334505805167  7.741935302836105e-05  0.9998040432681709  1.0000
  Fe  Fe6       1.0  0.0075513344282415965  7.741935302836105e-05  0.9996133359831663  1.0000
  Si  Si9       1.0  0.008233128660749609  0.007350242112742032  0.9997520339081728  1.0000
  Si  Si10      1.0  0.0057331287383131785  0.007350242112742032  0.9995613269190067  1.0000
  Si  Si11      1.0  0.009369539866920665  0.002804597288057804  0.999665345214411  1.0000
  Si  Si12      1.0  0.006869539944484236  0.002804597288057804  0.999474638225245  1.0000
  Fe  Fe7       1.0  0.005089533065635656  0.009922581003365833  0.00017491093878712976  1.0000
  Fe  Fe8       1.0  0.0075487614771277065  8.717015157872775e-05  0.9999898229387196  1.0000
  Si  Si13      1.0  0.008174636655160288  0.00758244944204585  0.0001417384182690575  1.0000
  Si  Si14      1.0  0.005721019344846844  0.007397539502119006  0.9999457516294459  1.0000
  Si  Si15      1.0  0.009374797326879467  0.002783427833795446  5.3081956993571115e-05  1.0000
  Si  Si16      1.0  0.006869539944484236  0.002804597288057804  0.9998560524994157  1.0000
