data_image0
_chemical_formula_structural       HFe12Mo12Si12
_chemical_formula_sum              "H1 Fe12 Mo12 Si12"
_cell_length_a       4.803464532029067
_cell_length_b       11.211675179815582
_cell_length_c       103.63502502441406
_cell_angle_alpha    83.98601654416282
_cell_angle_beta     90.11488435873072
_cell_angle_gamma    90.11488436483921

_space_group_name_H-M_alt    "P 1"
_space_group_IT_number       1

loop_
  _space_group_symop_operation_xyz
  'x, y, z'

loop_
  _atom_site_type_symbol
  _atom_site_label
  _atom_site_symmetry_multiplicity
  _atom_site_fract_x
  _atom_site_fract_y
  _atom_site_fract_z
  _atom_site_occupancy
  H   H1        1.0  0.0036546471883997667  0.00582790133995668  7.79590718599135e-05  1.0000
  Fe  Fe1       1.0  0.00626813597274043  0.009314515458229228  0.9994848820732629  1.0000
  Fe  Fe2       1.0  0.0012681357348661426  0.0018145153713610969  0.9997553425311385  1.0000
  Fe  Fe3       1.0  0.0012681357644249841  0.006814515484957883  0.99921442128676  1.0000
  Fe  Fe4       1.0  0.0062681356923319255  0.001881489864557991  0.9992071755046692  1.0000
  Fe  Fe5       1.0  0.001268135706761387  0.004381489837829336  0.9994776363529817  1.0000
  Fe  Fe6       1.0  0.006268135916476668  0.006881490145208874  0.9997480965605579  1.0000
  Fe  Fe7       1.0  0.003647132128826546  0.0010158262266827763  0.9993912306853486  1.0000
  Fe  Fe8       1.0  0.008647132434084985  0.003515826199954121  0.9996616911842906  1.0000
  Fe  Fe9       1.0  0.003647131965199322  0.00601582650733366  0.9999321520287713  1.0000
  Fe  Fe10      1.0  0.00121110453397289  0.0022338398642522154  0.9995230003251069  1.0000
  Fe  Fe11      1.0  0.006211104452159277  0.004733840004577656  0.9997934611096895  1.0000
  Fe  Fe12      1.0  0.006211104674904186  0.009733839951120347  0.9992525398672223  1.0000
  Mo  Mo1       1.0  0.0012579863326211732  0.00880878724541918  0.9993589204211887  1.0000
  Mo  Mo2       1.0  0.006257986579461846  0.0013087871585510487  0.9996293811048517  1.0000
  Mo  Mo3       1.0  0.001257986303762249  0.00380878729887649  0.9998998419512437  1.0000
  Mo  Mo4       1.0  0.0012583657642201915  0.009823158430919299  0.9996098095925879  1.0000
  Mo  Mo5       1.0  0.006258365816474962  0.002323158176997071  0.9998802699905563  1.0000
  Mo  Mo6       1.0  0.006258365652847738  0.007323158457647954  0.9993393487442663  1.0000
  Mo  Mo7       1.0  0.001258365750329357  0.003036256988153518  0.9992622028059834  1.0000
  Mo  Mo8       1.0  0.006258365669215662  0.0055362572955330565  0.9995326633011026  1.0000
  Mo  Mo9       1.0  0.001258365682245289  0.008036256934696208  0.9998031241532019  1.0000
  Mo  Mo10      1.0  0.0062579866149572285  0.008217168502875405  0.9999638456159518  1.0000
  Mo  Mo11      1.0  0.006257986390812485  0.0032171682222245225  0.9994229242724931  1.0000
  Mo  Mo12      1.0  0.00125798630969879  0.00571716852960406  0.9996933848294398  1.0000
  Si  Si1       1.0  0.008745613777420598  0.0010109155879818813  0.9993906993344662  1.0000
  Si  Si2       1.0  0.003745613695956944  0.0035109158118343713  0.9996611601799296  1.0000
  Si  Si3       1.0  0.008745613613443413  0.006010915785105716  0.9999316203912656  1.0000
  Si  Si4       1.0  0.00878889589007176  0.007676842050196501  0.999570926364561  1.0000
  Si  Si5       1.0  0.0037888957484405487  0.00017684179627427347  0.999841386824339  1.0000
  Si  Si6       1.0  0.0037888955834134885  0.005176841742816963  0.9993004658694058  1.0000
  Si  Si7       1.0  0.0012650330899586682  0.006438773401258617  0.9994369869078026  1.0000
  Si  Si8       1.0  0.006265033104388131  0.008938773374529961  0.9997074471191476  1.0000
  Si  Si9       1.0  0.0012650331559429836  0.001438772953553637  0.9999779081559771  1.0000
  Si  Si10      1.0  0.003742618643033808  0.007677083276312202  0.9995709527185515  1.0000
  Si  Si11      1.0  0.008742618889524522  0.00017708310591702298  0.9998414131155912  1.0000
  Si  Si12      1.0  0.00874261872554734  0.005177083303040858  0.9993004918702479  1.0000
