data_image0
_chemical_formula_structural       COCa2Pd2Sn4
_chemical_formula_sum              "C1 O1 Ca2 Pd2 Sn4"
_cell_length_a       4.504119873046875
_cell_length_b       6.123384692515985
_cell_length_c       100.63032531738281
_cell_angle_alpha    90.0
_cell_angle_beta     90.0
_cell_angle_gamma    111.57878436351992

_space_group_name_H-M_alt    "P 1"
_space_group_IT_number       1

loop_
  _space_group_symop_operation_xyz
  'x, y, z'

loop_
  _atom_site_type_symbol
  _atom_site_label
  _atom_site_symmetry_multiplicity
  _atom_site_fract_x
  _atom_site_fract_y
  _atom_site_fract_z
  _atom_site_occupancy
  C   C1        1.0  0.0010420149537682603  0.0013592195930459583  5.9324880373633664e-05  1.0000
  O   O1        1.0  0.0010420149537682603  0.0013592195930459583  0.00017857346951261952  1.0000
  Ca  Ca1       1.0  0.006042015017867353  0.0013592195930459583  0.9998872046604433  1.0000
  Ca  Ca2       1.0  0.004680203212995426  0.00864078012563778  0.9994771082014741  1.0000
  Pd  Pd1       1.0  0.0032432953962822906  0.005769988883846771  0.9998538923878632  1.0000
  Pd  Pd2       1.0  0.0074195916740547145  0.004119557074636623  0.9994771082014741  1.0000
  Sn  Sn1       1.0  0.008904944328153794  0.007081785587956956  0.0  1.0000
  Sn  Sn2       1.0  0.001791219641048679  0.0028628129817442863  0.9993209111305592  1.0000
  Sn  Sn3       1.0  0.001791219641048679  0.0028628129817442863  0.9996333049762324  1.0000
  Sn  Sn4       1.0  0.008957984865748964  0.007196343458025123  0.9997013919420648  1.0000
