data_image0
_chemical_formula_structural       COCa12Si6
_chemical_formula_sum              "C1 O1 Ca12 Si6"
_cell_length_a       8.874869527576434
_cell_length_b       7.246300220489502
_cell_length_c       109.02252197265625
_cell_angle_alpha    90.0
_cell_angle_beta     85.65224705547942
_cell_angle_gamma    114.0948411201554

_space_group_name_H-M_alt    "P 1"
_space_group_IT_number       1

loop_
  _space_group_symop_operation_xyz
  'x, y, z'

loop_
  _atom_site_type_symbol
  _atom_site_label
  _atom_site_symmetry_multiplicity
  _atom_site_fract_x
  _atom_site_fract_y
  _atom_site_fract_z
  _atom_site_occupancy
  C   C1        1.0  0.008052750379172224  0.004234323234693369  0.9999997100199522  1.0000
  O   O1        1.0  0.008052750379172224  0.004234323234693369  0.00010977924327935193  1.0000
  Ca  Ca1       1.0  0.0022916666512861734  0.008854166782359339  0.9996870135565029  1.0000
  Ca  Ca2       1.0  0.003772230688055839  0.004697841126494424  0.9999766841001426  1.0000
  Ca  Ca3       1.0  0.0006249999538585204  0.0030208334439274227  0.9993887380330237  1.0000
  Ca  Ca4       1.0  0.0022916666512861734  0.003854166535593501  0.9996870135565029  1.0000
  Ca  Ca5       1.0  0.00377177134962573  0.009488225492856292  0.9999767235649704  1.0000
  Ca  Ca6       1.0  0.0006249999538585204  0.008020833433645513  0.9993887380330237  1.0000
  Ca  Ca7       1.0  0.008230624860468166  0.0018650110592294108  0.9998403186829251  1.0000
  Ca  Ca8       1.0  0.004791666236012857  0.00010416633823875269  0.9992396001478169  1.0000
  Ca  Ca9       1.0  0.00645833293344051  0.00593749967667067  0.9995378762180147  1.0000
  Ca  Ca10      1.0  0.00823119516915688  0.006781795013666657  0.9998402583046857  1.0000
  Ca  Ca11      1.0  0.004791666236012857  0.005104166327956843  0.9992396001478169  1.0000
  Ca  Ca12      1.0  0.00645833293344051  0.0009374996869525792  0.9995378762180147  1.0000
  Si  Si1       1.0  0.003541666559003214  0.006979166612834941  0.999463306851448  1.0000
  Si  Si2       1.0  0.0052235754021174585  0.002819538108579144  0.9997797700368275  1.0000
  Si  Si3       1.0  0.0018749998615755611  0.001145833290468508  0.999165031327969  1.0000
  Si  Si4       1.0  0.009374999077170407  0.009895832871918538  0.9996124450392865  1.0000
  Si  Si5       1.0  0.0011150366564525427  0.005764067236096608  0.9998994900150814  1.0000
  Si  Si6       1.0  0.007708332841157551  0.004062499667801113  0.9993141689662411  1.0000
