data_image0
_chemical_formula_structural       COIn9Pt13
_chemical_formula_sum              "C1 O1 In9 Pt13"
_cell_length_a       7.284393254244113
_cell_length_b       7.284393007995044
_cell_length_c       101.61614990234375
_cell_angle_alpha    89.49012615428612
_cell_angle_beta     89.49012617152287
_cell_angle_gamma    76.689950745842

_space_group_name_H-M_alt    "P 1"
_space_group_IT_number       1

loop_
  _space_group_symop_operation_xyz
  'x, y, z'

loop_
  _atom_site_type_symbol
  _atom_site_label
  _atom_site_symmetry_multiplicity
  _atom_site_fract_x
  _atom_site_fract_y
  _atom_site_fract_z
  _atom_site_occupancy
  C   C1        1.0  0.001151851146930383  0.006480010703454018  0.00013883856619848446  1.0000
  O   O1        1.0  0.001151851146930383  0.006480010703454018  0.0002569302704229356  1.0000
  In  In1       1.0  0.00525295662012311  0.005252957160050053  0.9993227647119762  1.0000
  In  In2       1.0  0.00974407890312931  0.0053648659458223535  0.9999903617288646  1.0000
  In  In3       1.0  0.0002559206814217373  0.00025592100111379253  0.9993620350637071  1.0000
  In  In4       1.0  0.0026313104286384043  0.0026313108878138905  0.9995449953549305  1.0000
  In  In5       1.0  0.003965727059625234  0.003965727326574312  0.9998654663506773  1.0000
  In  In6       1.0  0.0076342743810019  0.007634274818875749  0.9995842657535988  1.0000
  In  In7       1.0  0.005364865947532701  0.009744078793270066  0.9999903617289335  1.0000
  In  In8       1.0  0.0023801151174054525  0.008183821993114111  0.9996861981226207  1.0000
  In  In9       1.0  0.008183821107219992  0.002380116808004864  0.9996861981221074  1.0000
  Pt  Pt1       1.0  0.00039594023194443865  0.005176628243981035  0.9997180283631467  1.0000
  Pt  Pt2       1.0  0.005176627327299757  0.00039594042032204606  0.9997180283636113  1.0000
  Pt  Pt3       1.0  0.00778725282408132  0.007787253228256984  0.99931629498314  1.0000
  Pt  Pt4       1.0  0.006435325799611937  0.006435325388970979  0.9998414120713118  1.0000
  Pt  Pt5       1.0  0.007629556966361125  0.0025940238129064626  0.9999463927267866  1.0000
  Pt  Pt6       1.0  0.003920894955389196  0.008966336328739825  0.9994535152329188  1.0000
  Pt  Pt7       1.0  0.0015053107164524843  0.0015053109117447192  0.9998487659956788  1.0000
  Pt  Pt8       1.0  0.005099978177043689  0.005099978750668819  0.9995907354824349  1.0000
  Pt  Pt9       1.0  0.008966335655265665  0.0039208951246495136  0.9994535152332404  1.0000
  Pt  Pt10      1.0  0.008978161826719422  0.008978163001331516  0.9998440892178051  1.0000
  Pt  Pt11      1.0  0.002594024610935538  0.0076295570780360936  0.9999463927262063  1.0000
  Pt  Pt12      1.0  0.006443615345372761  0.0014436159526753489  0.999453515074537  1.0000
  Pt  Pt13      1.0  0.0014436155610410965  0.0064436157266946695  0.9994535150745435  1.0000
