data_image0
_chemical_formula_structural       HCu2Ru6Cu2Ru6Cu2Ru6Cu2Ru6
_chemical_formula_sum              "H1 Cu8 Ru24"
_cell_length_a       7.443728446960449
_cell_length_b       7.857637882232666
_cell_length_c       99.77490997314453
_cell_angle_alpha    90.0
_cell_angle_beta     90.0
_cell_angle_gamma    90.0

_space_group_name_H-M_alt    "P 1"
_space_group_IT_number       1

loop_
  _space_group_symop_operation_xyz
  'x, y, z'

loop_
  _atom_site_type_symbol
  _atom_site_label
  _atom_site_symmetry_multiplicity
  _atom_site_fract_x
  _atom_site_fract_y
  _atom_site_fract_z
  _atom_site_occupancy
  H   H1        1.0  0.003750000050046026  0.006250000094819597  0.00015033825336372298  1.0000
  Cu  Cu1       1.0  0.0012499999749769869  0.008749999848288644  0.9998134873250236  1.0000
  Cu  Cu2       1.0  0.003750000050046026  0.003750000104301557  0.0  1.0000
  Ru  Ru1       1.0  0.003750000050046026  0.006250000094819597  0.9998134873250236  1.0000
  Ru  Ru2       1.0  0.0012499999749769869  0.006250000094819597  0.0  1.0000
  Ru  Ru3       1.0  0.0012499999749769869  0.003750000104301557  0.9998134873250236  1.0000
  Ru  Ru4       1.0  0.0012499999749769869  0.00124999999525902  0.0  1.0000
  Ru  Ru5       1.0  0.003750000050046026  0.00124999999525902  0.9998134873250236  1.0000
  Ru  Ru6       1.0  0.003750000050046026  0.008749999848288644  0.0  1.0000
  Cu  Cu3       1.0  0.0012499999749769869  0.008749999848288644  0.9994404610789843  1.0000
  Cu  Cu4       1.0  0.003750000050046026  0.003750000104301557  0.9996269740526562  1.0000
  Ru  Ru7       1.0  0.003750000050046026  0.006250000094819597  0.9994404610789843  1.0000
  Ru  Ru8       1.0  0.0012499999749769869  0.006250000094819597  0.9996269740526562  1.0000
  Ru  Ru9       1.0  0.0012499999749769869  0.003750000104301557  0.9994404610789843  1.0000
  Ru  Ru10      1.0  0.0012499999749769869  0.00124999999525902  0.9996269740526562  1.0000
  Ru  Ru11      1.0  0.003750000050046026  0.00124999999525902  0.9994404610789843  1.0000
  Ru  Ru12      1.0  0.003750000050046026  0.008749999848288644  0.9996269740526562  1.0000
  Cu  Cu5       1.0  0.0062499999999999995  0.008749999848288644  0.9998134873250236  1.0000
  Cu  Cu6       1.0  0.008750000200184105  0.003750000104301557  0.0  1.0000
  Ru  Ru13      1.0  0.008750000200184105  0.006250000094819597  0.9998134873250236  1.0000
  Ru  Ru14      1.0  0.0062499999999999995  0.006250000094819597  0.0  1.0000
  Ru  Ru15      1.0  0.0062499999999999995  0.003750000104301557  0.9998134873250236  1.0000
  Ru  Ru16      1.0  0.0062499999999999995  0.00124999999525902  0.0  1.0000
  Ru  Ru17      1.0  0.008750000200184105  0.00124999999525902  0.9998134873250236  1.0000
  Ru  Ru18      1.0  0.008750000200184105  0.008749999848288644  0.0  1.0000
  Cu  Cu7       1.0  0.0062499999999999995  0.008749999848288644  0.9994404610789843  1.0000
  Cu  Cu8       1.0  0.008750000200184105  0.003750000104301557  0.9996269740526562  1.0000
  Ru  Ru19      1.0  0.008750000200184105  0.006250000094819597  0.9994404610789843  1.0000
  Ru  Ru20      1.0  0.0062499999999999995  0.006250000094819597  0.9996269740526562  1.0000
  Ru  Ru21      1.0  0.0062499999999999995  0.003750000104301557  0.9994404610789843  1.0000
  Ru  Ru22      1.0  0.0062499999999999995  0.00124999999525902  0.9996269740526562  1.0000
  Ru  Ru23      1.0  0.008750000200184105  0.00124999999525902  0.9994404610789843  1.0000
  Ru  Ru24      1.0  0.008750000200184105  0.008749999848288644  0.9996269740526562  1.0000
