data_image0
_chemical_formula_structural       COFe13Co3Fe13Co3
_chemical_formula_sum              "C1 O1 Fe26 Co6"
_cell_length_a       5.553488254547119
_cell_length_b       5.554481029510498
_cell_length_c       103.32688903808594
_cell_angle_alpha    90.0
_cell_angle_beta     90.0
_cell_angle_gamma    90.0

_space_group_name_H-M_alt    "P 1"
_space_group_IT_number       1

loop_
  _space_group_symop_operation_xyz
  'x, y, z'

loop_
  _atom_site_type_symbol
  _atom_site_label
  _atom_site_symmetry_multiplicity
  _atom_site_fract_x
  _atom_site_fract_y
  _atom_site_fract_z
  _atom_site_occupancy
  C   C1        1.0  0.0012499999563978785  0.008750000053654557  0.00016762832875861074  1.0000
  O   O1        1.0  0.0012499999563978785  0.008750000053654557  0.00028376483911335393  1.0000
  Fe  Fe1       1.0  0.008749999946335851  0.006250000134136394  0.9997312183957233  1.0000
  Fe  Fe2       1.0  0.0012529735372311995  0.008747476948070371  0.9995966917442046  1.0000
  Fe  Fe3       1.0  0.006247026201156072  0.0037525229848614306  0.9998657444703868  1.0000
  Fe  Fe4       1.0  0.0012529735372311995  0.0037525229848614306  0.9998657444703868  1.0000
  Fe  Fe5       1.0  0.0012529735372311995  0.0037525229848614306  0.9995966917442046  1.0000
  Fe  Fe6       1.0  0.008749999946335851  0.0012500000435943283  0.9997312183957233  1.0000
  Fe  Fe7       1.0  0.006247026201156072  0.008747476948070371  0.9995966917442046  1.0000
  Fe  Fe8       1.0  0.0012529735372311995  0.008747476948070371  0.9998657444703868  1.0000
  Fe  Fe9       1.0  0.006247026201156072  0.008747476948070371  0.9998657444703868  1.0000
  Fe  Fe10      1.0  0.008749999946335851  0.0012500000435943283  0.0  1.0000
  Fe  Fe11      1.0  0.0037499997853434022  0.006250000134136394  0.9997312183957233  1.0000
  Fe  Fe12      1.0  0.006247026201156072  0.0037525229848614306  0.9995966917442046  1.0000
  Fe  Fe13      1.0  0.0037499997853434022  0.0012500000435943283  0.0  1.0000
  Co  Co1       1.0  0.0037499997853434022  0.0012500000435943283  0.9997312183957233  1.0000
  Co  Co2       1.0  0.008749999946335851  0.006250000134136394  0.0  1.0000
  Co  Co3       1.0  0.0037499997853434022  0.006250000134136394  0.0  1.0000
  Fe  Fe14      1.0  0.008749999946335851  0.006250000134136394  0.9991936540334596  1.0000
  Fe  Fe15      1.0  0.0012529735372311995  0.008747476948070371  0.9990591276703685  1.0000
  Fe  Fe16      1.0  0.006247026201156072  0.0037525229848614306  0.9993281806849783  1.0000
  Fe  Fe17      1.0  0.0012529735372311995  0.0037525229848614306  0.9993281806849783  1.0000
  Fe  Fe18      1.0  0.0012529735372311995  0.0037525229848614306  0.9990591276703685  1.0000
  Fe  Fe19      1.0  0.008749999946335851  0.0012500000435943283  0.9991936540334596  1.0000
  Fe  Fe20      1.0  0.006247026201156072  0.008747476948070371  0.9990591276703685  1.0000
  Fe  Fe21      1.0  0.0012529735372311995  0.008747476948070371  0.9993281806849783  1.0000
  Fe  Fe22      1.0  0.006247026201156072  0.008747476948070371  0.9993281806849783  1.0000
  Fe  Fe23      1.0  0.008749999946335851  0.0012500000435943283  0.9994624362145914  1.0000
  Fe  Fe24      1.0  0.0037499997853434022  0.006250000134136394  0.9991936540334596  1.0000
  Fe  Fe25      1.0  0.006247026201156072  0.0037525229848614306  0.9990591276703685  1.0000
  Fe  Fe26      1.0  0.0037499997853434022  0.0012500000435943283  0.9994624362145914  1.0000
  Co  Co4       1.0  0.0037499997853434022  0.0012500000435943283  0.9991936540334596  1.0000
  Co  Co5       1.0  0.008749999946335851  0.006250000134136394  0.9994624362145914  1.0000
  Co  Co6       1.0  0.0037499997853434022  0.006250000134136394  0.9994624362145914  1.0000
