data_image0
_chemical_formula_structural       Sb8Ir4Sb8Ir4H
_chemical_formula_sum              "Sb16 Ir8 H1"
_cell_length_a       6.725760459899902
_cell_length_b       6.827410754977495
_cell_length_c       103.35762786865234
_cell_angle_alpha    90.0
_cell_angle_beta     90.0
_cell_angle_gamma    114.92775062134615

_space_group_name_H-M_alt    "P 1"
_space_group_IT_number       1

loop_
  _space_group_symop_operation_xyz
  'x, y, z'

loop_
  _atom_site_type_symbol
  _atom_site_label
  _atom_site_symmetry_multiplicity
  _atom_site_fract_x
  _atom_site_fract_y
  _atom_site_fract_z
  _atom_site_occupancy
  Sb  Sb1       1.0  0.009218600279729894  0.006211610557435698  0.9993498815556556  1.0000
  Sb  Sb2       1.0  0.002200057105412145  0.008788389659173019  0.9990271414664194  1.0000
  Sb  Sb3       1.0  0.002200057042734926  0.003788389286124673  0.9988786434313695  1.0000
  Sb  Sb4       1.0  0.009218600788481772  0.0012116107108668724  0.9992013832322639  1.0000
  Sb  Sb5       1.0  0.00726326833271656  0.0032129793608668107  0.9990255440529586  1.0000
  Sb  Sb6       1.0  0.004155389184501522  0.001787020711336095  0.9993482841421949  1.0000
  Sb  Sb7       1.0  0.004155389187698986  0.0067870207835390006  0.9992029809340665  1.0000
  Sb  Sb8       1.0  0.007263268474384993  0.008212979433069716  0.9988802408448302  1.0000
  Ir  Ir1       1.0  0.00799240353917533  0.007089296442949846  0.999114895980403  1.0000
  Ir  Ir2       1.0  0.0034262538805844545  0.007910703773658871  0.9994376360696393  1.0000
  Ir  Ir3       1.0  0.0034262539714844885  0.0029107040023014052  0.9991136287182802  1.0000
  Ir  Ir4       1.0  0.007992403822675534  0.0020892960699015004  0.9994363685191748  1.0000
  Sb  Sb9       1.0  0.009151215862798896  0.006265431806685365  0.0  1.0000
  Sb  Sb10      1.0  0.002200057105412145  0.008788389659173019  0.9996726213565502  1.0000
  Sb  Sb11      1.0  0.002200057042734926  0.003788389286124673  0.9995241230331584  1.0000
  Sb  Sb12      1.0  0.009266647773098512  0.001222937842535398  0.9998410354466808  1.0000
  Sb  Sb13      1.0  0.00726326833271656  0.0032129793608668107  0.9996710239430895  1.0000
  Sb  Sb14      1.0  0.004163779103461383  0.0017878523985554952  0.9999994463837826  1.0000
  Sb  Sb15      1.0  0.004128285035751395  0.006764277469951654  0.9998436916511574  1.0000
  Sb  Sb16      1.0  0.007263268474384993  0.008212979433069716  0.9995257204466191  1.0000
  Ir  Ir5       1.0  0.00799240353917533  0.007089296442949846  0.9997603758705338  1.0000
  Ir  Ir6       1.0  0.003204647526517029  0.007904914304007889  5.8194868073624456e-05  1.0000
  Ir  Ir7       1.0  0.0034262539714844885  0.0029107040023014052  0.9997591083200693  1.0000
  Ir  Ir8       1.0  0.008036942951043449  0.0022830513638185425  5.266274268412777e-05  1.0000
  H   H1        1.0  0.0007333523575400574  0.0025056636019357157  0.9998277065595623  1.0000
