data_image0
_chemical_formula_structural       HCo8V24
_chemical_formula_sum              "H1 Co8 V24"
_cell_length_a       6.584106922149658
_cell_length_b       8.063850647162708
_cell_length_c       100.52925109863281
_cell_angle_alpha    95.05115290823716
_cell_angle_beta     90.0
_cell_angle_gamma    90.0

_space_group_name_H-M_alt    "P 1"
_space_group_IT_number       1

loop_
  _space_group_symop_operation_xyz
  'x, y, z'

loop_
  _atom_site_type_symbol
  _atom_site_label
  _atom_site_symmetry_multiplicity
  _atom_site_fract_x
  _atom_site_fract_y
  _atom_site_fract_z
  _atom_site_occupancy
  H   H1        1.0  0.006622330381732219  0.007020675276273481  8.091954612286587e-05  1.0000
  Co  Co1       1.0  0.0001260158950338966  0.005268092931466463  0.9996732576548492  1.0000
  Co  Co2       1.0  0.005067694780905067  0.002143081986371866  0.9998693457315316  1.0000
  Co  Co3       1.0  0.009873984121232865  0.00911718774023555  2.8857243911119304e-05  1.0000
  Co  Co4       1.0  0.0051260157882390715  0.008393092745956385  0.9994834543293728  1.0000
  Co  Co5       1.0  0.00037802199422749615  0.004117152697381833  2.886431884246326e-05  1.0000
  Co  Co6       1.0  0.0051260157882390715  0.003393092718129873  0.99948345424024  1.0000
  Co  Co7       1.0  0.0001260158950338966  0.00026809255580855504  0.9996732575632599  1.0000
  Co  Co8       1.0  0.005184393375612594  0.007143176392450518  0.99986934678366  1.0000
  V   V1        1.0  0.008876015765607056  0.007611843024221502  0.9995309051623795  1.0000
  V   V2        1.0  0.003876015890083143  0.004486842745956385  0.9997207081881263  1.0000
  V   V3        1.0  0.00863081597994854  0.0013338326488580355  0.9999069951837404  1.0000
  V   V4        1.0  0.003876015890083143  0.0007368426091427025  0.9993411019538635  1.0000
  V   V5        1.0  0.006376015969295198  0.006049343116976541  0.9996258068251177  1.0000
  V   V6        1.0  0.0012847121767505393  0.002879357572367036  0.9998144780814686  1.0000
  V   V7        1.0  0.006112365432749852  0.009521176747116104  0.9999893429341216  1.0000
  V   V8        1.0  0.0013760159523211865  0.009174343395241659  0.9994360035029167  1.0000
  V   V9        1.0  0.002626015991927214  0.005893093079874526  0.99948345443549  1.0000
  V   V10       1.0  0.007626015584550929  0.0027680928016094084  0.9996732574612368  1.0000
  V   V11       1.0  0.002581419038978704  0.009731907847675865  0.9998638426674943  1.0000
  V   V12       1.0  0.008060267387851844  0.006518472132616733  4.603636438214063e-05  1.0000
  V   V13       1.0  0.002626015991927214  0.007768093061323518  0.9996732575520073  1.0000
  V   V14       1.0  0.007670592168685213  0.004731797209465395  0.9998638272709239  1.0000
  V   V15       1.0  0.0021917626326752137  0.0015182798699719794  4.603284242146247e-05  1.0000
  V   V16       1.0  0.007626015584550929  0.0008930925882728186  0.9994834543430818  1.0000
  V   V17       1.0  0.008876015765607056  0.0041743426717523536  0.9994360034088708  1.0000
  V   V18       1.0  0.003876015890083143  0.0010493426253748344  0.9996258067327096  1.0000
  V   V19       1.0  0.008967414029843699  0.007879240033181668  0.9998144829729212  1.0000
  V   V20       1.0  0.004139803067423925  0.00452095619418447  0.9999893463272639  1.0000
  V   V21       1.0  0.0013760159523211865  0.002611842764507393  0.999530905071609  1.0000
  V   V22       1.0  0.006376015969295198  0.009486843469445689  0.9997207082821722  1.0000
  V   V23       1.0  0.0016210351062035406  0.006333986997880615  0.9999069877655855  1.0000
  V   V24       1.0  0.006376015969295198  0.00573684304277251  0.999341101749408  1.0000
