data_image0
_chemical_formula_structural       COCo16Sb32
_chemical_formula_sum              "C1 O1 Co16 Sb32"
_cell_length_a       14.660672476004994
_cell_length_b       11.722804529769476
_cell_length_c       107.00079345703125
_cell_angle_alpha    92.12850431957317
_cell_angle_beta     90.77665451350467
_cell_angle_gamma    39.08833808769344

_space_group_name_H-M_alt    "P 1"
_space_group_IT_number       1

loop_
  _space_group_symop_operation_xyz
  'x, y, z'

loop_
  _atom_site_type_symbol
  _atom_site_label
  _atom_site_symmetry_multiplicity
  _atom_site_fract_x
  _atom_site_fract_y
  _atom_site_fract_z
  _atom_site_occupancy
  C   C1        1.0  0.0005198896029721797  0.0009713692435198188  0.00010177996418933809  1.0000
  O   O1        1.0  0.0005198896029721797  0.0009713692435198188  0.00021392889253830374  1.0000
  Co  Co1       1.0  0.008208176714033535  0.005487007683598732  0.9998924211600736  1.0000
  Co  Co2       1.0  0.005731338260488377  0.0029224254283100872  0.9996839795082112  1.0000
  Co  Co3       1.0  0.0032313386224939876  0.0004224255001943063  0.99946785478339  1.0000
  Co  Co4       1.0  0.00073133839187771  0.007922425347597982  0.9992517304325624  1.0000
  Co  Co5       1.0  0.009257497846151068  0.0021017520543975053  0.9995565660172991  1.0000
  Co  Co6       1.0  0.0067574974395089625  0.009601752185554677  0.9993404416672993  1.0000
  Co  Co7       1.0  0.004257824675996503  0.0070872628896263895  0.999965544339462  1.0000
  Co  Co8       1.0  0.0017788234663474128  0.0046327426880643716  0.9997742585383133  1.0000
  Co  Co9       1.0  0.004250052651001327  0.007109196908739275  0.9995572094879897  1.0000
  Co  Co10      1.0  0.0017500525243168388  0.004609196949095327  0.9993410853191811  1.0000
  Co  Co11      1.0  0.009328460510914958  0.001835235007056498  0.9999704624799635  1.0000
  Co  Co12      1.0  0.006703432935568622  0.00965552763472723  0.999775332905736  1.0000
  Co  Co13      1.0  0.003334018971176276  0.00022478229942484877  0.9998977139483056  1.0000
  Co  Co14      1.0  0.0007238937300545628  0.007929870030426526  0.99968462297911  1.0000
  Co  Co15      1.0  0.00822389341241492  0.0054298705752332385  0.9994684982605213  1.0000
  Co  Co16      1.0  0.005723893442197829  0.002929870363363962  0.999252374090977  1.0000
  Sb  Sb1       1.0  0.0006730692408244594  0.002590557680857749  0.9995547684734504  1.0000
  Sb  Sb2       1.0  0.008173069250788435  9.055769756767694e-05  0.9993386440318456  1.0000
  Sb  Sb3       1.0  0.005790829251593779  0.007316718325373613  0.9999802376923079  1.0000
  Sb  Sb4       1.0  0.0031711830092876927  0.005134786108723467  0.9997804024579111  1.0000
  Sb  Sb5       1.0  0.008351298982285012  0.0034244138638473303  0.9997780966808939  1.0000
  Sb  Sb6       1.0  0.005752132067378117  0.0009972548768715846  0.9995616034454  1.0000
  Sb  Sb7       1.0  0.003252132012787665  0.008497254440521764  0.9993454790937447  1.0000
  Sb  Sb8       1.0  0.0008330009706228373  0.006132956752710506  0.9999987715643924  1.0000
  Sb  Sb9       1.0  0.001802183789961588  0.009909441865136658  0.9999090334895123  1.0000
  Sb  Sb10      1.0  0.009308321514197847  0.007441064908416942  0.9996864205234863  1.0000
  Sb  Sb11      1.0  0.0068083218957618805  0.004941064948772995  0.9994702963556217  1.0000
  Sb  Sb12      1.0  0.004308321925544792  0.0024410647369037183  0.9992541716290287  1.0000
  Sb  Sb13      1.0  0.004229259469710661  0.00903436727100878  0.9996795855511931  1.0000
  Sb  Sb14      1.0  0.0017292593430261723  0.0065343673113648325  0.9994634613823845  1.0000
  Sb  Sb15      1.0  0.00922925918185393  0.004034367603946215  0.99924733666306  1.0000
  Sb  Sb16      1.0  0.0066048267198061  0.0016729718946646975  0.9998987219234373  1.0000
  Sb  Sb17      1.0  0.0008185479296659113  0.003491504288169594  0.9998240308419525  1.0000
  Sb  Sb18      1.0  0.008272646309036293  0.0009988221420134016  0.9995933584731646  1.0000
  Sb  Sb19      1.0  0.0057726459023941905  0.008498822273170573  0.9993772338446404  1.0000
  Sb  Sb20      1.0  0.00392088099406156  0.005434570037574391  2.9395578453243993e-05  1.0000
  Sb  Sb21      1.0  0.00030574958553221155  0.00043579527129687374  0.9993368705067391  1.0000
  Sb  Sb22      1.0  0.00798227731659803  0.007739212399329405  0.9999758846302061  1.0000
  Sb  Sb23      1.0  0.005387109569606975  0.00532071703714384  0.9997657705030759  1.0000
  Sb  Sb24      1.0  0.0028057497073609096  0.0029357951363563222  0.9995529949536781  1.0000
  Sb  Sb25      1.0  0.0017087439377374881  0.00903280044726129  0.9996478310798769  1.0000
  Sb  Sb26      1.0  0.009208744245967444  0.006532799983166683  0.9994317063583452  1.0000
  Sb  Sb27      1.0  0.006708744471064079  0.0040328002757480655  0.999215581912692  1.0000
  Sb  Sb28      1.0  0.004145540979245589  0.0014580561141550696  0.9998566206562459  1.0000
  Sb  Sb29      1.0  0.0021756414590083416  0.002095827281405145  0.9992559451488009  1.0000
  Sb  Sb30      1.0  0.009694250911649374  0.009446374320210362  0.999906550490991  1.0000
  Sb  Sb31      1.0  0.007175641360596195  0.00709582694846771  0.999688194041787  1.0000
  Sb  Sb32      1.0  0.004675641742160231  0.004595826988823762  0.9994720698739223  1.0000
