data_image0
_chemical_formula_structural       CONa4Mn4As4Na4Mn4As4
_chemical_formula_sum              "C1 O1 Na8 Mn8 As8"
_cell_length_a       5.630236625671387
_cell_length_b       6.7452592849731445
_cell_length_c       103.78141784667969
_cell_angle_alpha    90.0
_cell_angle_beta     90.0
_cell_angle_gamma    90.0

_space_group_name_H-M_alt    "P 1"
_space_group_IT_number       1

loop_
  _space_group_symop_operation_xyz
  'x, y, z'

loop_
  _atom_site_type_symbol
  _atom_site_label
  _atom_site_symmetry_multiplicity
  _atom_site_fract_x
  _atom_site_fract_y
  _atom_site_fract_z
  _atom_site_occupancy
  C   C1        1.0  0.0008332308667921185  0.006052862012236253  0.00015574128262793398  1.0000
  O   O1        1.0  0.0008332308667921185  0.006052862012236253  0.0002713691528929478  1.0000
  Na  Na1       1.0  0.009166697270548066  0.0031917944003867146  0.9999999931080559  1.0000
  Na  Na2       1.0  0.004161936430538587  0.0035768080972638306  0.9997036073464963  1.0000
  Na  Na3       1.0  0.004166226620081437  0.006808742131252212  0.0  1.0000
  Na  Na4       1.0  0.009161354383355204  0.0064237137988824135  0.9997035981572375  1.0000
  Mn  Mn1       1.0  0.006657725745803798  2.648000072692542e-07  0.9995685528086125  1.0000
  Mn  Mn2       1.0  0.001664731002045571  3.485000176440702e-07  0.999835241182759  1.0000
  Mn  Mn3       1.0  0.006665274600290901  0.009999735169379197  0.9998353503052083  1.0000
  Mn  Mn4       1.0  0.0016577255340732835  2.648000072692542e-07  0.9995685528086125  1.0000
  As  As1       1.0  0.009166769391254445  0.008158049505069832  0.9999665488003312  1.0000
  As  As2       1.0  0.004163585612746414  0.00795496133349225  0.9997029847742067  1.0000
  As  As3       1.0  0.004165789925896014  0.0018422554820291968  0.999966543631373  1.0000
  As  As4       1.0  0.009163221581826815  0.002045324461781469  0.9997030083216826  1.0000
  Na  Na5       1.0  0.009157725851669055  0.003569187699979372  0.999432925665034  1.0000
  Na  Na6       1.0  0.004157725639938541  0.003569187699979372  0.9991616710907129  1.0000
  Na  Na7       1.0  0.004157725639938541  0.00643134192812527  0.999432925665034  1.0000
  Na  Na8       1.0  0.009157725851669055  0.00643134192812527  0.9991616710907129  1.0000
  Mn  Mn5       1.0  0.006657725745803798  2.648000072692542e-07  0.9990260439471345  1.0000
  Mn  Mn6       1.0  0.0016577255340732835  2.648000072692542e-07  0.9992972985214555  1.0000
  Mn  Mn7       1.0  0.006657725745803798  2.648000072692542e-07  0.9992972985214555  1.0000
  Mn  Mn8       1.0  0.0016577255340732835  2.648000072692542e-07  0.9990260439471345  1.0000
  As  As5       1.0  0.009157725851669055  0.007960116340613074  0.999432925665034  1.0000
  As  As6       1.0  0.004157725639938541  0.007960116340613074  0.9991616710907129  1.0000
  As  As7       1.0  0.004157725639938541  0.002040413425562254  0.999432925665034  1.0000
  As  As8       1.0  0.009157725851669055  0.002040413425562254  0.9991616710907129  1.0000
