data_image0
_chemical_formula_structural       HAl4V12Al4V12
_chemical_formula_sum              "H1 Al8 V24"
_cell_length_a       4.820557117462158
_cell_length_b       6.817296981811523
_cell_length_c       104.08648681640625
_cell_angle_alpha    90.0
_cell_angle_beta     90.0
_cell_angle_gamma    90.0

_space_group_name_H-M_alt    "P 1"
_space_group_IT_number       1

loop_
  _space_group_symop_operation_xyz
  'x, y, z'

loop_
  _atom_site_type_symbol
  _atom_site_label
  _atom_site_symmetry_multiplicity
  _atom_site_fract_x
  _atom_site_fract_y
  _atom_site_fract_z
  _atom_site_occupancy
  H   H1        1.0  0.002500008021585961  0.009810503038489161  3.312123556677122e-05  1.0000
  Al  Al1       1.0  2.0049998999518555e-08  0.005189497311236807  0.9990158233208352  1.0000
  Al  Al2       1.0  2.0049998999518555e-08  0.0001894972914281098  0.9993433057508841  1.0000
  Al  Al3       1.0  0.005000019907134332  0.005189497311236807  0.9993433057508841  1.0000
  Al  Al4       1.0  0.005000019907134332  0.0001894972914281098  0.9990158233208352  1.0000
  V   V1        1.0  0.005000019907134332  0.006439497158231696  0.9989339527849036  1.0000
  V   V2        1.0  0.005000019907134332  0.001439497223805315  0.9992614352149526  1.0000
  V   V3        1.0  0.005000019907134332  0.0089394973986683  0.9987702114267178  1.0000
  V   V4        1.0  0.005000019907134332  0.003939497191018505  0.9990976938567667  1.0000
  V   V5        1.0  0.007500019814399234  0.0026894973440236168  0.9988520819626494  1.0000
  V   V6        1.0  0.007500019814399234  0.007689497005226584  0.9991795643926983  1.0000
  V   V7        1.0  0.002500019999869429  0.0026894973440236168  0.9988520819626494  1.0000
  V   V8        1.0  0.002500019999869429  0.007689497005226584  0.9991795643926983  1.0000
  V   V9        1.0  2.0049998999518555e-08  0.003939497191018505  0.9992614352149526  1.0000
  V   V10       1.0  2.0049998999518555e-08  0.0089394973986683  0.9989339527849036  1.0000
  V   V11       1.0  2.0049998999518555e-08  0.006439497158231696  0.9987702114267178  1.0000
  V   V12       1.0  2.0049998999518555e-08  0.001439497223805315  0.9990976938567667  1.0000
  Al  Al5       1.0  2.0049998999518555e-08  0.005189497311236807  0.9996707878946104  1.0000
  Al  Al6       1.0  0.009999979536455083  0.00028182919920954235  0.0  1.0000
  Al  Al7       1.0  0.005000058933154662  0.005097146704728043  5.153808331764743e-09  1.0000
  Al  Al8       1.0  0.005000019907134332  0.0001894972914281098  0.9996707878946104  1.0000
  V   V13       1.0  0.005000019907134332  0.006439497158231696  0.9995889173586788  1.0000
  V   V14       1.0  0.004999995177774914  0.0014601821487380347  0.9999097115771266  1.0000
  V   V15       1.0  0.005000019907134332  0.0089394973986683  0.9994251762868157  1.0000
  V   V16       1.0  0.005000005610473418  0.0038755757538623033  0.9997624850250945  1.0000
  V   V17       1.0  0.007500019814399234  0.0026894973440236168  0.9995070468227473  1.0000
  V   V18       1.0  0.007499998176209744  0.007689498644567062  0.9998345484364161  1.0000
  V   V19       1.0  0.002500019999869429  0.0026894973440236168  0.9995070468227473  1.0000
  V   V20       1.0  0.0025000491727856173  0.007689496458779758  0.9998345484364161  1.0000
  V   V21       1.0  4.634999669838359e-08  0.003918818277000873  0.9999097127224172  1.0000
  V   V22       1.0  2.0049998999518555e-08  0.0089394973986683  0.9995889173586788  1.0000
  V   V23       1.0  2.0049998999518555e-08  0.006439497158231696  0.9994251762868157  1.0000
  V   V24       1.0  3.0549998170486555e-08  0.0015033648359491435  0.999762487315676  1.0000
