data_image0
_chemical_formula_structural       HMn6Rh12Sn6
_chemical_formula_sum              "H1 Mn6 Rh12 Sn6"
_cell_length_a       7.653654496326018
_cell_length_b       6.24918270111084
_cell_length_c       103.65287780761719
_cell_angle_alpha    90.0
_cell_angle_beta     85.65224669680113
_cell_angle_gamma    114.09484244246296

_space_group_name_H-M_alt    "P 1"
_space_group_IT_number       1

loop_
  _space_group_symop_operation_xyz
  'x, y, z'

loop_
  _atom_site_type_symbol
  _atom_site_label
  _atom_site_symmetry_multiplicity
  _atom_site_fract_x
  _atom_site_fract_y
  _atom_site_fract_z
  _atom_site_occupancy
  H   H1        1.0  0.00026866815568853965  0.0001618049526396847  0.00011190908272229115  1.0000
  Mn  Mn1       1.0  0.0038979986436229698  0.0069791667694360906  0.9995432150425075  1.0000
  Mn  Mn2       1.0  0.005365195423964471  0.002759557288404444  0.9998253223806566  1.0000
  Mn  Mn3       1.0  0.002231331930586341  0.0011458333901905333  0.9992726575402636  1.0000
  Mn  Mn4       1.0  0.009731331470453642  0.009895833182851426  0.9996784936212071  1.0000
  Mn  Mn5       1.0  0.0013440477475892298  0.005715734671700163  0.9999198860786556  1.0000
  Mn  Mn6       1.0  0.008064665559974047  0.004062500104754115  0.9994079364019911  1.0000
  Rh  Rh1       1.0  0.0024753555494588806  0.008955805916829627  0.9997425620207925  1.0000
  Rh  Rh2       1.0  0.003623939862822072  0.004215550672331289  0.9999834007067794  1.0000
  Rh  Rh3       1.0  0.0009813318289291172  0.003020833374011652  0.999475575755404  1.0000
  Rh  Rh4       1.0  0.0023790949862674145  0.00341924962536482  0.999748095667903  1.0000
  Rh  Rh5       1.0  0.003657879732235813  0.009506628717183788  0.9999795241328969  1.0000
  Rh  Rh6       1.0  0.0009813318289291172  0.008020833648228877  0.999475575755404  1.0000
  Rh  Rh7       1.0  0.008252261126325404  0.0018604693128378383  0.9998729529195212  1.0000
  Rh  Rh8       1.0  0.005147998344001677  0.00010416650636180786  0.9993402968296133  1.0000
  Rh  Rh9       1.0  0.006814665324557317  0.005937500121825753  0.9996108546178802  1.0000
  Rh  Rh10      1.0  0.00828264486552517  0.006438138783659453  0.9998740789813897  1.0000
  Rh  Rh11      1.0  0.005147998344001677  0.005104166631547932  0.9993402968296133  1.0000
  Rh  Rh12      1.0  0.006814665324557317  0.0009374999966396278  0.9996108546178802  1.0000
  Sn  Sn1       1.0  0.0055018232683293235  0.007748099989579332  0.9998113293322262  1.0000
  Sn  Sn2       1.0  0.002231331930586341  0.006145833412917776  0.9992726575402636  1.0000
  Sn  Sn3       1.0  0.0038979986436229698  0.0019791666978080176  0.9995432150425075  1.0000
  Sn  Sn4       1.0  0.00047525424455721653  0.0002650980483034639  0.9999924667527038  1.0000
  Sn  Sn5       1.0  0.008064665559974047  0.009062500227611629  0.9994079364019911  1.0000
  Sn  Sn6       1.0  0.009731331470453642  0.0048958331601241835  0.9996784936212071  1.0000
