data_image0
_chemical_formula_structural       COAs24Rh12As24Rh12
_chemical_formula_sum              "C1 O1 As48 Rh24"
_cell_length_a       8.738612257064993
_cell_length_b       15.973260347083688
_cell_length_c       110.48783111572266
_cell_angle_alpha    101.26391269176943
_cell_angle_beta     112.11172502670884
_cell_angle_gamma    48.73247450970783

_space_group_name_H-M_alt    "P 1"
_space_group_IT_number       1

loop_
  _space_group_symop_operation_xyz
  'x, y, z'

loop_
  _atom_site_type_symbol
  _atom_site_label
  _atom_site_symmetry_multiplicity
  _atom_site_fract_x
  _atom_site_fract_y
  _atom_site_fract_z
  _atom_site_occupancy
  C   C1        1.0  0.00462310476114215  0.007837297598224281  0.00034300940139862963  1.0000
  O   O1        1.0  0.00462310476114215  0.007837297598224281  0.0004516183277652064  1.0000
  As  As1       1.0  0.0012865538782866187  0.0038804662609669065  0.9993743886637877  1.0000
  As  As2       1.0  0.0012865539032218324  0.007213799569405552  0.999170807679973  1.0000
  As  As3       1.0  0.0012865535747311697  0.0005471329914262099  0.9995779696404059  1.0000
  As  As4       1.0  0.006286554293465823  0.005307831797988334  0.9994341555251866  1.0000
  As  As5       1.0  0.006286554778546248  0.00864116510642698  0.9992305742853369  1.0000
  As  As6       1.0  0.006286553614194879  0.0019744986451414853  0.9996377364939146  1.0000
  As  As7       1.0  0.008713447359482523  0.006165534067921789  0.999076400091821  1.0000
  As  As8       1.0  0.008713446924272526  0.009498867376360435  0.99948356236955  1.0000
  As  As9       1.0  0.008713446486021062  0.002832201070666737  0.9992799813288955  1.0000
  As  As10      1.0  0.003713446484158109  0.004738168530900362  0.9996273767616999  1.0000
  As  As11      1.0  0.0037134469692385336  0.008071501839339008  0.9994237957915842  1.0000
  As  As12      1.0  0.003713446725177588  0.0014048353780535127  0.9992202144825832  1.0000
  As  As13      1.0  0.006297030243266625  0.0051105756297021585  0.9991085478561998  1.0000
  As  As14      1.0  0.006297029808056628  0.008443908938140805  0.999515710133929  1.0000
  As  As15      1.0  0.0062970306784766224  0.0017772423212635126  0.9993121288537135  1.0000
  As  As16      1.0  0.0012970300385847515  0.007404071533112046  0.9994968418889345  1.0000
  As  As17      1.0  0.0012970302800001028  0.0007374046828470585  0.9992932605834023  1.0000
  As  As18      1.0  0.001297030402030576  0.004070737913489806  0.9990896796002815  1.0000
  As  As19      1.0  0.0037029705343573057  0.0049354246991865375  0.9993422411554438  1.0000
  As  As20      1.0  0.00370297009914731  0.008268758007625183  0.9991386598881962  1.0000
  As  As21      1.0  0.0037029698550863632  0.0016020915463396883  0.9995458223939059  1.0000
  As  As22      1.0  0.008702970350658142  0.002641929106960244  0.9995646903951768  1.0000
  As  As23      1.0  0.008702970447357529  0.005975262726582484  0.9993611094222861  1.0000
  As  As24      1.0  0.008702970012147532  0.009308596035021129  0.9991575281550386  1.0000
  Rh  Rh1       1.0  0.005004686740389386  0.0032973131850868634  0.9994594198829413  1.0000
  Rh  Rh2       1.0  0.005004686305179387  0.006630646493525509  0.9992558386156937  1.0000
  Rh  Rh3       1.0  0.005004686790259812  0.009963979801964156  0.999052257375844  1.0000
  Rh  Rh4       1.0  4.686051778542517e-06  0.006745563482887074  0.9992969314916617  1.0000
  Rh  Rh5       1.0  4.686201045773522e-06  7.889670069349728e-05  0.9990933504550423  1.0000
  Rh  Rh6       1.0  4.686026843329866e-06  0.0034122301744484275  0.9995005127452102  1.0000
  Rh  Rh7       1.0  0.004995314037234546  0.006748687143801832  0.9996021124039451  1.0000
  Rh  Rh8       1.0  0.004995313986306847  8.202089645505825e-05  0.9993985313764692  1.0000
  Rh  Rh9       1.0  0.004995314084063506  0.00341535414654678  0.999194950123441  1.0000
  Rh  Rh10      1.0  0.009995314337464352  0.0033004371571852165  0.999153857247473  1.0000
  Rh  Rh11      1.0  0.009995315210925813  0.0066337701544402685  0.9995610195553751  1.0000
  Rh  Rh12      1.0  0.009995314775715814  0.009967103462878914  0.9993574382881275  1.0000
  As  As25      1.0  0.0013439746548399964  0.0038766041613840143  0.9999867636422527  1.0000
  As  As26      1.0  0.0012865539032218324  0.007213799569405552  0.9997815512249497  1.0000
  As  As27      1.0  0.0006991465780420173  0.0007111891765775406  0.00019403019477758784  1.0000
  As  As28      1.0  0.006325076279016303  0.005280530416568184  4.1774615405034404e-05  1.0000
  As  As29      1.0  0.006286554778546248  0.00864116510642698  0.9998413175605796  1.0000
  As  As30      1.0  0.00714830059723707  0.0014945695239016485  0.00023018730346624762  1.0000
  As  As31      1.0  0.008713447359482523  0.006165534067921789  0.9996871436367977  1.0000
  As  As32      1.0  0.00847003673187812  0.00964302317619727  9.044715199550164e-05  1.0000
  As  As33      1.0  0.008713446486021062  0.002832201070666737  0.9998907248738722  1.0000
  As  As34      1.0  0.0032854777585014086  0.004703587942853588  0.00021648711956074985  1.0000
  As  As35      1.0  0.0037510565105608427  0.008106347555807716  3.464023362660146e-05  1.0000
  As  As36      1.0  0.003713446725177588  0.0014048353780535127  0.99983095802756  1.0000
  As  As37      1.0  0.006297030243266625  0.0051105756297021585  0.9997192914011765  1.0000
  As  As38      1.0  0.006511957118672794  0.008367940309748863  0.00013100697188676735  1.0000
  As  As39      1.0  0.0062970306784766224  0.0017772423212635126  0.9999228721289563  1.0000
  As  As40      1.0  0.0013759802559992112  0.007412991922012472  0.00011773249126094743  1.0000
  As  As41      1.0  0.0012970302800001028  0.0007374046828470585  0.999904004128379  1.0000
  As  As42      1.0  0.001297030402030576  0.004070737913489806  0.9997004228755242  1.0000
  As  As43      1.0  0.0037029705343573057  0.0049354246991865375  0.9999529847004205  1.0000
  As  As44      1.0  0.00370297009914731  0.008268758007625183  0.9997494034331729  1.0000
  As  As45      1.0  0.0037155927620467484  0.0015615174066841559  0.00015279923021356984  1.0000
  As  As46      1.0  0.008887183555376611  0.002693722815499138  0.00019678723283280056  1.0000
  As  As47      1.0  0.008702970447357529  0.005975262726582484  0.9999718526975289  1.0000
  As  As48      1.0  0.008702970012147532  0.009308596035021129  0.9997682714302812  1.0000
  Rh  Rh13      1.0  0.005103626923862799  0.0032979725831221666  7.466508173784368e-05  1.0000
  Rh  Rh14      1.0  0.005004686305179387  0.006630646493525509  0.9998665821606704  1.0000
  Rh  Rh15      1.0  0.005004686790259812  0.009963979801964156  0.9996630009208207  1.0000
  Rh  Rh16      1.0  4.686051778542517e-06  0.006745563482887074  0.9999076750366384  1.0000
  Rh  Rh17      1.0  4.686201045773522e-06  7.889670069349728e-05  0.999704094000019  1.0000
  Rh  Rh18      1.0  9.705835673900812e-05  0.0033309465302740512  9.695112043448872e-05  1.0000
  Rh  Rh19      1.0  0.004913570582634517  0.006755345227975192  0.0001858528456962713  1.0000
  Rh  Rh20      1.0  0.004970893551971753  3.289610019987123e-05  7.73494368503427e-06  1.0000
  Rh  Rh21      1.0  0.004995314084063506  0.00341535414654678  0.9998056933986836  1.0000
  Rh  Rh22      1.0  0.009995314337464352  0.0033004371571852165  0.9997646005227158  1.0000
  Rh  Rh23      1.0  0.0001746803870011894  0.006565358308440638  0.0001629487741140604  1.0000
  Rh  Rh24      1.0  0.009995314775715814  0.009967103462878914  0.9999681815633703  1.0000
