data_image0
_chemical_formula_structural       HAs4Rh4As4Rh4As4Rh4As4Rh4
_chemical_formula_sum              "H1 As16 Rh16"
_cell_length_a       7.30824089050293
_cell_length_b       5.742440223693848
_cell_length_c       107.07623291015625
_cell_angle_alpha    90.0
_cell_angle_beta     90.0
_cell_angle_gamma    90.0

_space_group_name_H-M_alt    "P 1"
_space_group_IT_number       1

loop_
  _space_group_symop_operation_xyz
  'x, y, z'

loop_
  _atom_site_type_symbol
  _atom_site_label
  _atom_site_symmetry_multiplicity
  _atom_site_fract_x
  _atom_site_fract_y
  _atom_site_fract_z
  _atom_site_occupancy
  H   H1        1.0  0.003750000173311023  0.009981591262848996  0.0  1.0000
  As  As1       1.0  0.003749999918441872  0.0069426069542140225  0.9994754907320401  1.0000
  As  As2       1.0  0.001250000015292149  0.0030356712471466285  0.9993772147567357  1.0000
  As  As3       1.0  0.003749999918441872  0.0019426071488328684  0.9990886645206815  1.0000
  As  As4       1.0  0.001250000015292149  0.008035671376892525  0.9991869402176577  1.0000
  Rh  Rh1       1.0  0.003749999918441872  0.005018409126388697  0.9992499804146097  1.0000
  Rh  Rh2       1.0  0.001250000015292149  0.004959869399336698  0.9990256246020577  1.0000
  Rh  Rh3       1.0  0.003749999918441872  1.840905112593944e-05  0.9993141745597839  1.0000
  Rh  Rh4       1.0  0.001250000015292149  0.009959869204717852  0.9989614301785553  1.0000
  As  As5       1.0  0.003750000173311023  0.006779341853037134  4.0731644632701704e-05  1.0000
  As  As6       1.0  0.001249999632988423  0.0032799960707752453  0.9999698709852711  1.0000
  As  As7       1.0  0.003749999918441872  0.0019426071488328684  0.9996657647144619  1.0000
  As  As8       1.0  0.001250000015292149  0.008035671376892525  0.9997640406897663  1.0000
  Rh  Rh5       1.0  0.0037499996635727215  0.00501769000975274  0.999822444497551  1.0000
  Rh  Rh6       1.0  0.001250000015292149  0.004959869399336698  0.9996027250741661  1.0000
  Rh  Rh7       1.0  0.003750000173311023  0.009981591262848996  0.9998849369448402  1.0000
  Rh  Rh8       1.0  0.001250000015292149  0.009959869204717852  0.9995385303723359  1.0000
  As  As9       1.0  0.008749999469872167  0.0069426069542140225  0.9994754907320401  1.0000
  As  As10      1.0  0.00624999969415702  0.0030356712471466285  0.9993772147567357  1.0000
  As  As11      1.0  0.008749999469872167  0.0019426071488328684  0.9990886645206815  1.0000
  As  As12      1.0  0.00624999969415702  0.008035671376892525  0.9991869402176577  1.0000
  Rh  Rh9       1.0  0.008749999469872167  0.005018409126388697  0.9992499804146097  1.0000
  Rh  Rh10      1.0  0.00624999969415702  0.004959869399336698  0.9990256246020577  1.0000
  Rh  Rh11      1.0  0.008749999469872167  1.840905112593944e-05  0.9993141745597839  1.0000
  Rh  Rh12      1.0  0.00624999969415702  0.009959869204717852  0.9989614301785553  1.0000
  As  As13      1.0  0.00875000048934877  0.006779341853037134  4.0731644632701704e-05  1.0000
  As  As14      1.0  0.00624999969415702  0.0032799960707752453  0.9999698709852711  1.0000
  As  As15      1.0  0.008749999469872167  0.0019426071488328684  0.9996657647144619  1.0000
  As  As16      1.0  0.00624999969415702  0.008035671376892525  0.9997640406897663  1.0000
  Rh  Rh13      1.0  0.008749999469872167  0.00501769000975274  0.999822444497551  1.0000
  Rh  Rh14      1.0  0.00624999969415702  0.004959869399336698  0.9996027250741661  1.0000
  Rh  Rh15      1.0  0.00875000048934877  0.009981591262848996  0.9998849369448402  1.0000
  Rh  Rh16      1.0  0.00624999969415702  0.009959869204717852  0.9995385303723359  1.0000
