data_image0
_chemical_formula_structural       COGa8Pd16Ga8Pd16Ga8Pd16
_chemical_formula_sum              "C1 O1 Ga24 Pd48"
_cell_length_a       8.957282429451741
_cell_length_b       11.973849506286719
_cell_length_c       107.12184143066406
_cell_angle_alpha    69.8504668362244
_cell_angle_beta     62.58191726959637
_cell_angle_gamma    80.87306777825864

_space_group_name_H-M_alt    "P 1"
_space_group_IT_number       1

loop_
  _space_group_symop_operation_xyz
  'x, y, z'

loop_
  _atom_site_type_symbol
  _atom_site_label
  _atom_site_symmetry_multiplicity
  _atom_site_fract_x
  _atom_site_fract_y
  _atom_site_fract_z
  _atom_site_occupancy
  C   C1        1.0  0.006980563150649277  0.0072426720192193894  0.9994523446141584  1.0000
  O   O1        1.0  0.006980563150649277  0.0072426720192193894  0.9995643668139118  1.0000
  Ga  Ga1       1.0  0.0012169530260007833  0.003709139231555295  0.9992937476156534  1.0000
  Ga  Ga2       1.0  0.0010391819643648548  0.008498319899457499  0.9991199322112221  1.0000
  Ga  Ga3       1.0  0.008940531653062217  0.0015443847548751576  0.9992696884169907  1.0000
  Ga  Ga4       1.0  0.00888740753951048  0.006431012268331657  0.999089917703414  1.0000
  Ga  Ga5       1.0  0.004055660105225345  0.0010618014184840912  0.9992886559476264  1.0000
  Ga  Ga6       1.0  0.0038375303472658264  0.006025861766361488  0.9991133043426319  1.0000
  Ga  Ga7       1.0  0.005985610714502039  0.004168514672982352  0.999288197021971  1.0000
  Ga  Ga8       1.0  0.006053912209162509  0.008889390469035734  0.9991166181184604  1.0000
  Pd  Pd1       1.0  0.004305363960289517  0.0033251036571476083  0.9992034518473868  1.0000
  Pd  Pd2       1.0  0.004325321227860908  0.008320520239152189  0.9990014981161912  1.0000
  Pd  Pd3       1.0  0.005653540729242942  0.0016781722817425556  0.9990135932049432  1.0000
  Pd  Pd4       1.0  0.005649176892493953  0.006579862665016834  0.9992125143759253  1.0000
  Pd  Pd5       1.0  0.0006535407175298312  0.0008205198580402399  0.9990466168479356  1.0000
  Pd  Pd6       1.0  0.0005759849864525218  0.005869263198059227  0.9992390784404296  1.0000
  Pd  Pd7       1.0  0.009221068165285232  0.004075581352806108  0.9991753757641999  1.0000
  Pd  Pd8       1.0  0.009424015154104815  0.009298852507051168  0.9993359405332194  1.0000
  Pd  Pd9       1.0  0.007832110090952216  0.0027149260287556987  0.9990835558081647  1.0000
  Pd  Pd10      1.0  0.00793434446907259  0.007719864609947099  0.9992607752973572  1.0000
  Pd  Pd11      1.0  0.002029339404135849  0.0022471855114572724  0.999143683117775  1.0000
  Pd  Pd12      1.0  0.00220137478942637  0.007319790519133066  0.9992991317258982  1.0000
  Pd  Pd13      1.0  0.007075573818763647  0.0002318834019277398  0.9992093523168907  1.0000
  Pd  Pd14      1.0  0.007070078026937833  0.005205876873506572  0.9990157403309836  1.0000
  Pd  Pd15      1.0  0.002908783461641566  0.004792815481687326  0.9989993510145713  1.0000
  Pd  Pd16      1.0  0.003031048431410119  0.009794123723016478  0.999192441303305  1.0000
  Ga  Ga9       1.0  0.0010693904298220837  0.003524400682570837  0.9989264938793944  1.0000
  Ga  Ga10      1.0  0.0010693904298220837  0.00852440055001016  0.9987339724998413  1.0000
  Ga  Ga11      1.0  0.008909471293019541  0.001474291473782043  0.9988960762359368  1.0000
  Ga  Ga12      1.0  0.008909471293019541  0.0064742913412213655  0.9987035548563837  1.0000
  Ga  Ga13      1.0  0.003909471339871986  0.0010244006660007526  0.9989133993104927  1.0000
  Ga  Ga14      1.0  0.003909471339871986  0.006024400947692193  0.9987208779149892  1.0000
  Ga  Ga15      1.0  0.006069390382969639  0.003974291407501704  0.9989091713644477  1.0000
  Ga  Ga16      1.0  0.006069390382969639  0.008974291606342721  0.9987166494157151  1.0000
  Pd  Pd17      1.0  0.004325321227860908  0.003320520040311172  0.9988089768949876  1.0000
  Pd  Pd18      1.0  0.004325321227860908  0.008320520239152189  0.9986164555026742  1.0000
  Pd  Pd19      1.0  0.005653540729242942  0.0016781722817425556  0.9986285505914262  1.0000
  Pd  Pd20      1.0  0.005653540729242942  0.006678172314882725  0.99882107181901  1.0000
  Pd  Pd21      1.0  0.0006535407175298312  0.0008205198580402399  0.9986615742344187  1.0000
  Pd  Pd22      1.0  0.0006535407175298312  0.005820519974030833  0.9988540954588123  1.0000
  Pd  Pd23      1.0  0.009325321415270689  0.004178172381163064  0.9987759538048394  1.0000
  Pd  Pd24      1.0  0.009325321415270689  0.009178172580004081  0.9989684750260429  1.0000
  Pd  Pd25      1.0  0.007908783649051346  0.0027058769397869105  0.9986946646537053  1.0000
  Pd  Pd26      1.0  0.007908783649051346  0.007705876807226232  0.9988871858876692  1.0000
  Pd  Pd27      1.0  0.0020700783080525036  0.00229281521656597  0.9987428628390888  1.0000
  Pd  Pd28      1.0  0.0020700783080525036  0.0072928150840052925  0.9989353840730527  1.0000
  Pd  Pd29      1.0  0.007070078026937833  0.00020587679894119013  0.9988232191049948  1.0000
  Pd  Pd30      1.0  0.007070078026937833  0.005205876873506572  0.9986306977174666  1.0000
  Pd  Pd31      1.0  0.002908783461641566  0.004792815481687326  0.9986143084010543  1.0000
  Pd  Pd32      1.0  0.002908783461641566  0.009792815349126648  0.9988068301914373  1.0000
  Ga  Ga17      1.0  0.0010693904298220837  0.003524400682570837  0.9985414512658773  1.0000
  Ga  Ga18      1.0  0.0010693904298220837  0.00852440055001016  0.9983489298863244  1.0000
  Ga  Ga19      1.0  0.008909471293019541  0.001474291473782043  0.9985110336224198  1.0000
  Ga  Ga20      1.0  0.008909471293019541  0.0064742913412213655  0.9983185122428667  1.0000
  Ga  Ga21      1.0  0.003909471339871986  0.0010244006660007526  0.9985283566969757  1.0000
  Ga  Ga22      1.0  0.003909471339871986  0.006024400947692193  0.9983358353014722  1.0000
  Ga  Ga23      1.0  0.006069390382969639  0.003974291407501704  0.9985241281945115  1.0000
  Ga  Ga24      1.0  0.006069390382969639  0.008974291606342721  0.9983316068021981  1.0000
  Pd  Pd33      1.0  0.004325321227860908  0.003320520040311172  0.9984239342814706  1.0000
  Pd  Pd34      1.0  0.004325321227860908  0.008320520239152189  0.9982314128891572  1.0000
  Pd  Pd35      1.0  0.005653540729242942  0.0016781722817425556  0.9982435079779093  1.0000
  Pd  Pd36      1.0  0.005653540729242942  0.006678172314882725  0.998436029205493  1.0000
  Pd  Pd37      1.0  0.0006535407175298312  0.0008205198580402399  0.9982765313426921  1.0000
  Pd  Pd38      1.0  0.0006535407175298312  0.005820519974030833  0.9984690528452953  1.0000
  Pd  Pd39      1.0  0.009325321415270689  0.004178172381163064  0.9983909106349033  1.0000
  Pd  Pd40      1.0  0.009325321415270689  0.009178172580004081  0.9985834318561068  1.0000
  Pd  Pd41      1.0  0.007908783649051346  0.0027058769397869105  0.9983096220401882  1.0000
  Pd  Pd42      1.0  0.007908783649051346  0.007705876807226232  0.9985021432741522  1.0000
  Pd  Pd43      1.0  0.0020700783080525036  0.00229281521656597  0.9983578202255717  1.0000
  Pd  Pd44      1.0  0.0020700783080525036  0.0072928150840052925  0.9985503414595357  1.0000
  Pd  Pd45      1.0  0.007070078026937833  0.00020587679894119013  0.9984381764914778  1.0000
  Pd  Pd46      1.0  0.007070078026937833  0.005205876873506572  0.9982456551039496  1.0000
  Pd  Pd47      1.0  0.002908783461641566  0.004792815481687326  0.9982292657875372  1.0000
  Pd  Pd48      1.0  0.002908783461641566  0.009792815349126648  0.9984217870215012  1.0000
