data_image0
_chemical_formula_structural       HV3Rh3V3Rh3V3Rh3V3Rh3
_chemical_formula_sum              "H1 V12 Rh12"
_cell_length_a       7.332531929016113
_cell_length_b       6.135931137833391
_cell_length_c       101.0456314086914
_cell_angle_alpha    71.56505188109354
_cell_angle_beta     90.0
_cell_angle_gamma    90.0

_space_group_name_H-M_alt    "P 1"
_space_group_IT_number       1

loop_
  _space_group_symop_operation_xyz
  'x, y, z'

loop_
  _atom_site_type_symbol
  _atom_site_label
  _atom_site_symmetry_multiplicity
  _atom_site_fract_x
  _atom_site_fract_y
  _atom_site_fract_z
  _atom_site_occupancy
  H   H1        1.0  0.0049999991058326115  0.0022662759948423273  4.0964897158307385e-05  1.0000
  V   V1        1.0  0.002500000823040437  0.0066855832133538035  0.9992913500799103  1.0000
  V   V2        1.0  0.002500000823040437  0.0033522500165470174  0.9995473861489657  1.0000
  V   V3        1.0  0.002500000823040437  1.8916799741225534e-05  0.9994193679634198  1.0000
  Rh  Rh1       1.0  6.499999926996018e-10  0.0066855832133538035  0.9994833773548725  1.0000
  Rh  Rh2       1.0  6.499999926996018e-10  0.0033522500165470174  0.9993553588740034  1.0000
  Rh  Rh3       1.0  6.499999926996018e-10  1.8916799741225534e-05  0.999611395238382  1.0000
  V   V4        1.0  0.002500000823040437  0.0066855832133538035  0.9996754043348954  1.0000
  V   V5        1.0  0.002499999044866653  0.0032072095457778152  0.9999097624306662  1.0000
  V   V6        1.0  0.0025000026012142206  0.009981082770680126  0.9997975300033249  1.0000
  Rh  Rh4       1.0  1.554999992784534e-08  0.006682105626207133  0.999871685346559  1.0000
  Rh  Rh5       1.0  0.009999999227764528  0.003389812629498843  0.9997362482527109  1.0000
  Rh  Rh6       1.0  1.185000077071291e-08  0.00024383020042964085  0.9999850975603368  1.0000
  V   V7        1.0  0.007500000690947527  0.0066855832133538035  0.9992913500799103  1.0000
  V   V8        1.0  0.007500000690947527  0.0033522500165470174  0.9995473861489657  1.0000
  V   V9        1.0  0.007500000690947527  1.8916799741225534e-05  0.9994193679634198  1.0000
  Rh  Rh7       1.0  0.005000000629981569  0.0066855832133538035  0.9994833773548725  1.0000
  Rh  Rh8       1.0  0.005000000629981569  0.0033522500165470174  0.9993553588740034  1.0000
  Rh  Rh9       1.0  0.005000000629981569  1.8916799741225534e-05  0.999611395238382  1.0000
  V   V10       1.0  0.007500000690947527  0.0066855832133538035  0.9996754043348954  1.0000
  V   V11       1.0  0.00749999916679857  0.0032072095457778152  0.9999097624306662  1.0000
  V   V12       1.0  0.007500002723146137  0.009981082770680126  0.9997975300033249  1.0000
  Rh  Rh10      1.0  0.0050000158714711435  0.006682105626207133  0.999871685346559  1.0000
  Rh  Rh11      1.0  0.004999999613882264  0.003389812629498843  0.9997362482527109  1.0000
  Rh  Rh12      1.0  0.005000011807073924  0.00024383020042964085  0.9999850975603368  1.0000
