data_image0
_chemical_formula_structural       Fe12Sb24H
_chemical_formula_sum              "Fe12 Sb24 H1"
_cell_length_a       8.733304895595044
_cell_length_b       9.330336388871661
_cell_length_c       100.81915283203125
_cell_angle_alpha    94.14617316575145
_cell_angle_beta     91.9481245069101
_cell_angle_gamma    96.44723171893249

_space_group_name_H-M_alt    "P 1"
_space_group_IT_number       1

loop_
  _space_group_symop_operation_xyz
  'x, y, z'

loop_
  _atom_site_type_symbol
  _atom_site_label
  _atom_site_symmetry_multiplicity
  _atom_site_fract_x
  _atom_site_fract_y
  _atom_site_fract_z
  _atom_site_occupancy
  Fe  Fe1       1.0  0.0003967685623156872  0.005607091647543086  0.9994830721813888  1.0000
  Fe  Fe2       1.0  0.0053967687620083155  0.0011070917636050988  0.9993302285316925  1.0000
  Fe  Fe3       1.0  0.0003967685909471923  0.0006070917765008778  0.9994830724099493  1.0000
  Fe  Fe4       1.0  0.005396768626674802  0.006107091634647307  0.9993302285984195  1.0000
  Fe  Fe5       1.0  0.0003967685707095385  0.004607091673334645  0.9997887597172332  1.0000
  Fe  Fe6       1.0  0.005396768699076518  0.00010709175161605392  0.9996359160670741  1.0000
  Fe  Fe7       1.0  0.00039676855152498023  0.009607091947369953  0.9997887597869988  1.0000
  Fe  Fe8       1.0  0.0053967685683798975  0.005107091660438865  0.9996359161340675  1.0000
  Fe  Fe9       1.0  0.0004522613586278064  0.0037225689689484084  5.194613327876265e-05  1.0000
  Fe  Fe10      1.0  0.005290858445879031  0.009233315847086596  0.9999285337363026  1.0000
  Fe  Fe11      1.0  0.0006225108821712241  0.00877852201397201  5.198833317785354e-05  1.0000
  Fe  Fe12      1.0  0.005401769509057082  0.004154411539029746  0.9999196954190406  1.0000
  Sb  Sb1       1.0  0.009603231740140388  0.009089568208303768  0.9992617028804066  1.0000
  Sb  Sb2       1.0  0.004603231624386272  0.003589568350157339  0.9994145466917007  1.0000
  Sb  Sb3       1.0  0.0011903058046943385  0.003124615262487396  0.999398754318639  1.0000
  Sb  Sb4       1.0  0.006190305628963333  0.008624614919137274  0.9992459105051382  1.0000
  Sb  Sb5       1.0  0.0076384611796155985  0.0023212753166068543  0.9992016423949796  1.0000
  Sb  Sb6       1.0  0.0026384614828667075  0.006821275603537942  0.9993544860488534  1.0000
  Sb  Sb7       1.0  0.0031550756963861708  0.00989290835568086  0.9994588148034447  1.0000
  Sb  Sb8       1.0  0.008155076082807316  0.005392908471742872  0.9993059711542983  1.0000
  Sb  Sb9       1.0  0.009603231681845483  0.008089568234095327  0.9995673904160547  1.0000
  Sb  Sb10      1.0  0.0046032315660913675  0.0025895683759488974  0.999720233931747  1.0000
  Sb  Sb11      1.0  0.0011903057997504386  0.0021246152882789544  0.9997044418544442  1.0000
  Sb  Sb12      1.0  0.006190305570668429  0.007624614944928833  0.9995515980407863  1.0000
  Sb  Sb13      1.0  0.007638461121320694  0.0013212753423984128  0.9995073296350259  1.0000
  Sb  Sb14      1.0  0.002638461375111603  0.0058212752263364  0.9996601732860575  1.0000
  Sb  Sb15      1.0  0.003155075851495284  0.008892908381472418  0.9997645020441195  1.0000
  Sb  Sb16      1.0  0.00815507597505221  0.0043929080945413305  0.9996116586871043  1.0000
  Sb  Sb17      1.0  0.00959974250635097  0.007043390086539964  0.999867842539247  1.0000
  Sb  Sb18      1.0  0.0047385119749885464  0.0017578250733847212  2.3316990582116474e-05  1.0000
  Sb  Sb19      1.0  0.0013010592282325965  0.0013109046172138123  1.2602715593320933e-05  1.0000
  Sb  Sb20      1.0  0.006193094318071564  0.006724087369574669  0.9998678490258275  1.0000
  Sb  Sb21      1.0  0.007657994232454245  0.00030001254549759864  0.9998196889883698  1.0000
  Sb  Sb22      1.0  0.0027763266710596644  0.0049423460661786635  0.9999650399079222  1.0000
  Sb  Sb23      1.0  0.0032423125369839393  0.008157944879364628  7.759715643039233e-05  1.0000
  Sb  Sb24      1.0  0.008082861999313871  0.0034273313879448607  0.9999118065891248  1.0000
  H   H1        1.0  0.006925544384246034  0.00851205008044903  0.9999925504840865  1.0000
