data_image0
_chemical_formula_structural       COIr12Sn12
_chemical_formula_sum              "C1 O1 Ir12 Sn12"
_cell_length_a       9.029537308085642
_cell_length_b       6.984967726387198
_cell_length_c       101.07389831542969
_cell_angle_alpha    85.58838286209003
_cell_angle_beta     88.39448819667858
_cell_angle_gamma    97.16009818515985

_space_group_name_H-M_alt    "P 1"
_space_group_IT_number       1

loop_
  _space_group_symop_operation_xyz
  'x, y, z'

loop_
  _atom_site_type_symbol
  _atom_site_label
  _atom_site_symmetry_multiplicity
  _atom_site_fract_x
  _atom_site_fract_y
  _atom_site_fract_z
  _atom_site_occupancy
  C   C1        1.0  0.005620900213272265  0.0038071213345265633  0.9999797917458463  1.0000
  O   O1        1.0  0.005620900213272265  0.0038071213345265633  9.851700052323391e-05  1.0000
  Ir  Ir1       1.0  0.009027777278445205  0.007760416684183457  0.9999358921142502  1.0000
  Ir  Ir2       1.0  0.005694444411155606  0.004010416696838706  0.9998077937107868  1.0000
  Ir  Ir3       1.0  0.0023611109197002917  0.0002604166149345985  0.9996796947196749  1.0000
  Ir  Ir4       1.0  0.0006944444340416825  0.0033854167006123433  0.9996156450340865  1.0000
  Ir  Ir5       1.0  0.0073611108448004055  0.0008854165942264724  0.9998718428068818  1.0000
  Ir  Ir6       1.0  0.00402777756140033  0.0071354167308393425  0.9997437440263844  1.0000
  Ir  Ir7       1.0  0.009027777278445205  0.006510416726976617  0.9995515954654844  1.0000
  Ir  Ir8       1.0  0.005694444411155606  0.0027604166059032416  0.9994234967678752  1.0000
  Ir  Ir9       1.0  0.0023611109197002917  0.009010416307024443  0.9992953976953568  1.0000
  Ir  Ir10      1.0  0.0006944444340416825  0.0021354166096768795  0.9992313483860317  1.0000
  Ir  Ir11      1.0  0.0073611108448004055  0.009635416294674357  0.9994875460773761  1.0000
  Ir  Ir12      1.0  0.00402777756140033  0.005885416773632502  0.999359447082762  1.0000
  Sn  Sn1       1.0  0.009305555156089497  0.009739583360184715  0.9996903691698995  1.0000
  Sn  Sn2       1.0  0.005972221872689421  0.007239583261435207  0.9999465671217513  1.0000
  Sn  Sn3       1.0  0.002638888797344584  0.003489583239784657  0.9998184681292775  1.0000
  Sn  Sn4       1.0  0.008749999400800913  0.0045312497835181135  0.9997971187061135  1.0000
  Sn  Sn5       1.0  0.005416666533511314  0.0007812499048278679  0.9996690197123591  1.0000
  Sn  Sn6       1.0  0.002083333250111238  0.008281249622535826  0.9999252172877701  1.0000
  Sn  Sn7       1.0  0.009305555156089497  0.008489583402977873  0.9993060725211338  1.0000
  Sn  Sn8       1.0  0.005972221872689421  0.005989583304228366  0.9995622704729856  1.0000
  Sn  Sn9       1.0  0.002638888797344584  0.0022395832825778165  0.999434171480512  1.0000
  Sn  Sn10      1.0  0.008749999400800913  0.003281249826311273  0.9994128217624911  1.0000
  Sn  Sn11      1.0  0.005416666533511314  0.009531249764078494  0.9992847226871524  1.0000
  Sn  Sn12      1.0  0.002083333250111238  0.0070312496653289844  0.9995409206390043  1.0000
