data_image0
_chemical_formula_structural       CONa12
_chemical_formula_sum              "C1 O1 Na12"
_cell_length_a       7.669324578980909
_cell_length_b       6.186368465423584
_cell_length_c       108.34661865234375
_cell_angle_alpha    90.0
_cell_angle_beta     119.9999992195595
_cell_angle_gamma    90.0

_space_group_name_H-M_alt    "P 1"
_space_group_IT_number       1

loop_
  _space_group_symop_operation_xyz
  'x, y, z'

loop_
  _atom_site_type_symbol
  _atom_site_label
  _atom_site_symmetry_multiplicity
  _atom_site_fract_x
  _atom_site_fract_y
  _atom_site_fract_z
  _atom_site_occupancy
  C   C1        1.0  0.0022267558953033497  0.002499997380528999  0.00014778300602308445  1.0000
  O   O1        1.0  0.0022267558953033497  0.002499997380528999  0.0002585388788685494  1.0000
  Na  Na1       1.0  0.0032998629959974666  0.002499999638693655  0.9992379271431596  1.0000
  Na  Na2       1.0  0.0016331964284201504  0.007499999518258207  0.9993559024060894  1.0000
  Na  Na3       1.0  0.0032998629959974666  0.002499999638693655  0.9995918528003995  1.0000
  Na  Na4       1.0  0.0016331964284201504  0.007499999518258207  0.9997098275132  1.0000
  Na  Na5       1.0  0.003422859896171471  0.002499997380528999  0.9999631905988288  1.0000
  Na  Na6       1.0  0.0015771398065604766  0.007500002529144415  5.581898608385373e-05  1.0000
  Na  Na7       1.0  0.008299862558508635  0.002499999638693655  0.999237927281712  1.0000
  Na  Na8       1.0  0.006633196131152098  0.007499999518258207  0.99935590227454  1.0000
  Na  Na9       1.0  0.008299862558508635  0.002499999638693655  0.9995918526638872  1.0000
  Na  Na10      1.0  0.006633196131152098  0.007499999518258207  0.9997098279317798  1.0000
  Na  Na11      1.0  0.008422859739124199  0.002499997380528999  0.999963190472242  1.0000
  Na  Na12      1.0  0.006577139789733983  0.007500002529144415  5.581886445988491e-05  1.0000
