data_image0
_chemical_formula_structural       HGa12Ti4
_chemical_formula_sum              "H1 Ga12 Ti4"
_cell_length_a       5.2058431366663624
_cell_length_b       5.205842971801758
_cell_length_c       102.54830169677734
_cell_angle_alpha    90.0
_cell_angle_beta     90.0
_cell_angle_gamma    117.1983438351631

_space_group_name_H-M_alt    "P 1"
_space_group_IT_number       1

loop_
  _space_group_symop_operation_xyz
  'x, y, z'

loop_
  _atom_site_type_symbol
  _atom_site_label
  _atom_site_symmetry_multiplicity
  _atom_site_fract_x
  _atom_site_fract_y
  _atom_site_fract_z
  _atom_site_occupancy
  H   H1        1.0  0.00333403733786028  0.008333383816778152  9.127246793462286e-05  1.0000
  Ga  Ga1       1.0  0.009999957808967345  0.006665874221722091  0.0  1.0000
  Ga  Ga2       1.0  0.005001840652186987  0.0016685252000855262  0.99974170447235  1.0000
  Ga  Ga3       1.0  0.00499970575697059  0.0016666163038264992  3.6036559503455455e-08  1.0000
  Ga  Ga4       1.0  2.923499958640981e-06  0.0066685089309059305  0.9997417062160545  1.0000
  Ga  Ga5       1.0  4.179999779413489e-08  0.0016674781395277036  0.999611281188689  1.0000
  Ga  Ga6       1.0  0.005002448093637291  0.006667661351559005  0.9999133512551436  1.0000
  Ga  Ga7       1.0  4.179999779413489e-08  0.00666747802503204  0.9994790334088944  1.0000
  Ga  Ga8       1.0  0.005000041660024234  0.0016674782329812144  0.9992145375586879  1.0000
  Ga  Ga9       1.0  0.005000041660024234  0.0016674782329812144  0.9994790334088944  1.0000
  Ga  Ga10      1.0  4.179999779413489e-08  0.00666747802503204  0.9992145375586879  1.0000
  Ga  Ga11      1.0  4.179999779413489e-08  0.0016674781395277036  0.9990822897788935  1.0000
  Ga  Ga12      1.0  0.005000041660024234  0.0066674781184855505  0.9993467853384825  1.0000
  Ti  Ti1       1.0  9.327999985884429e-07  0.0016673091556780465  0.9998784707717184  1.0000
  Ti  Ti2       1.0  0.005000041660024234  0.0066674781184855505  0.999611281188689  1.0000
  Ti  Ti3       1.0  4.179999779413489e-08  0.0016674781395277036  0.9993467853384825  1.0000
  Ti  Ti4       1.0  0.005000041660024234  0.0066674781184855505  0.9990822897788935  1.0000
