data_image0
_chemical_formula_structural       CONb16
_chemical_formula_sum              "C1 O1 Nb16"
_cell_length_a       6.6881794929504395
_cell_length_b       5.6234017807998145
_cell_length_c       103.06336212158203
_cell_angle_alpha    90.0
_cell_angle_beta     90.0
_cell_angle_gamma    122.62221434107485

_space_group_name_H-M_alt    "P 1"
_space_group_IT_number       1

loop_
  _space_group_symop_operation_xyz
  'x, y, z'

loop_
  _atom_site_type_symbol
  _atom_site_label
  _atom_site_symmetry_multiplicity
  _atom_site_fract_x
  _atom_site_fract_y
  _atom_site_fract_z
  _atom_site_occupancy
  C   C1        1.0  0.006250000153747228  0.007500000314617851  0.00019405577422910723  1.0000
  O   O1        1.0  0.006250000153747228  0.007500000314617851  0.0003104886604364691  1.0000
  Nb  Nb1       1.0  0.0037499999175666042  0.002500000039327231  0.9995417054911231  1.0000
  Nb  Nb2       1.0  0.001250000012604074  0.002500000039327231  0.9993125583812672  1.0000
  Nb  Nb3       1.0  0.0037499999175666042  0.002500000039327231  0.0  1.0000
  Nb  Nb4       1.0  0.001250000012604074  0.002500000039327231  0.9997708528901441  1.0000
  Nb  Nb5       1.0  0.0037500001008325926  0.007500000314617851  0.9995417054911231  1.0000
  Nb  Nb6       1.0  0.0012500001871669972  0.007500000314617851  0.9993125583812672  1.0000
  Nb  Nb7       1.0  0.0037500001008325926  0.007500000314617851  0.0  1.0000
  Nb  Nb8       1.0  0.0012500001871669972  0.007500000314617851  0.9997708528901441  1.0000
  Nb  Nb9       1.0  0.008749999884146833  0.002500000039327231  0.9995417054911231  1.0000
  Nb  Nb10      1.0  0.006250000040105759  0.002500000039327231  0.9993125583812672  1.0000
  Nb  Nb11      1.0  0.008749999884146833  0.002500000039327231  0.0  1.0000
  Nb  Nb12      1.0  0.006250000040105759  0.002500000039327231  0.9997708528901441  1.0000
  Nb  Nb13      1.0  0.008750000276286383  0.007500000314617851  0.9995417054911231  1.0000
  Nb  Nb14      1.0  0.006250000153747228  0.007500000314617851  0.9993125583812672  1.0000
  Nb  Nb15      1.0  0.008750000276286383  0.007500000314617851  0.0  1.0000
  Nb  Nb16      1.0  0.006250000153747228  0.007500000314617851  0.9997708528901441  1.0000
