data_image0
_chemical_formula_structural       HTi4Cu6Ti4Cu6Ti4Cu6Ti4Cu6Ti4Cu6Ti4Cu6
_chemical_formula_sum              "H1 Ti24 Cu36"
_cell_length_a       15.650395579490059
_cell_length_b       6.327694892883301
_cell_length_c       101.63847351074219
_cell_angle_alpha    90.0
_cell_angle_beta     66.15177053033248
_cell_angle_gamma    90.0

_space_group_name_H-M_alt    "P 1"
_space_group_IT_number       1

loop_
  _space_group_symop_operation_xyz
  'x, y, z'

loop_
  _atom_site_type_symbol
  _atom_site_label
  _atom_site_symmetry_multiplicity
  _atom_site_fract_x
  _atom_site_fract_y
  _atom_site_fract_z
  _atom_site_occupancy
  H   H1        1.0  0.0070730019349765786  0.0024999999058035417  0.9996477445744489  1.0000
  Ti  Ti1       1.0  0.007562234276341545  0.009999999623214167  0.9995106175578912  1.0000
  Ti  Ti2       1.0  0.00051575590343204  0.002500000200167474  0.999463028083912  1.0000
  Ti  Ti3       1.0  0.002636257140818432  0.002500000200167474  0.9993770752107998  1.0000
  Ti  Ti4       1.0  0.005496512238528653  0.010000000800669895  0.9993517693404943  1.0000
  Cu  Cu1       1.0  0.009376559014287232  0.010000000800669895  0.9994162446312099  1.0000
  Cu  Cu2       1.0  0.008607561892200957  0.002500000200167474  0.9993042459057395  1.0000
  Cu  Cu3       1.0  0.006587207524089435  0.002500000200167474  0.999425199908305  1.0000
  Cu  Cu4       1.0  0.004517564527867847  0.002500000200167474  0.9992572685040522  1.0000
  Cu  Cu5       1.0  0.0036298057760513285  0.010000000800669895  0.9994633160410739  1.0000
  Cu  Cu6       1.0  0.001701605511763429  0.009999999623214167  0.9992783499572535  1.0000
  Ti  Ti5       1.0  0.007594560191909329  0.0  0.9992174633000834  1.0000
  Ti  Ti6       1.0  0.0005035077881320736  0.002500000200167474  0.9991920036602701  1.0000
  Ti  Ti7       1.0  0.002594560066988312  0.002500000200167474  0.9990618212562193  1.0000
  Ti  Ti8       1.0  0.005503507815458546  0.0  0.9990363609970321  1.0000
  Cu  Cu7       1.0  0.009496491518296032  0.0  0.9990990549776747  1.0000
  Cu  Cu8       1.0  0.008601575572984388  0.002500000200167474  0.9989991273013746  1.0000
  Cu  Cu9       1.0  0.00654903374343182  0.002500000200167474  0.9991269121647602  1.0000
  Cu  Cu10      1.0  0.004496491913879251  0.002500000200167474  0.9989434129014056  1.0000
  Cu  Cu11      1.0  0.003601575708315489  0.0  0.9991547693680483  1.0000
  Cu  Cu12      1.0  0.0015490340088889797  0.0  0.9989712700965924  1.0000
  Ti  Ti9       1.0  0.007594560191909329  0.0  0.9989061785869054  1.0000
  Ti  Ti10      1.0  0.0005035077881320736  0.002500000200167474  0.998880718947092  1.0000
  Ti  Ti11      1.0  0.002594560066988312  0.002500000200167474  0.9987505365430412  1.0000
  Ti  Ti12      1.0  0.005503507815458546  0.0  0.9987250768702918  1.0000
  Cu  Cu13      1.0  0.009496491518296032  0.0  0.9987877702644967  1.0000
  Cu  Cu14      1.0  0.008601575572984388  0.002500000200167474  0.9986878431746344  1.0000
  Cu  Cu15      1.0  0.00654903374343182  0.002500000200167474  0.99881562803802  1.0000
  Cu  Cu16      1.0  0.004496491913879251  0.002500000200167474  0.9986321281882276  1.0000
  Cu  Cu17      1.0  0.003601575708315489  0.0  0.9988434852413081  1.0000
  Cu  Cu18      1.0  0.0015490340088889797  0.0  0.9986599856766333  1.0000
  Ti  Ti13      1.0  0.007562234276341545  0.004999999811607083  0.9995106175578912  1.0000
  Ti  Ti14      1.0  0.00051575590343204  0.007500000306138489  0.999463028083912  1.0000
  Ti  Ti15      1.0  0.002636257140818432  0.007500000306138489  0.9993770752107998  1.0000
  Ti  Ti16      1.0  0.005496512238528653  0.005000000400334948  0.9993517693404943  1.0000
  Cu  Cu19      1.0  0.009376559014287232  0.005000000400334948  0.9994162446312099  1.0000
  Cu  Cu20      1.0  0.008607561892200957  0.007500000306138489  0.9993042459057395  1.0000
  Cu  Cu21      1.0  0.006587207524089435  0.007500000306138489  0.999425199908305  1.0000
  Cu  Cu22      1.0  0.004517564527867847  0.007500000306138489  0.9992572685040522  1.0000
  Cu  Cu23      1.0  0.0036298057760513285  0.005000000400334948  0.9994633160410739  1.0000
  Cu  Cu24      1.0  0.001701605511763429  0.004999999811607083  0.9992783499572535  1.0000
  Ti  Ti17      1.0  0.007594560191909329  0.005000000400334948  0.9992174633000834  1.0000
  Ti  Ti18      1.0  0.0005035077881320736  0.007500000306138489  0.9991920036602701  1.0000
  Ti  Ti19      1.0  0.002594560066988312  0.007500000306138489  0.9990618212562193  1.0000
  Ti  Ti20      1.0  0.005503507815458546  0.005000000400334948  0.9990363609970321  1.0000
  Cu  Cu25      1.0  0.009496491518296032  0.005000000400334948  0.9990990549776747  1.0000
  Cu  Cu26      1.0  0.008601575572984388  0.007500000306138489  0.9989991273013746  1.0000
  Cu  Cu27      1.0  0.00654903374343182  0.007500000306138489  0.9991269121647602  1.0000
  Cu  Cu28      1.0  0.004496491913879251  0.007500000306138489  0.9989434129014056  1.0000
  Cu  Cu29      1.0  0.003601575708315489  0.005000000400334948  0.9991547693680483  1.0000
  Cu  Cu30      1.0  0.0015490340088889797  0.005000000400334948  0.9989712700965924  1.0000
  Ti  Ti21      1.0  0.007594560191909329  0.005000000400334948  0.9989061785869054  1.0000
  Ti  Ti22      1.0  0.0005035077881320736  0.007500000306138489  0.998880718947092  1.0000
  Ti  Ti23      1.0  0.002594560066988312  0.007500000306138489  0.9987505365430412  1.0000
  Ti  Ti24      1.0  0.005503507815458546  0.005000000400334948  0.9987250768702918  1.0000
  Cu  Cu31      1.0  0.009496491518296032  0.005000000400334948  0.9987877702644967  1.0000
  Cu  Cu32      1.0  0.008601575572984388  0.007500000306138489  0.9986878431746344  1.0000
  Cu  Cu33      1.0  0.00654903374343182  0.007500000306138489  0.99881562803802  1.0000
  Cu  Cu34      1.0  0.004496491913879251  0.007500000306138489  0.9986321281882276  1.0000
  Cu  Cu35      1.0  0.003601575708315489  0.005000000400334948  0.9988434852413081  1.0000
  Cu  Cu36      1.0  0.0015490340088889797  0.005000000400334948  0.9986599856766333  1.0000
