data_image0
_chemical_formula_structural       COCa4Sn4Ca4Sn4
_chemical_formula_sum              "C1 O1 Ca8 Sn8"
_cell_length_a       8.890594482421875
_cell_length_b       4.888039588928223
_cell_length_c       105.25464630126953
_cell_angle_alpha    90.0
_cell_angle_beta     90.0
_cell_angle_gamma    90.0

_space_group_name_H-M_alt    "P 1"
_space_group_IT_number       1

loop_
  _space_group_symop_operation_xyz
  'x, y, z'

loop_
  _atom_site_type_symbol
  _atom_site_label
  _atom_site_symmetry_multiplicity
  _atom_site_fract_x
  _atom_site_fract_y
  _atom_site_fract_z
  _atom_site_occupancy
  C   C1        1.0  0.0012500127883304244  0.004999994909014393  0.0001645581865878338  1.0000
  O   O1        1.0  0.0012500127883304244  0.004999994909014393  0.00027856763643527803  1.0000
  Ca  Ca1       1.0  0.003749987245190757  2.5650001253394418e-08  0.9994515810615111  1.0000
  Ca  Ca2       1.0  0.0012499872284301662  0.005000025775019945  0.9991935708815937  1.0000
  Ca  Ca3       1.0  0.0037500128050910147  0.004999994909014393  0.0  1.0000
  Ca  Ca4       1.0  0.0012500192830591783  0.00999997457555691  0.9997596490048121  1.0000
  Sn  Sn1       1.0  0.003749987245190757  2.5650001253394418e-08  0.9991385974385973  1.0000
  Sn  Sn2       1.0  0.0012499872284301662  0.005000025775019945  0.9995065547876524  1.0000
  Sn  Sn3       1.0  0.003749987245190757  0.005000025775019945  0.9996968412239777  1.0000
  Sn  Sn4       1.0  0.0012499872284301662  2.5650001253394418e-08  0.9989483107191269  1.0000
  Ca  Ca5       1.0  0.008749987697726697  2.5650001253394418e-08  0.9994515810615111  1.0000
  Ca  Ca6       1.0  0.006249987261951347  0.005000025775019945  0.9991935708815937  1.0000
  Ca  Ca7       1.0  0.008750012838612195  0.004999994909014393  0.0  1.0000
  Ca  Ca8       1.0  0.006250019526087738  0.00999997457555691  0.9997596490048121  1.0000
  Sn  Sn5       1.0  0.008749987697726697  2.5650001253394418e-08  0.9991385974385973  1.0000
  Sn  Sn6       1.0  0.006249987261951347  0.005000025775019945  0.9995065547876524  1.0000
  Sn  Sn7       1.0  0.008749987697726697  0.005000025775019945  0.9996968412239777  1.0000
  Sn  Sn8       1.0  0.006249987261951347  2.5650001253394418e-08  0.9989483107191269  1.0000
