data_image0
_chemical_formula_structural       HSi12As12Si12As12Si12As12
_chemical_formula_sum              "H1 Si36 As36"
_cell_length_a       10.297406196594238
_cell_length_b       19.342711338823147
_cell_length_c       103.4929428100586
_cell_angle_alpha    67.36931553744468
_cell_angle_beta     90.0
_cell_angle_gamma    69.46007530206873

_space_group_name_H-M_alt    "P 1"
_space_group_IT_number       1

loop_
  _space_group_symop_operation_xyz
  'x, y, z'

loop_
  _atom_site_type_symbol
  _atom_site_label
  _atom_site_symmetry_multiplicity
  _atom_site_fract_x
  _atom_site_fract_y
  _atom_site_fract_z
  _atom_site_occupancy
  H   H1        1.0  0.0063503253302071416  0.0012722803890738306  0.9996919084478566  1.0000
  Si  Si1       1.0  0.005949246158937055  0.006368755534824448  0.9986434738395669  1.0000
  Si  Si2       1.0  0.004145150565802692  0.008631244519318218  0.998660554951506  1.0000
  Si  Si3       1.0  0.007054498926861958  0.007310937215209567  0.9985757151973227  1.0000
  Si  Si4       1.0  0.003039897926698424  0.007689063741310896  0.9987283135288542  1.0000
  Si  Si5       1.0  0.009129022072542941  0.005650358133533895  0.9985153466827336  1.0000
  Si  Si6       1.0  0.0009653747810174402  0.009349642822986568  0.9984290981203888  1.0000
  Si  Si7       1.0  0.005949246199773015  0.0013687555167768925  0.998463681983005  1.0000
  Si  Si8       1.0  0.004145150606638652  0.0036312445012706635  0.9984807630949439  1.0000
  Si  Si9       1.0  0.007054499116377646  0.002310936971567563  0.9987555069920744  1.0000
  Si  Si10      1.0  0.0030398979031240666  0.002689063272074442  0.9985485217047402  1.0000
  Si  Si11      1.0  0.00912902229922856  0.0006503578334932779  0.998695138769506  1.0000
  Si  Si12      1.0  0.0009653747574430829  0.004349642353750114  0.9986088899313645  1.0000
  As  As1       1.0  0.009502448767865278  0.006423945412005199  0.9986395047630913  1.0000
  As  As2       1.0  0.0005919483830545585  0.008576055093326367  0.9986645239955336  1.0000
  As  As3       1.0  0.0034275959547991437  0.0067601384419351505  0.998615326853762  1.0000
  As  As4       1.0  0.00666680149348015  0.008239861612207517  0.9986887019373109  1.0000
  As  As5       1.0  0.006905852096017716  0.005452090391371501  0.9985296054539339  1.0000
  As  As6       1.0  0.003188545352261576  0.009547909662771166  0.9987744233371391  1.0000
  As  As7       1.0  0.009502448808701238  0.0014239453939576437  0.9984597129065292  1.0000
  As  As8       1.0  0.0005919480299155877  0.003576054849684361  0.9984847321551956  1.0000
  As  As9       1.0  0.003427596144314831  0.0017601381982931459  0.9984355350134241  1.0000
  As  As10      1.0  0.006666801385636381  0.00323986181975441  0.9985089100645248  1.0000
  As  As11      1.0  0.00690585211826871  0.00045209040152325127  0.9987093975183984  1.0000
  As  As12      1.0  0.0031885453930975364  0.004547909644723611  0.9985946311926123  1.0000
  Si  Si13      1.0  0.005949246158937055  0.006368755534824448  0.9990030577626214  1.0000
  Si  Si14      1.0  0.004145150565802692  0.008631244519318218  0.9990201388745604  1.0000
  Si  Si15      1.0  0.007054498926861958  0.007310937215209567  0.9989352991203772  1.0000
  Si  Si16      1.0  0.003039897926698424  0.007689063741310896  0.9990878974519086  1.0000
  Si  Si17      1.0  0.009129022072542941  0.005650358133533895  0.998874930605788  1.0000
  Si  Si18      1.0  0.0009653747810174402  0.009349642822986568  0.9987886820434433  1.0000
  Si  Si19      1.0  0.005949246199773015  0.0013687555167768925  0.9988232656180946  1.0000
  Si  Si20      1.0  0.004145150606638652  0.0036312445012706635  0.9988403467300336  1.0000
  Si  Si21      1.0  0.007054499116377646  0.002310936971567563  0.9991150909151288  1.0000
  Si  Si22      1.0  0.0030398979031240666  0.002689063272074442  0.9989081053398299  1.0000
  Si  Si23      1.0  0.00912902229922856  0.0006503578334932779  0.9990547224045958  1.0000
  Si  Si24      1.0  0.0009653747574430829  0.004349642353750114  0.998968473854419  1.0000
  As  As13      1.0  0.009502448767865278  0.006423945412005199  0.9989990886861457  1.0000
  As  As14      1.0  0.0005919483830545585  0.008576055093326367  0.9990241079185881  1.0000
  As  As15      1.0  0.0034275959547991437  0.0067601384419351505  0.9989749107768165  1.0000
  As  As16      1.0  0.00666680149348015  0.008239861612207517  0.9990482858603653  1.0000
  As  As17      1.0  0.006905852096017716  0.005452090391371501  0.9988891893769883  1.0000
  As  As18      1.0  0.003188545352261576  0.009547909662771166  0.9991340072601935  1.0000
  As  As19      1.0  0.009502448808701238  0.0014239453939576437  0.9988192965416189  1.0000
  As  As20      1.0  0.0005919480299155877  0.003576054849684361  0.9988443157902853  1.0000
  As  As21      1.0  0.003427596144314831  0.0017601381982931459  0.9987951186485138  1.0000
  As  As22      1.0  0.006666801385636381  0.00323986181975441  0.9988684936996145  1.0000
  As  As23      1.0  0.00690585211826871  0.00045209040152325127  0.9990689811534881  1.0000
  As  As24      1.0  0.0031885453930975364  0.004547909644723611  0.9989542151156667  1.0000
  Si  Si25      1.0  0.005824613342199459  0.006538446776949073  0.9993062037737429  1.0000
  Si  Si26      1.0  0.004205886096663853  0.008487948730098888  0.9993675444507398  1.0000
  Si  Si27      1.0  0.0071133038635234945  0.007330343752086297  0.9993063214026776  1.0000
  Si  Si28      1.0  0.0030294244716252724  0.007643903342141696  0.9994060888639829  1.0000
  Si  Si29      1.0  0.009123151381809753  0.005698368692971167  0.9992413495952388  1.0000
  Si  Si30      1.0  0.0009653747810174402  0.009349642822986568  0.9991482659664978  1.0000
  Si  Si31      1.0  0.005949246199773015  0.0013687555167768925  0.9991828495411491  1.0000
  Si  Si32      1.0  0.004145150606638652  0.0036312445012706635  0.9991999306530882  1.0000
  Si  Si33      1.0  0.006893547560696609  0.0018495525581356533  0.999496022480039  1.0000
  Si  Si34      1.0  0.00291070602369335  0.0027943344401394044  0.9992369125731776  1.0000
  Si  Si35      1.0  0.008442152253290354  0.0011198953995061843  0.9993886241880158  1.0000
  Si  Si36      1.0  0.0010782193365083267  0.004504567988001869  0.9992818269454837  1.0000
  As  As25      1.0  0.009331306125177576  0.006269937495971785  0.9993982655096978  1.0000
  As  As26      1.0  0.0007251800329144523  0.008534863351703146  0.9993862003852428  1.0000
  As  As27      1.0  0.0035336901259155717  0.006546349350495894  0.9993387151123589  1.0000
  As  As28      1.0  0.006595225937097141  0.008114764075996324  0.9994390344959805  1.0000
  As  As29      1.0  0.006975540744261446  0.005435508296995662  0.9992474927888206  1.0000
  As  As30      1.0  0.0027329375329303743  0.008369947492873958  0.9995566479845351  1.0000
  As  As31      1.0  0.009502448808701238  0.0014239453939576437  0.9991788804646734  1.0000
  As  As32      1.0  0.0004975513616150542  0.0036058624186300673  0.9992053037759981  1.0000
  As  As33      1.0  0.003427596144314831  0.0017601381982931459  0.9991547025715682  1.0000
  As  As34      1.0  0.0066698741394011635  0.0030254945297424874  0.9992648733021016  1.0000
  As  As35      1.0  0.0066371132960907145  0.0006478258177968422  0.9994347525034712  1.0000
  As  As36      1.0  0.0032308512503619507  0.0044935603324596585  0.9993195800114938  1.0000
