data_image0
_chemical_formula_structural       Fe18Ga6H
_chemical_formula_sum              "Fe18 Ga6 H1"
_cell_length_a       5.681106090545654
_cell_length_b       6.957905598766418
_cell_length_c       39.406307220458984
_cell_angle_alpha    85.65224700528442
_cell_angle_beta     90.0
_cell_angle_gamma    114.09484236599344

_space_group_name_H-M_alt    "P 1"
_space_group_IT_number       1

loop_
  _space_group_symop_operation_xyz
  'x, y, z'

loop_
  _atom_site_type_symbol
  _atom_site_label
  _atom_site_symmetry_multiplicity
  _atom_site_fract_x
  _atom_site_fract_y
  _atom_site_fract_z
  _atom_site_occupancy
  Fe  Fe1       1.0  0.00571735340217423  0.0012200820512294147  0.9998451911400436  1.0000
  Fe  Fe2       1.0  0.004062499904002587  0.007910575252713775  0.9985747377693055  1.0000
  Fe  Fe3       1.0  0.00989583298944082  0.009577241880144534  0.9992217090505121  1.0000
  Fe  Fe4       1.0  0.0018761178405411543  0.008280734263607295  0.9996994104435057  1.0000
  Fe  Fe5       1.0  0.0001041666506948341  0.004993908507575292  0.9984129950560652  1.0000
  Fe  Fe6       1.0  0.005937499787362231  0.006660575135006051  0.9990599663372718  1.0000
  Fe  Fe7       1.0  0.006618035906924482  0.008280014480875036  0.9996991822272158  1.0000
  Fe  Fe8       1.0  0.0051041666375801695  0.004993908507575292  0.9984129950560652  1.0000
  Fe  Fe9       1.0  0.0009374998004768952  0.006660575135006051  0.9990599663372718  1.0000
  Fe  Fe10      1.0  0.002877755959026514  0.005537786462933743  0.9995513498834288  1.0000
  Fe  Fe11      1.0  0.0011458332547695969  0.00207724205670612  0.9982512523388859  1.0000
  Fe  Fe12      1.0  0.006979166719303629  0.003743908684136878  0.9988982236200925  1.0000
  Fe  Fe13      1.0  0.008953208364000011  0.0023695184278033554  0.9994044497114677  1.0000
  Fe  Fe14      1.0  0.0041928700182628205  0.0036964474584736564  0.9999509265433676  1.0000
  Fe  Fe15      1.0  0.0030208332997093933  0.0008272421597003782  0.9987364809038979  1.0000
  Fe  Fe16      1.0  0.003629415130746866  0.002368464943673558  0.9994044672162686  1.0000
  Fe  Fe17      1.0  0.009718980735615947  0.003698216017026752  0.9999504971242746  1.0000
  Fe  Fe18      1.0  0.008020833286594729  0.0008272421597003782  0.9987364809038979  1.0000
  Ga  Ga1       1.0  0.0003149640026211924  0.00042275784765635446  1.245372951838283e-05  1.0000
  Ga  Ga2       1.0  0.00906250000359208  0.007910575252713775  0.9985747377693055  1.0000
  Ga  Ga3       1.0  0.004895833166488804  0.009577241880144534  0.9992217090505121  1.0000
  Ga  Ga4       1.0  0.007822532683955316  0.005426132447179365  0.9995451779991685  1.0000
  Ga  Ga5       1.0  0.006145833077721613  0.00207724205670612  0.9982512523388859  1.0000
  Ga  Ga6       1.0  0.0019791666709433  0.003743908684136878  0.9988982236200925  1.0000
  H   H1        1.0  0.008859182983832724  0.007501687457931259  0.9997640934499269  1.0000
