data_image0
_chemical_formula_structural       HSi8W4Si8W4Si8W4Si8W4Si8W4Si8W4
_chemical_formula_sum              "H1 Si48 W24"
_cell_length_a       16.089664217142882
_cell_length_b       6.477535724639893
_cell_length_c       102.38768005371094
_cell_angle_alpha    90.0
_cell_angle_beta     78.38730666057641
_cell_angle_gamma    90.0

_space_group_name_H-M_alt    "P 1"
_space_group_IT_number       1

loop_
  _space_group_symop_operation_xyz
  'x, y, z'

loop_
  _atom_site_type_symbol
  _atom_site_label
  _atom_site_symmetry_multiplicity
  _atom_site_fract_x
  _atom_site_fract_y
  _atom_site_fract_z
  _atom_site_occupancy
  H   H1        1.0  0.0018661009347573534  0.0037500000230043674  0.9998996779261611  1.0000
  Si  Si1       1.0  0.0037619690771022183  0.0012500001035196534  0.9997228382198311  1.0000
  Si  Si2       1.0  0.008761968831275866  0.0012500001035196534  0.9995646762367982  1.0000
  Si  Si3       1.0  0.002912677084605958  0.0037500000230043674  0.999591541103697  1.0000
  Si  Si4       1.0  0.007912677075151099  0.0037500000230043674  0.9997497030482332  1.0000
  Si  Si5       1.0  0.006261969190560535  0.0037500000230043674  0.9998019188972874  1.0000
  Si  Si6       1.0  0.0012619690818296476  0.0037500000230043674  0.9996437569564897  1.0000
  Si  Si7       1.0  0.005412676961692782  0.0012500001035196534  0.999670622370777  1.0000
  Si  Si8       1.0  0.0004126770006940775  0.0012500001035196534  0.9998287843603522  1.0000
  W   W1        1.0  0.002087323142310676  0.0012500001035196534  0.9997758112868205  1.0000
  W   W2        1.0  0.007087323132855817  0.0012500001035196534  0.9996176492963106  1.0000
  W   W3        1.0  0.0045873230193975  0.0037500000230043674  0.9998548919717537  1.0000
  W   W4        1.0  0.009587323246314134  0.0037500000230043674  0.9996967299737669  1.0000
  Si  Si9       1.0  0.0037619690771022183  0.0012500001035196534  0.999406514284785  1.0000
  Si  Si10      1.0  0.008761968831275866  0.0012500001035196534  0.9992483523017522  1.0000
  Si  Si11      1.0  0.002912677084605958  0.0037500000230043674  0.9992752171686509  1.0000
  Si  Si12      1.0  0.007912677075151099  0.0037500000230043674  0.9994333791131872  1.0000
  Si  Si13      1.0  0.006261969190560535  0.0037500000230043674  0.9994855949622413  1.0000
  Si  Si14      1.0  0.0012619690818296476  0.0037500000230043674  0.9993274330214436  1.0000
  Si  Si15      1.0  0.005412676961692782  0.0012500001035196534  0.9993542984357309  1.0000
  Si  Si16      1.0  0.0004126770006940775  0.0012500001035196534  0.9995124604253061  1.0000
  W   W5        1.0  0.002087323142310676  0.0012500001035196534  0.9994594873517744  1.0000
  W   W6        1.0  0.007087323132855817  0.0012500001035196534  0.9993013253612645  1.0000
  W   W7        1.0  0.0045873230193975  0.0037500000230043674  0.9995385680367076  1.0000
  W   W8        1.0  0.009587323246314134  0.0037500000230043674  0.9993804060387208  1.0000
  Si  Si17      1.0  0.0037619690771022183  0.0012500001035196534  0.9990901900586656  1.0000
  Si  Si18      1.0  0.008761968831275866  0.0012500001035196534  0.9989320280756327  1.0000
  Si  Si19      1.0  0.002912677084605958  0.0037500000230043674  0.9989588932336049  1.0000
  Si  Si20      1.0  0.007912677075151099  0.0037500000230043674  0.9991170551781411  1.0000
  Si  Si21      1.0  0.006261969190560535  0.0037500000230043674  0.9991692710271952  1.0000
  Si  Si22      1.0  0.0012619690818296476  0.0037500000230043674  0.9990111090863975  1.0000
  Si  Si23      1.0  0.005412676961692782  0.0012500001035196534  0.9990379742096115  1.0000
  Si  Si24      1.0  0.0004126770006940775  0.0012500001035196534  0.9991961361991867  1.0000
  W   W9        1.0  0.002087323142310676  0.0012500001035196534  0.999143163125655  1.0000
  W   W10       1.0  0.007087323132855817  0.0012500001035196534  0.9989850011351451  1.0000
  W   W11       1.0  0.0045873230193975  0.0037500000230043674  0.9992222441016616  1.0000
  W   W12       1.0  0.009587323246314134  0.0037500000230043674  0.9990640821036748  1.0000
  Si  Si25      1.0  0.0037619690771022183  0.0062500002300436746  0.9997228382198311  1.0000
  Si  Si26      1.0  0.008761968831275866  0.0062500002300436746  0.9995646762367982  1.0000
  Si  Si27      1.0  0.002912677084605958  0.008750000437082982  0.999591541103697  1.0000
  Si  Si28      1.0  0.007912677075151099  0.008750000437082982  0.9997497030482332  1.0000
  Si  Si29      1.0  0.006261969190560535  0.008750000437082982  0.9998019188972874  1.0000
  Si  Si30      1.0  0.0012619690818296476  0.008750000437082982  0.9996437569564897  1.0000
  Si  Si31      1.0  0.005412676961692782  0.0062500002300436746  0.999670622370777  1.0000
  Si  Si32      1.0  0.0004126770006940775  0.0062500002300436746  0.9998287843603522  1.0000
  W   W13       1.0  0.002087323142310676  0.0062500002300436746  0.9997758112868205  1.0000
  W   W14       1.0  0.007087323132855817  0.0062500002300436746  0.9996176492963106  1.0000
  W   W15       1.0  0.0045873230193975  0.008750000437082982  0.9998548919717537  1.0000
  W   W16       1.0  0.009587323246314134  0.008750000437082982  0.9996967299737669  1.0000
  Si  Si33      1.0  0.0037619690771022183  0.0062500002300436746  0.999406514284785  1.0000
  Si  Si34      1.0  0.008761968831275866  0.0062500002300436746  0.9992483523017522  1.0000
  Si  Si35      1.0  0.002912677084605958  0.008750000437082982  0.9992752171686509  1.0000
  Si  Si36      1.0  0.007912677075151099  0.008750000437082982  0.9994333791131872  1.0000
  Si  Si37      1.0  0.006261969190560535  0.008750000437082982  0.9994855949622413  1.0000
  Si  Si38      1.0  0.0012619690818296476  0.008750000437082982  0.9993274330214436  1.0000
  Si  Si39      1.0  0.005412676961692782  0.0062500002300436746  0.9993542984357309  1.0000
  Si  Si40      1.0  0.0004126770006940775  0.0062500002300436746  0.9995124604253061  1.0000
  W   W17       1.0  0.002087323142310676  0.0062500002300436746  0.9994594873517744  1.0000
  W   W18       1.0  0.007087323132855817  0.0062500002300436746  0.9993013253612645  1.0000
  W   W19       1.0  0.0045873230193975  0.008750000437082982  0.9995385680367076  1.0000
  W   W20       1.0  0.009587323246314134  0.008750000437082982  0.9993804060387208  1.0000
  Si  Si41      1.0  0.0037619690771022183  0.0062500002300436746  0.9990901900586656  1.0000
  Si  Si42      1.0  0.008761968831275866  0.0062500002300436746  0.9989320280756327  1.0000
  Si  Si43      1.0  0.002912677084605958  0.008750000437082982  0.9989588932336049  1.0000
  Si  Si44      1.0  0.007912677075151099  0.008750000437082982  0.9991170551781411  1.0000
  Si  Si45      1.0  0.006261969190560535  0.008750000437082982  0.9991692710271952  1.0000
  Si  Si46      1.0  0.0012619690818296476  0.008750000437082982  0.9990111090863975  1.0000
  Si  Si47      1.0  0.005412676961692782  0.0062500002300436746  0.9990379742096115  1.0000
  Si  Si48      1.0  0.0004126770006940775  0.0062500002300436746  0.9991961361991867  1.0000
  W   W21       1.0  0.002087323142310676  0.0062500002300436746  0.999143163125655  1.0000
  W   W22       1.0  0.007087323132855817  0.0062500002300436746  0.9989850011351451  1.0000
  W   W23       1.0  0.0045873230193975  0.008750000437082982  0.9992222441016616  1.0000
  W   W24       1.0  0.009587323246314134  0.008750000437082982  0.9990640821036748  1.0000
