data_image0
_chemical_formula_structural       COAu8Ca20
_chemical_formula_sum              "C1 O1 Au8 Ca20"
_cell_length_a       7.9389515817327565
_cell_length_b       9.233934625257126
_cell_length_c       108.8397216796875
_cell_angle_alpha    86.06714883020442
_cell_angle_beta     86.60750815608748
_cell_angle_gamma    82.85089277005187

_space_group_name_H-M_alt    "P 1"
_space_group_IT_number       1

loop_
  _space_group_symop_operation_xyz
  'x, y, z'

loop_
  _atom_site_type_symbol
  _atom_site_label
  _atom_site_symmetry_multiplicity
  _atom_site_fract_x
  _atom_site_fract_y
  _atom_site_fract_z
  _atom_site_occupancy
  C   C1        1.0  0.004415691602841672  0.0005723956812196047  0.0001064767052094562  1.0000
  O   O1        1.0  0.004415691602841672  0.0005723956812196047  0.0002167302461856623  1.0000
  Au  Au1       1.0  0.005856296619449597  0.0001490237530932127  0.999003974695006  1.0000
  Au  Au2       1.0  0.00922919845097856  0.003820857328683343  0.9991350046445769  1.0000
  Au  Au3       1.0  0.004229198805811057  0.005198330246540848  0.9988892274747032  1.0000
  Au  Au4       1.0  0.000856296552855654  0.008193163995018375  0.9993529512392875  1.0000
  Au  Au5       1.0  0.005856296490301842  0.006815690669786128  0.9995987286840886  1.0000
  Au  Au6       1.0  0.009201569319077079  0.0005334748437492993  0.9997394193790595  1.0000
  Au  Au7       1.0  0.004229198604045736  0.0018649970109774522  0.9994839818866657  1.0000
  Au  Au8       1.0  0.0008213188290740853  0.005097798307683195  0.9999262955989204  1.0000
  Ca  Ca1       1.0  0.008211773935695733  0.005962705807023313  0.9993637541369268  1.0000
  Ca  Ca2       1.0  0.006873721531149917  0.0065843938829599465  0.999029086945643  1.0000
  Ca  Ca3       1.0  0.0018737215954500901  0.006051315109303662  0.999124202294669  1.0000
  Ca  Ca4       1.0  0.0032117734394166955  0.008762960676305167  0.9988641153487289  1.0000
  Ca  Ca5       1.0  0.002542747506421203  0.0024061483225233677  0.9989943352428038  1.0000
  Ca  Ca6       1.0  0.0075427474147839344  0.002941205918989446  0.9988988669276737  1.0000
  Ca  Ca7       1.0  0.004252874677696188  0.009126453825943646  0.9992544341876606  1.0000
  Ca  Ca8       1.0  0.0008326206146356701  0.002163044389859271  0.9993627960020321  1.0000
  Ca  Ca9       1.0  0.005832620647039592  0.002887566886695957  0.9992335222460114  1.0000
  Ca  Ca10      1.0  0.009252874357550725  0.009850976322780333  0.9991251604331616  1.0000
  Ca  Ca11      1.0  0.008310700629040747  0.0027537057870000293  0.999946917634865  1.0000
  Ca  Ca12      1.0  0.006873721828073323  0.0032510604437091797  0.9996238410828197  1.0000
  Ca  Ca13      1.0  0.001965106951869852  0.0026777750051309663  0.9997263653772465  1.0000
  Ca  Ca14      1.0  0.0032117737077172206  0.0054296274407417714  0.9994588694848439  1.0000
  Ca  Ca15      1.0  0.002542747674918922  0.009072814793650158  0.9995890895070128  1.0000
  Ca  Ca16      1.0  0.0075427477324459345  0.00960787300117835  0.9994936209138646  1.0000
  Ca  Ca17      1.0  0.004324052002255137  0.005733877711134312  0.9998415939603869  1.0000
  Ca  Ca18      1.0  0.0007459459453820354  0.008625232979244512  0.9999465905951803  1.0000
  Ca  Ca19      1.0  0.005797158660932167  0.009618881896209103  0.9998231391729899  1.0000
  Ca  Ca20      1.0  0.009254054312867454  0.006480878331491087  0.999706710138955  1.0000
