data_image0
_chemical_formula_structural       COSn36Ru24
_chemical_formula_sum              "C1 O1 Sn36 Ru24"
_cell_length_a       14.031678255837543
_cell_length_b       10.065435409545898
_cell_length_c       105.49765014648438
_cell_angle_alpha    90.0
_cell_angle_beta     108.43494882292202
_cell_angle_gamma    90.0

_space_group_name_H-M_alt    "P 1"
_space_group_IT_number       1

loop_
  _space_group_symop_operation_xyz
  'x, y, z'

loop_
  _atom_site_type_symbol
  _atom_site_label
  _atom_site_symmetry_multiplicity
  _atom_site_fract_x
  _atom_site_fract_y
  _atom_site_fract_z
  _atom_site_occupancy
  C   C1        1.0  0.007771293952699207  0.00535366937975194  0.0002258037845228149  1.0000
  O   O1        1.0  0.007771293952699207  0.00535366937975194  0.00033955062440060304  1.0000
  Sn  Sn1       1.0  0.005451812316971963  0.004502659276618396  0.9999651938080604  1.0000
  Sn  Sn2       1.0  0.0022541535590454645  0.0041802999608266675  0.9993778583608559  1.0000
  Sn  Sn3       1.0  0.008920820152950471  0.0041802999608266675  0.9996582567844998  1.0000
  Sn  Sn4       1.0  0.005688588832341661  0.0010387508756440694  4.531021440757553e-05  1.0000
  Sn  Sn5       1.0  0.0022541535590454645  0.0008617875327980134  0.9994815063670482  1.0000
  Sn  Sn6       1.0  0.008920820152950471  0.0008617875327980134  0.9997619047906922  1.0000
  Sn  Sn7       1.0  0.007056810835231136  0.005861787358847621  0.9994483057639082  1.0000
  Sn  Sn8       1.0  0.0037234774683154986  0.005861787358847621  0.9997287040875026  1.0000
  Sn  Sn9       1.0  0.0004705524518341992  0.005754533618005198  2.348915530783617e-05  1.0000
  Sn  Sn10      1.0  0.00789618150571089  0.005850782960931648  0.9998466626943363  1.0000
  Sn  Sn11      1.0  0.004369387758857776  0.00581616831325098  0.0001587098353714455  1.0000
  Sn  Sn12      1.0  0.0012115788828361933  0.005861787358847621  0.9995692074332854  1.0000
  Sn  Sn13      1.0  0.007878245756593738  0.009180300064456689  0.9994828551228466  1.0000
  Sn  Sn14      1.0  0.0045449123896781  0.009180300064456689  0.999763253446441  1.0000
  Sn  Sn15      1.0  0.0011993792711765892  0.009064140433624959  5.044560909894204e-05  1.0000
  Sn  Sn16      1.0  0.00848265951290148  0.007585464388982236  0.00011365804298682233  1.0000
  Sn  Sn17      1.0  0.005325200312625285  0.007521043526598546  0.9995588500069043  1.0000
  Sn  Sn18      1.0  0.001991867085635915  0.007521043526598546  0.9998392483363839  1.0000
  Sn  Sn19      1.0  0.009154297206905108  0.001238461563275804  6.560115147152719e-05  1.0000
  Sn  Sn20      1.0  0.006014235879169328  0.0008617875327980134  0.999536006535882  1.0000
  Sn  Sn21      1.0  0.0026809027921062276  0.0008617875327980134  0.9998164051537397  1.0000
  Sn  Sn22      1.0  0.007467528016059899  0.002521043793075743  0.9993786381997763  1.0000
  Sn  Sn23      1.0  0.0041341949289967995  0.002521043793075743  0.999659036817634  1.0000
  Sn  Sn24      1.0  0.0008353078413060052  0.002472873968531909  0.9999413650287742  1.0000
  Sn  Sn25      1.0  0.007312674972761617  0.0027987624417018953  0.9999315460953893  1.0000
  Sn  Sn26      1.0  0.0041341949289967995  0.002521043793075743  0.9993584763854448  1.0000
  Sn  Sn27      1.0  0.0008008614221548928  0.002521043793075743  0.9996388744206612  1.0000
  Sn  Sn28      1.0  0.007056810835231136  0.009180300064456689  0.9998150565097613  1.0000
  Sn  Sn29      1.0  0.003570418839486543  0.008945401895697461  9.705781498262169e-05  1.0000
  Sn  Sn30      1.0  0.0003901440664182937  0.009180300064456689  0.9995346580787609  1.0000
  Sn  Sn31      1.0  0.009347569525937504  0.0041802999608266675  0.9993592562302506  1.0000
  Sn  Sn32      1.0  0.006014235879169328  0.0041802999608266675  0.9996396545420744  1.0000
  Sn  Sn33      1.0  0.0026948178998196333  0.004127073731469057  0.9999384481821474  1.0000
  Sn  Sn34      1.0  0.0062011796129226564  0.00765986704303827  3.444062276687587e-05  1.0000
  Sn  Sn35      1.0  0.0029431892655157766  0.007521043526598546  0.999458663184404  1.0000
  Sn  Sn36      1.0  0.009609856279199589  0.007521043526598546  0.9997390616257037  1.0000
  Ru  Ru1       1.0  0.009142250114878347  0.0036961353208868663  0.9999262043456218  1.0000
  Ru  Ru2       1.0  0.005800861192675812  0.0037658383534873788  0.9993685572808401  1.0000
  Ru  Ru3       1.0  0.002467528105612712  0.0037658383534873788  0.9996489556162049  1.0000
  Ru  Ru4       1.0  0.005800861192675812  0.006276249336294128  0.999789154819199  1.0000
  Ru  Ru5       1.0  0.002417681611222013  0.006497862876566626  6.663880623251165e-05  1.0000
  Ru  Ru6       1.0  0.009134194839443987  0.006276249336294128  0.9995087565073751  1.0000
  Ru  Ru7       1.0  0.007434411945908095  0.009978955910838482  5.783876832379119e-05  1.0000
  Ru  Ru8       1.0  0.0041341949289967995  2.104380053571643e-05  0.9995087566015394  1.0000
  Ru  Ru9       1.0  0.0008008614221548928  2.104380053571643e-05  0.9997891549192486  1.0000
  Ru  Ru10      1.0  0.005800861192675812  0.0012762493251909114  0.999789154819199  1.0000
  Ru  Ru11      1.0  0.0024764716330005405  0.0011050277331997615  5.225063778729468e-05  1.0000
  Ru  Ru12      1.0  0.009134194839443987  0.0012762493251909114  0.9995087565073751  1.0000
  Ru  Ru13      1.0  0.009184498333028137  0.008851143729604428  0.9999377806870665  1.0000
  Ru  Ru14      1.0  0.005800861192675812  0.0087658384571174  0.9993685572808401  1.0000
  Ru  Ru15      1.0  0.002467528105612712  0.0087658384571174  0.9996489556162049  1.0000
  Ru  Ru16      1.0  0.007359831804416086  0.00535366937975194  5.2744270344733804e-05  1.0000
  Ru  Ru17      1.0  0.0041341949289967995  0.005021043659837144  0.9995087566015394  1.0000
  Ru  Ru18      1.0  0.0008008614221548928  0.005021043659837144  0.9997891549192486  1.0000
  Ru  Ru19      1.0  0.007467528016059899  0.002521043793075743  0.9996489558045335  1.0000
  Ru  Ru20      1.0  0.004153308297591015  0.002508440717031157  0.9999196781272518  1.0000
  Ru  Ru21      1.0  0.0008008614221548928  0.002521043793075743  0.9993685573808896  1.0000
  Ru  Ru22      1.0  0.007467528016059899  0.007521043526598546  0.9996489558045335  1.0000
  Ru  Ru23      1.0  0.004203366640352468  0.007380928335967628  0.9999385320001034  1.0000
  Ru  Ru24      1.0  0.0008008614221548928  0.007521043526598546  0.9993685573808896  1.0000
