data_image0
_chemical_formula_structural       CONi4Pt4Ni4Pt4Ni4Pt4Ni4Pt4
_chemical_formula_sum              "C1 O1 Ni16 Pt16"
_cell_length_a       7.781284135492856
_cell_length_b       7.722727298736572
_cell_length_c       100.89090728759766
_cell_angle_alpha    90.0
_cell_angle_beta     75.63378769775517
_cell_angle_gamma    75.63378769775517

_space_group_name_H-M_alt    "P 1"
_space_group_IT_number       1

loop_
  _space_group_symop_operation_xyz
  'x, y, z'

loop_
  _atom_site_type_symbol
  _atom_site_label
  _atom_site_symmetry_multiplicity
  _atom_site_fract_x
  _atom_site_fract_y
  _atom_site_fract_z
  _atom_site_occupancy
  C   C1        1.0  0.004807834712732182  0.002964707859848917  0.9999463688180696  1.0000
  O   O1        1.0  0.004807834712732182  0.002964707859848917  6.53094108476064e-05  1.0000
  Ni  Ni1       1.0  0.0012500000664635508  0.004687499925498496  0.9995933525573611  1.0000
  Ni  Ni2       1.0  0.006250000204503234  0.000937499919931383  0.9996890344119704  1.0000
  Ni  Ni3       1.0  0.006250000204503234  0.0034374998909885747  0.9998803979256058  1.0000
  Ni  Ni4       1.0  0.0012500000664635508  0.0021874999544413036  0.9997847160709966  1.0000
  Pt  Pt1       1.0  0.008750000081801294  0.00031249995060686784  0.9998325570997616  1.0000
  Pt  Pt2       1.0  0.003750000071576132  0.0015624999531631586  0.999545511729071  1.0000
  Pt  Pt3       1.0  0.003750000071576132  0.004062499924220349  0.9997368752427064  1.0000
  Pt  Pt4       1.0  0.008750000081801294  0.0028124999216640593  0.9996411935861261  1.0000
  Ni  Ni5       1.0  0.0012500000664635508  0.004687499925498496  0.9992106261208734  1.0000
  Ni  Ni6       1.0  0.006250000204503234  0.000937499919931383  0.9993063076800911  1.0000
  Ni  Ni7       1.0  0.006250000204503234  0.0034374998909885747  0.999497670898335  1.0000
  Ni  Ni8       1.0  0.0012500000664635508  0.0021874999544413036  0.9994019893391173  1.0000
  Pt  Pt5       1.0  0.008750000081801294  0.00031249995060686784  0.9994498300724908  1.0000
  Pt  Pt6       1.0  0.003750000071576132  0.0015624999531631586  0.9991627852925833  1.0000
  Pt  Pt7       1.0  0.003750000071576132  0.004062499924220349  0.9993541485108272  1.0000
  Pt  Pt8       1.0  0.008750000081801294  0.0028124999216640593  0.9992584668542469  1.0000
  Ni  Ni9       1.0  0.0012500000664635508  0.00968749986761288  0.9995933525573611  1.0000
  Ni  Ni10      1.0  0.006250000204503234  0.005937500103235838  0.9996890344119704  1.0000
  Ni  Ni11      1.0  0.006250000204503234  0.008437499833102957  0.9998803979256058  1.0000
  Ni  Ni12      1.0  0.0012500000664635508  0.007187500137745759  0.9997847160709966  1.0000
  Pt  Pt9       1.0  0.008750000081801294  0.0053125001339113225  0.9998325570997616  1.0000
  Pt  Pt10      1.0  0.003750000071576132  0.006562500136467613  0.999545511729071  1.0000
  Pt  Pt11      1.0  0.003750000071576132  0.009062499866334733  0.9997368752427064  1.0000
  Pt  Pt12      1.0  0.008750000081801294  0.0078124998637784425  0.9996411935861261  1.0000
  Ni  Ni13      1.0  0.0012500000664635508  0.00968749986761288  0.9992106261208734  1.0000
  Ni  Ni14      1.0  0.006250000204503234  0.005937500103235838  0.9993063076800911  1.0000
  Ni  Ni15      1.0  0.006250000204503234  0.008437499833102957  0.999497670898335  1.0000
  Ni  Ni16      1.0  0.0012500000664635508  0.007187500137745759  0.9994019893391173  1.0000
  Pt  Pt13      1.0  0.008750000081801294  0.0053125001339113225  0.9994498300724908  1.0000
  Pt  Pt14      1.0  0.003750000071576132  0.006562500136467613  0.9991627852925833  1.0000
  Pt  Pt15      1.0  0.003750000071576132  0.009062499866334733  0.9993541485108272  1.0000
  Pt  Pt16      1.0  0.008750000081801294  0.0078124998637784425  0.9992584668542469  1.0000
