data_image0
_chemical_formula_structural       COSn16Rh32
_chemical_formula_sum              "C1 O1 Sn16 Rh32"
_cell_length_a       7.082150331113144
_cell_length_b       11.86338772268384
_cell_length_c       102.34392547607422
_cell_angle_alpha    77.01022180775728
_cell_angle_beta     80.32910457456572
_cell_angle_gamma    63.6208461790672

_space_group_name_H-M_alt    "P 1"
_space_group_IT_number       1

loop_
  _space_group_symop_operation_xyz
  'x, y, z'

loop_
  _atom_site_type_symbol
  _atom_site_label
  _atom_site_symmetry_multiplicity
  _atom_site_fract_x
  _atom_site_fract_y
  _atom_site_fract_z
  _atom_site_occupancy
  C   C1        1.0  0.007200358020387694  0.0017336210357108027  0.9998654589858723  1.0000
  O   O1        1.0  0.007200358020387694  0.0017336210357108027  0.9999827109308497  1.0000
  Sn  Sn1       1.0  0.0071707466489561176  0.008100007316425333  0.998850944496183  1.0000
  Sn  Sn2       1.0  0.004670746573551671  0.005600007302197687  0.9991143041232505  1.0000
  Sn  Sn3       1.0  0.009474108401167896  0.0005727167788932102  0.9996563676530776  1.0000
  Sn  Sn4       1.0  0.0021707462488818486  0.0031000076436612212  0.999377663743948  1.0000
  Sn  Sn5       1.0  0.004991497255402155  0.007781809542066441  0.9996255619644973  1.0000
  Sn  Sn6       1.0  0.002391515091825195  0.005379238677911471  0.9988276879302241  1.0000
  Sn  Sn7       1.0  0.007391514932916847  0.00037923878284036925  0.9993544071576822  1.0000
  Sn  Sn8       1.0  0.009891514443568991  0.0028792388415294144  0.9990910475360213  1.0000
  Sn  Sn9       1.0  0.007829253803470557  0.00689999276894055  0.9991942054233001  1.0000
  Sn  Sn10      1.0  0.005329253977331489  0.00439999239902172  0.9994575650567377  1.0000
  Sn  Sn11      1.0  0.000329254042765319  0.009399992427477015  0.9989308455356931  1.0000
  Sn  Sn12      1.0  0.003079044510772179  0.001843194549804915  0.9997237162077803  1.0000
  Sn  Sn13      1.0  0.00010848544908735036  0.007120761037535584  0.9994808216469848  1.0000
  Sn  Sn14      1.0  0.007704539812573465  0.004627450151673549  0.9997463905522341  1.0000
  Sn  Sn15      1.0  0.0026084847416322893  0.009620761407454412  0.99921746201975  1.0000
  Sn  Sn16      1.0  0.005108485259020831  0.0021207611869258802  0.9989541020908156  1.0000
  Rh  Rh1       1.0  0.006014131527874212  0.008605026904367173  0.9993622228239436  1.0000
  Rh  Rh2       1.0  0.0034564060324909483  0.005990503221867798  0.9996376210455525  1.0000
  Rh  Rh3       1.0  0.008514131137770558  0.001105027217375413  0.9990988631828547  1.0000
  Rh  Rh4       1.0  0.0010141308610028786  0.0036050272316030603  0.9988355035831769  1.0000
  Rh  Rh5       1.0  0.007686323163563976  0.005860942708883943  0.9994869526005196  1.0000
  Rh  Rh6       1.0  0.005353952195549694  0.003456821031176167  0.9997261222200572  1.0000
  Rh  Rh7       1.0  0.00018632393645286852  0.008360942367420408  0.9992235929979075  1.0000
  Rh  Rh8       1.0  0.002686323608665559  0.0008609425915058533  0.9989602333584111  1.0000
  Rh  Rh9       1.0  0.001646535387325017  0.004305277884048817  0.9995998595405452  1.0000
  Rh  Rh10      1.0  0.009205475431607785  0.00184179117024698  0.998800199951977  1.0000
  Rh  Rh11      1.0  0.004205475621674306  0.006841791020856683  0.9993269195081462  1.0000
  Rh  Rh12      1.0  0.006705475946344128  0.009341790679393148  0.9990635598874488  1.0000
  Rh  Rh13      1.0  0.0089627244979315  0.0065186733260706314  0.9997259636040382  1.0000
  Rh  Rh14      1.0  0.006485869098413394  0.0038949728110798817  0.9989462861465815  1.0000
  Rh  Rh15      1.0  0.0014858691638472235  0.008894972839535177  0.9994730056995658  1.0000
  Rh  Rh16      1.0  0.003985869023008948  0.0013949727968522343  0.9992096457736491  1.0000
  Rh  Rh17      1.0  0.0030113272622364243  0.009575851127453404  0.9997715498645409  1.0000
  Rh  Rh18      1.0  0.0009066561269617376  0.0069741856811774096  0.999007302866817  1.0000
  Rh  Rh19      1.0  0.005986071134356097  0.001985371251162911  0.9995297100009206  1.0000
  Rh  Rh20      1.0  0.00840665638619773  0.004474185311258581  0.9992706627671641  1.0000
  Rh  Rh21      1.0  0.0015933436310913013  0.005525814389960826  0.999301206419027  1.0000
  Rh  Rh22      1.0  0.009174516602124382  0.0029258100215040074  0.9995705750686659  1.0000
  Rh  Rh23      1.0  0.004093343172901617  0.008025814404188474  0.9990378467981623  1.0000
  Rh  Rh24      1.0  0.00659334340986661  0.0005258145838125205  0.9987744871532593  1.0000
  Rh  Rh25      1.0  0.003314951145585174  0.000660397678590892  0.9995060096251445  1.0000
  Rh  Rh26      1.0  0.0009476011135585771  0.008030149568312694  0.9997425015384843  1.0000
  Rh  Rh27      1.0  0.005794524679943477  0.0031582090360539055  0.999244949665472  1.0000
  Rh  Rh28      1.0  0.0082945250046133  0.005658208694590371  0.9989815900447745  1.0000
  Rh  Rh29      1.0  0.00734420850191708  0.009180044382747296  0.999615957998289  1.0000
  Rh  Rh30      1.0  0.0048136763955353695  0.0066390570065631115  0.9988215566736091  1.0000
  Rh  Rh31      1.0  0.009813676080836161  0.0016390573337989986  0.9993482761882836  1.0000
  Rh  Rh32      1.0  0.002313676604459677  0.0041390573480266455  0.9990849162881037  1.0000
