data_image0
_chemical_formula_structural       COZn8As16
_chemical_formula_sum              "C1 O1 Zn8 As16"
_cell_length_a       9.504220019770434
_cell_length_b       8.228001594543457
_cell_length_c       101.52727508544922
_cell_angle_alpha    90.0
_cell_angle_beta     90.0
_cell_angle_gamma    102.50070281582697

_space_group_name_H-M_alt    "P 1"
_space_group_IT_number       1

loop_
  _space_group_symop_operation_xyz
  'x, y, z'

loop_
  _atom_site_type_symbol
  _atom_site_label
  _atom_site_symmetry_multiplicity
  _atom_site_fract_x
  _atom_site_fract_y
  _atom_site_fract_z
  _atom_site_occupancy
  C   C1        1.0  0.004653717592965166  0.008520437027384833  9.81897370429633e-05  1.0000
  O   O1        1.0  0.004653717592965166  0.008520437027384833  0.0002163848162332143  1.0000
  Zn  Zn1       1.0  0.0059126137831270005  0.001456337738254731  0.9995722584152158  1.0000
  Zn  Zn2       1.0  0.004653717592965166  0.008520437027384833  0.9999275901251583  1.0000
  Zn  Zn3       1.0  0.004720012286684018  0.003788343653123858  0.9999246564858019  1.0000
  Zn  Zn4       1.0  0.0059126137831270005  0.006456337593584527  0.9995702124409999  1.0000
  Zn  Zn5       1.0  0.008991872347473529  0.009741782108973964  0.9992989911126778  1.0000
  Zn  Zn6       1.0  0.0009944339557138246  0.000258217920638208  0.9996854277950443  1.0000
  Zn  Zn7       1.0  0.0012170873259018142  0.005282983877592159  0.9994553170456205  1.0000
  Zn  Zn8       1.0  0.008865292304267405  0.004711156662047426  0.9997930125752373  1.0000
  As  As1       1.0  0.009005566008153026  0.009738143296327193  0.999850150147854  1.0000
  As  As2       1.0  0.0012533836767350773  0.0003181298028087417  0.9994359736363078  1.0000
  As  As3       1.0  0.0013543910856430542  0.005332443913690093  0.9997106270350076  1.0000
  As  As4       1.0  0.008955576197379985  0.004706636396391746  0.9993183345219906  1.0000
  As  As5       1.0  0.007486321242237251  0.0018409125386161151  0.9993679131445303  1.0000
  As  As6       1.0  0.0027135969134492043  0.008239648624479864  0.9997588679954954  1.0000
  As  As7       1.0  0.0027226382303983734  0.0031838533369208223  0.9993863950137679  1.0000
  As  As8       1.0  0.007423795637484598  0.006972441179571184  0.9997879807115343  1.0000
  As  As9       1.0  0.007423310650323204  0.0017172562865410252  0.9997880570319498  1.0000
  As  As10      1.0  0.0026729206226844596  0.00814978007906802  0.9993839694922548  1.0000
  As  As11      1.0  0.0026872159003021594  0.0031136375845677456  0.9997640724607536  1.0000
  As  As12      1.0  0.007536038849951165  0.006874985404550614  0.9993703386660435  1.0000
  As  As13      1.0  0.005952623618024266  0.0014663002473175107  0.9999871676027511  1.0000
  As  As14      1.0  0.00443067769844801  0.00858835903927686  0.9995676413236171  1.0000
  As  As15      1.0  0.00443067769844801  0.003588359401482944  0.9995748295325986  1.0000
  As  As16      1.0  0.006141606011795505  0.006534168684508067  0.0  1.0000
