data_image0
_chemical_formula_structural       COAu16Ti4
_chemical_formula_sum              "C1 O1 Au16 Ti4"
_cell_length_a       5.104395535399162
_cell_length_b       5.1043955627932025
_cell_length_c       104.53590393066406
_cell_angle_alpha    92.94049813462209
_cell_angle_beta     92.94049815041689
_cell_angle_gamma    81.02207500576344

_space_group_name_H-M_alt    "P 1"
_space_group_IT_number       1

loop_
  _space_group_symop_operation_xyz
  'x, y, z'

loop_
  _atom_site_type_symbol
  _atom_site_label
  _atom_site_symmetry_multiplicity
  _atom_site_fract_x
  _atom_site_fract_y
  _atom_site_fract_z
  _atom_site_occupancy
  C   C1        1.0  0.002455153609075221  0.008224853100942122  0.0001714452855461885  1.0000
  O   O1        1.0  0.002455153609075221  0.008224853100942122  0.00028623804346799837  1.0000
  Au  Au1       1.0  0.007336621451163679  0.003065776180510791  1.0062513007989772e-05  1.0000
  Au  Au2       1.0  0.0047484904656729865  0.00035143078511012206  0.9996716082466732  1.0000
  Au  Au3       1.0  0.009954726336050178  0.007399907174372339  4.347122739837671e-05  1.0000
  Au  Au4       1.0  0.007417752442476383  0.004743776976919689  0.9997409490592747  1.0000
  Au  Au5       1.0  0.004653748522486744  0.008747964818867564  0.9999672829677534  1.0000
  Au  Au6       1.0  0.00208523521304591  0.005648569467481845  0.9996094536484544  1.0000
  Au  Au7       1.0  4.527440133914253e-05  0.00952301197518701  0.9997967926031528  1.0000
  Au  Au8       1.0  0.007081007575290696  0.006446638934874117  0.9994727299064956  1.0000
  Au  Au9       1.0  0.0017484901609639814  0.00735143108848721  0.9993412347794599  1.0000
  Au  Au10      1.0  0.00874849062542334  0.004351431087195846  0.9990108610283184  1.0000
  Au  Au11      1.0  0.00441775250755986  0.001743776744750279  0.9994105752637907  1.0000
  Au  Au12      1.0  0.0014177524801952165  0.00874377673142093  0.9990802015113871  1.0000
  Au  Au13      1.0  0.009085235492609025  0.0026485691292414183  0.9992790801810975  1.0000
  Au  Au14      1.0  0.006085235557692503  0.009648569101691038  0.9989487064288898  1.0000
  Au  Au15      1.0  0.004081007640374173  0.0034466387027047075  0.9991423563961033  1.0000
  Au  Au16      1.0  0.001081007335665168  0.00044663848174553064  0.9988119828848129  1.0000
  Ti  Ti1       1.0  0.009583121871200605  0.0010476036235577088  0.9995410917772231  1.0000
  Ti  Ti2       1.0  0.0026001466525982227  0.0039035194862945114  0.9998719329742555  1.0000
  Ti  Ti3       1.0  0.0035831212617825946  0.005047603842997291  0.9988803445139708  1.0000
  Ti  Ti4       1.0  0.006583121196699118  0.0080476040751667  0.9992107183094547  1.0000
