data_image0
_chemical_formula_structural       HGa8Cu4Ga8Cu4Ga8Cu4Ga8Cu4
_chemical_formula_sum              "H1 Ga32 Cu16"
_cell_length_a       8.131948471069336
_cell_length_b       8.289435286616854
_cell_length_c       106.11875915527344
_cell_angle_alpha    71.38106323384135
_cell_angle_beta     90.0
_cell_angle_gamma    60.62650018476375

_space_group_name_H-M_alt    "P 1"
_space_group_IT_number       1

loop_
  _space_group_symop_operation_xyz
  'x, y, z'

loop_
  _atom_site_type_symbol
  _atom_site_label
  _atom_site_symmetry_multiplicity
  _atom_site_fract_x
  _atom_site_fract_y
  _atom_site_fract_z
  _atom_site_occupancy
  H   H1        1.0  0.005584153257163758  0.0010557714138593698  0.9999101804002716  1.0000
  Ga  Ga1       1.0  0.004558415612817593  0.006440479106081864  0.9989446800645774  1.0000
  Ga  Ga2       1.0  0.003308416158698912  0.003940479150420859  0.9991148608349923  1.0000
  Ga  Ga3       1.0  0.0008084162030379068  0.008940479061742869  0.9987744992941624  1.0000
  Ga  Ga4       1.0  0.002058416086701666  0.001440479056200493  0.9986043185003127  1.0000
  Ga  Ga5       1.0  0.0034805271458408513  0.008596256040035347  0.999091428920808  1.0000
  Ga  Ga6       1.0  0.002230527510735396  0.006096255530136896  0.998580886315656  1.0000
  Ga  Ga7       1.0  0.004730527501036241  0.0010962555495352068  0.9989212481390531  1.0000
  Ga  Ga8       1.0  0.0009805278275639658  0.0035962555744758922  0.9987510673669103  1.0000
  Cu  Cu1       1.0  0.004019471517888584  0.007518367295939883  0.9986776929453289  1.0000
  Cu  Cu2       1.0  0.0027694720637699024  0.005018367340278878  0.9988478737157439  1.0000
  Cu  Cu3       1.0  0.0002694720990333879  1.8367251427686842e-05  0.9991882352610013  1.0000
  Cu  Cu4       1.0  0.0015194719224929753  0.0025183673846178732  0.9990180544861588  1.0000
  Ga  Ga9       1.0  0.0046480871714668715  0.00626117996691105  0.9996383169026004  1.0000
  Ga  Ga10      1.0  0.0034634810823500747  0.003630168809552592  0.9998050957038979  1.0000
  Ga  Ga11      1.0  0.0008084162030379068  0.008940479061742869  0.9994552229643913  1.0000
  Ga  Ga12      1.0  0.002058416086701666  0.001440479056200493  0.9992850421705416  1.0000
  Ga  Ga13      1.0  0.003608528534609484  0.008341317899673836  0.9997919685386969  1.0000
  Ga  Ga14      1.0  0.002230527510735396  0.006096255530136896  0.9992616097050456  1.0000
  Ga  Ga15      1.0  0.004699528121037177  0.0011576047159381452  0.9995925788286101  1.0000
  Ga  Ga16      1.0  0.0009805278275639658  0.0035962555744758922  0.9994317904754605  1.0000
  Cu  Cu5       1.0  0.004019471517888584  0.007518367295939883  0.9993584160538791  1.0000
  Cu  Cu6       1.0  0.0027694720637699024  0.005018367340278878  0.9995285973859728  1.0000
  Cu  Cu7       1.0  0.00028823432787250145  0.009981633502162041  0.9998426640035418  1.0000
  Cu  Cu8       1.0  0.0015845875965131645  0.002387825899155814  0.9996978875332434  1.0000
  Ga  Ga17      1.0  0.009558415392926956  0.006440479106081864  0.9989446800645774  1.0000
  Ga  Ga18      1.0  0.008308415480702776  0.003940479150420859  0.9991148608349923  1.0000
  Ga  Ga19      1.0  0.005808415525041771  0.008940479061742869  0.9987744992941624  1.0000
  Ga  Ga20      1.0  0.007058415637758279  0.001440479056200493  0.9986043185003127  1.0000
  Ga  Ga21      1.0  0.008480526925950213  0.008596256040035347  0.999091428920808  1.0000
  Ga  Ga22      1.0  0.007230527290844758  0.006096255530136896  0.998580886315656  1.0000
  Ga  Ga23      1.0  0.009730527281145603  0.0010962555495352068  0.9989212481390531  1.0000
  Ga  Ga24      1.0  0.005980527378620579  0.0035962555744758922  0.9987510673669103  1.0000
  Cu  Cu9       1.0  0.009019471297997945  0.007518367295939883  0.9986776929453289  1.0000
  Cu  Cu10      1.0  0.007769471385773766  0.005018367340278878  0.9988478737157439  1.0000
  Cu  Cu11      1.0  0.0052694721081954984  1.8367251427686842e-05  0.9991882352610013  1.0000
  Cu  Cu12      1.0  0.006519471473549587  0.0025183673846178732  0.9990180544861588  1.0000
  Ga  Ga25      1.0  0.009648086951576233  0.00626117996691105  0.9996383169026004  1.0000
  Ga  Ga26      1.0  0.008463480862459436  0.003630168809552592  0.9998050957038979  1.0000
  Ga  Ga27      1.0  0.005808415525041771  0.008940479061742869  0.9994552229643913  1.0000
  Ga  Ga28      1.0  0.007058415637758279  0.001440479056200493  0.9992850421705416  1.0000
  Ga  Ga29      1.0  0.008608528314718844  0.008341317899673836  0.9997919685386969  1.0000
  Ga  Ga30      1.0  0.007230527290844758  0.006096255530136896  0.9992616097050456  1.0000
  Ga  Ga31      1.0  0.009699528359252037  0.0011576047159381452  0.9995925788286101  1.0000
  Ga  Ga32      1.0  0.005980527378620579  0.0035962555744758922  0.9994317904754605  1.0000
  Cu  Cu13      1.0  0.009019471297997945  0.007518367295939883  0.9993584160538791  1.0000
  Cu  Cu14      1.0  0.007769471385773766  0.005018367340278878  0.9995285973859728  1.0000
  Cu  Cu15      1.0  0.005288234107981863  0.009981633502162041  0.9998426640035418  1.0000
  Cu  Cu16      1.0  0.006584587376622526  0.002387825899155814  0.9996978875332434  1.0000
