data_image0
_chemical_formula_structural       COCo6Pt2Co6Pt2Co6Pt2Co6Pt2
_chemical_formula_sum              "C1 O1 Co24 Pt8"
_cell_length_a       5.181681905055614
_cell_length_b       8.231870651245117
_cell_length_c       106.27177429199219
_cell_angle_alpha    90.0
_cell_angle_beta     119.99999826317541
_cell_angle_gamma    90.0

_space_group_name_H-M_alt    "P 1"
_space_group_IT_number       1

loop_
  _space_group_symop_operation_xyz
  'x, y, z'

loop_
  _atom_site_type_symbol
  _atom_site_label
  _atom_site_symmetry_multiplicity
  _atom_site_fract_x
  _atom_site_fract_y
  _atom_site_fract_z
  _atom_site_occupancy
  C   C1        1.0  0.004146350913403316  0.004999999656065948  0.00018925705815941264  1.0000
  O   O1        1.0  0.004146350913403316  0.004999999656065948  0.0003021747617923566  1.0000
  Co  Co1       1.0  0.003143673113448837  0.001250001271650902  0.9995949062608938  1.0000
  Co  Co2       1.0  0.008394946930172375  0.001250001271650902  0.9993633643513684  1.0000
  Co  Co3       1.0  0.008394946930172375  0.001250001271650902  0.9995949063299445  1.0000
  Co  Co4       1.0  0.006812038919113288  0.0037500012128200773  0.99944054515234  1.0000
  Co  Co5       1.0  0.0015607645835434177  0.0037500012128200773  0.9991844992448011  1.0000
  Co  Co6       1.0  0.0015607645835434177  0.0037500012128200773  0.9994405450706401  1.0000
  Pt  Pt1       1.0  0.006644522532136396  0.0037500012128200773  0.9991926673031418  1.0000
  Pt  Pt2       1.0  0.003311189292887197  0.001250001271650902  0.9993551965810522  1.0000
  Co  Co7       1.0  0.002819382741486125  0.0012499986695182733  6.87348257111215e-05  1.0000
  Co  Co8       1.0  0.008345248922977954  0.001250001271650902  0.999846002350565  1.0000
  Co  Co9       1.0  0.00843923482289638  0.001249999461471682  6.857085534099893e-05  1.0000
  Co  Co10      1.0  0.00686723794265545  0.00375000053400287  0.999933357371308  1.0000
  Co  Co11      1.0  0.0015607645835434177  0.0037500012128200773  0.9996720873296512  1.0000
  Co  Co12      1.0  0.0016135681973411585  0.0037500003077304673  0.9999333855453918  1.0000
  Pt  Pt3       1.0  0.006644522532136396  0.0037500012128200773  0.999680254827122  1.0000
  Pt  Pt4       1.0  0.003325433700079047  0.0012500009322422981  0.999844179640899  1.0000
  Co  Co13      1.0  0.003143673113448837  0.006250000814580649  0.9995949062608938  1.0000
  Co  Co14      1.0  0.008394946930172375  0.006250000814580649  0.9993633643513684  1.0000
  Co  Co15      1.0  0.008394946930172375  0.006250000814580649  0.9995949063299445  1.0000
  Co  Co16      1.0  0.006812038919113288  0.008750000868886025  0.99944054515234  1.0000
  Co  Co17      1.0  0.0015607645835434177  0.008750000868886025  0.9991844992448011  1.0000
  Co  Co18      1.0  0.0015607645835434177  0.008750000868886025  0.9994405450706401  1.0000
  Pt  Pt5       1.0  0.006644522532136396  0.008750000868886025  0.9991926673031418  1.0000
  Pt  Pt6       1.0  0.003311189292887197  0.006250000814580649  0.9993551965810522  1.0000
  Co  Co19      1.0  0.002819382741486125  0.006249998551856624  6.87348257111215e-05  1.0000
  Co  Co20      1.0  0.008345248922977954  0.006250000814580649  0.999846002350565  1.0000
  Co  Co21      1.0  0.00843923482289638  0.006249999004401429  6.857085534099893e-05  1.0000
  Co  Co22      1.0  0.00686723794265545  0.008749999963796416  0.999933357371308  1.0000
  Co  Co23      1.0  0.0015607645835434177  0.008750000868886025  0.9996720873296512  1.0000
  Co  Co24      1.0  0.0016135681973411585  0.008749999963796416  0.9999333855453918  1.0000
  Pt  Pt7       1.0  0.006644522532136396  0.008750000868886025  0.999680254827122  1.0000
  Pt  Pt8       1.0  0.003325433700079047  0.006250000814580649  0.999844179640899  1.0000
