data_image0
_chemical_formula_structural       HRe3V6W3Re3V6W3Re3V6W3Re3V6W3
_chemical_formula_sum              "H1 Re12 V24 W12"
_cell_length_a       8.654194831848145
_cell_length_b       8.654194687562669
_cell_length_c       38.202457427978516
_cell_angle_alpha    90.0
_cell_angle_beta     90.0
_cell_angle_gamma    120.00000055151581

_space_group_name_H-M_alt    "P 1"
_space_group_IT_number       1

loop_
  _space_group_symop_operation_xyz
  'x, y, z'

loop_
  _atom_site_type_symbol
  _atom_site_label
  _atom_site_symmetry_multiplicity
  _atom_site_fract_x
  _atom_site_fract_y
  _atom_site_fract_z
  _atom_site_occupancy
  H   H1        1.0  4.552693899063867e-09  0.0008333394305186499  0.00021878607253250146  1.0000
  Re  Re1       1.0  1.8453463262918939e-09  0.0008333271284531674  0.9989001294492161  1.0000
  Re  Re2       1.0  0.003333329679346978  0.002500007356386632  0.9997925607048298  1.0000
  Re  Re3       1.0  0.0016666685202573683  0.004166660370660089  0.9979753042949031  1.0000
  V   V1        1.0  1.8453463262918939e-09  0.0008333271284531674  0.9982065105834813  1.0000
  V   V2        1.0  0.0033333348977642443  0.0024999936874249844  0.9991313357377943  1.0000
  V   V3        1.0  0.0016666792878887316  0.004166671305829407  0.0  1.0000
  V   V4        1.0  0.0033333348977642443  0.0024999936874249844  0.9977440980063248  1.0000
  V   V5        1.0  0.0016666685202573683  0.004166660370660089  0.9986689231606378  1.0000
  V   V6        1.0  0.00999999801081505  0.0008333328445644017  0.9996061829631301  1.0000
  W   W1        1.0  0.0016666557393457458  0.00416667279698886  0.9993632874265631  1.0000
  W   W2        1.0  1.8453463262918939e-09  0.0008333271284531674  0.9975128913276888  1.0000
  W   W3        1.0  0.0033333348977642443  0.0024999936874249844  0.9984377168720596  1.0000
  Re  Re4       1.0  1.7494493006653177e-09  0.005833326805368619  0.9989001294492161  1.0000
  Re  Re5       1.0  0.003333329618677806  0.007500007157565371  0.9997925607048298  1.0000
  Re  Re6       1.0  0.0016666684326844062  0.00916666017183883  0.9979753042949031  1.0000
  V   V7        1.0  1.7494493006653177e-09  0.005833326805368619  0.9982065105834813  1.0000
  V   V8        1.0  0.003333335122781102  0.0074999937371302994  0.9991313357377943  1.0000
  V   V9        1.0  0.00166667928102714  0.009166671107008147  0.0  1.0000
  V   V10       1.0  0.003333335122781102  0.0074999937371302994  0.9977440980063248  1.0000
  V   V11       1.0  0.0016666684326844062  0.00916666017183883  0.9986689231606378  1.0000
  V   V12       1.0  0.009999997904662359  0.0058333327700064285  0.9996061829631301  1.0000
  W   W4        1.0  0.0016666559541069392  0.00916667309522075  0.9993632874265631  1.0000
  W   W5        1.0  1.7494493006653177e-09  0.005833326805368619  0.9975128913276888  1.0000
  W   W6        1.0  0.003333335122781102  0.0074999937371302994  0.9984377168720596  1.0000
  Re  Re7       1.0  0.005000001471921716  0.0008333271284531674  0.9989001294492161  1.0000
  Re  Re8       1.0  0.008333329601864062  0.002500007356386632  0.9997925607048298  1.0000
  Re  Re9       1.0  0.006666668523485823  0.004166660370660089  0.9979753042949031  1.0000
  V   V13       1.0  0.005000001471921716  0.0008333271284531674  0.9982065105834813  1.0000
  V   V14       1.0  0.008333334820281327  0.0024999936874249844  0.9991313357377943  1.0000
  V   V15       1.0  0.006666679156598234  0.004166671305829407  0.0  1.0000
  V   V16       1.0  0.008333334820281327  0.0024999936874249844  0.9977440980063248  1.0000
  V   V17       1.0  0.006666668523485823  0.004166660370660089  0.9986689231606378  1.0000
  V   V18       1.0  0.004999997873067642  0.0008333328445644017  0.9996061829631301  1.0000
  W   W7        1.0  0.006666655365921136  0.00416667279698886  0.9993632874265631  1.0000
  W   W8        1.0  0.005000001471921716  0.0008333271284531674  0.9975128913276888  1.0000
  W   W9        1.0  0.008333334820281327  0.0024999936874249844  0.9984377168720596  1.0000
  Re  Re10      1.0  0.005000001671966385  0.005833326805368619  0.9989001294492161  1.0000
  Re  Re11      1.0  0.008333329433579728  0.007500007157565371  0.9997925607048298  1.0000
  Re  Re12      1.0  0.00666666835520149  0.00916666017183883  0.9979753042949031  1.0000
  V   V19       1.0  0.005000001671966385  0.005833326805368619  0.9982065105834813  1.0000
  V   V20       1.0  0.008333334776260281  0.0074999937371302994  0.9991313357377943  1.0000
  V   V21       1.0  0.006666678988313901  0.009166671107008147  0.0  1.0000
  V   V22       1.0  0.008333334776260281  0.0074999937371302994  0.9977440980063248  1.0000
  V   V23       1.0  0.00666666835520149  0.00916666017183883  0.9986689231606378  1.0000
  V   V24       1.0  0.004999997982145276  0.0058333327700064285  0.9996061829631301  1.0000
  W   W10       1.0  0.006666655876624023  0.00916667309522075  0.9993632874265631  1.0000
  W   W11       1.0  0.005000001671966385  0.005833326805368619  0.9975128913276888  1.0000
  W   W12       1.0  0.008333334776260281  0.0074999937371302994  0.9984377168720596  1.0000
