data_image0
_chemical_formula_structural       COGa24
_chemical_formula_sum              "C1 O1 Ga24"
_cell_length_a       6.524406782961995
_cell_length_b       6.524406711167832
_cell_length_c       107.42971801757812
_cell_angle_alpha    87.1886646698866
_cell_angle_beta     87.1886647008472
_cell_angle_gamma    73.983616682364

_space_group_name_H-M_alt    "P 1"
_space_group_IT_number       1

loop_
  _space_group_symop_operation_xyz
  'x, y, z'

loop_
  _atom_site_type_symbol
  _atom_site_label
  _atom_site_symmetry_multiplicity
  _atom_site_fract_x
  _atom_site_fract_y
  _atom_site_fract_z
  _atom_site_occupancy
  C   C1        1.0  0.0016317780981355812  0.005858022641423871  7.408506181711884e-05  1.0000
  O   O1        1.0  0.0016317780981355812  0.005858022641423871  0.00018578566883245892  1.0000
  Ga  Ga1       1.0  0.0003246048354525758  0.007056257517568131  0.9989128405376952  1.0000
  Ga  Ga2       1.0  0.00421349383744377  0.0009451461700006727  0.9991064022620757  1.0000
  Ga  Ga3       1.0  0.008102382393735579  0.00483403515532148  0.9992999640256299  1.0000
  Ga  Ga4       1.0  0.004143892288125965  0.0071258591037673975  0.9990096212799677  1.0000
  Ga  Ga5       1.0  0.008032781269745133  0.0010147478305053555  0.9992031830041875  1.0000
  Ga  Ga6       1.0  0.0019216697892424028  0.004903636741520746  0.9993967450066472  1.0000
  Ga  Ga7       1.0  0.0004520823288455982  0.003434049185135181  0.9990747338947897  1.0000
  Ga  Ga8       1.0  0.004340971538291168  0.007322937873234323  0.9992682956572837  1.0000
  Ga  Ga9       1.0  0.0082298604180502  0.0012118269714993623  0.9994618576581126  1.0000
  Ga  Ga10      1.0  0.006632795219171601  0.0033644475989359143  0.998977952912921  1.0000
  Ga  Ga11      1.0  0.0005216840856177784  0.007253336287035056  0.9991715149150112  1.0000
  Ga  Ga12      1.0  0.004410572965376811  0.0011422253853000956  0.9993650766384278  1.0000
  Ga  Ga13      1.0  0.0019912715460145827  0.008722923843420622  0.9994935260268687  1.0000
  Ga  Ga14      1.0  0.00588016046651767  0.0026118127930748287  0.9996870874731942  1.0000
  Ga  Ga15      1.0  0.009666946228723593  0.006237309586010263  0.9998994260346216  1.0000
  Ga  Ga16      1.0  0.005810558712855145  0.008792525429619889  0.9995903064925803  1.0000
  Ga  Ga17      1.0  0.009675395521594651  0.002712273418651391  0.9997648709988247  1.0000
  Ga  Ga18      1.0  0.0038010971597364726  0.005683223013528275  0.999925681611414  1.0000
  Ga  Ga19      1.0  0.002118749162264216  0.005100716105431002  0.9996554191044142  1.0000
  Ga  Ga20      1.0  0.005908818009379399  0.009054853865665928  0.9998600433678292  1.0000
  Ga  Ga21      1.0  0.0019302703569576054  0.0017209467296600326  0.9999891239803655  1.0000
  Ga  Ga22      1.0  0.00829946205259022  0.0050311145192317355  0.9995586386773702  1.0000
  Ga  Ga23      1.0  0.00218835063320357  0.008920003207330877  0.9997522001254873  1.0000
  Ga  Ga24      1.0  0.007099474244073724  0.0022746527097998806  0.9999621111718708  1.0000
