data_image0
_chemical_formula_structural       COPt12W6
_chemical_formula_sum              "C1 O1 Pt12 W6"
_cell_length_a       4.845183532611078
_cell_length_b       6.266399542790211
_cell_length_c       103.58551025390625
_cell_angle_alpha    84.7390339040687
_cell_angle_beta     88.75070523430182
_cell_angle_gamma    75.33451876657477

_space_group_name_H-M_alt    "P 1"
_space_group_IT_number       1

loop_
  _space_group_symop_operation_xyz
  'x, y, z'

loop_
  _atom_site_type_symbol
  _atom_site_label
  _atom_site_symmetry_multiplicity
  _atom_site_fract_x
  _atom_site_fract_y
  _atom_site_fract_z
  _atom_site_occupancy
  C   C1        1.0  0.00548345483986091  0.0030625105376855272  0.9999774204346544  1.0000
  O   O1        1.0  0.00548345483986091  0.0030625105376855272  9.32664123846585e-05  1.0000
  Pt  Pt1       1.0  0.009332975242367168  0.007182259414027688  0.99965088900556  1.0000
  Pt  Pt2       1.0  0.0021627907383452542  0.0033104506175922785  0.999813430711657  1.0000
  Pt  Pt3       1.0  0.005376560693160565  0.009371187184042182  0.9999516721912205  1.0000
  Pt  Pt4       1.0  0.006459131126517345  0.005306835808940854  0.9998551302936249  1.0000
  Pt  Pt5       1.0  0.0006670250772802947  0.0030097650412011165  0.9995468240279133  1.0000
  Pt  Pt6       1.0  0.0034898940591457125  0.00924339615340422  0.9996977212498517  1.0000
  Pt  Pt7       1.0  0.0007615464960191166  0.00861083086022656  0.9991877035847018  1.0000
  Pt  Pt8       1.0  0.003618689250518806  0.004801307003696235  0.9993420986352318  1.0000
  Pt  Pt9       1.0  0.006475832314348569  0.000991783378526102  0.999496493684163  1.0000
  Pt  Pt10      1.0  0.007809882699331825  0.006819289206211696  0.9993924289573064  1.0000
  Pt  Pt11      1.0  0.0020955968077416625  0.004438336487399988  0.9990836383008797  1.0000
  Pt  Pt12      1.0  0.004952739512112251  0.0006288127851097913  0.9992380336383127  1.0000
  W   W1        1.0  0.0007108937451025371  0.007473688114912202  0.9998882779206485  1.0000
  W   W2        1.0  0.005000000494218356  0.00509601238185453  0.9995988562278326  1.0000
  W   W3        1.0  0.007812200236503343  0.001336961447766445  0.9997599480149962  1.0000
  W   W4        1.0  0.002142857355194943  0.008905536238384854  0.9994444611776947  1.0000
  W   W5        1.0  0.006428571455632275  0.0065245838280534015  0.9991356710769981  1.0000
  W   W6        1.0  0.009285714594655688  0.002715059971523077  0.999290066127136  1.0000
