data_image0
_chemical_formula_structural       COCo2Rh4Sn2Co2Rh4Sn2
_chemical_formula_sum              "C1 O1 Co4 Rh8 Sn4"
_cell_length_a       8.167047500610352
_cell_length_b       4.600758033048819
_cell_length_c       98.38267517089844
_cell_angle_alpha    89.43306409347674
_cell_angle_beta     90.0
_cell_angle_gamma    116.3458306993015

_space_group_name_H-M_alt    "P 1"
_space_group_IT_number       1

loop_
  _space_group_symop_operation_xyz
  'x, y, z'

loop_
  _atom_site_type_symbol
  _atom_site_label
  _atom_site_symmetry_multiplicity
  _atom_site_fract_x
  _atom_site_fract_y
  _atom_site_fract_z
  _atom_site_occupancy
  C   C1        1.0  0.0011318115746256085  0.008804122439938975  0.00013906129226010056  1.0000
  O   O1        1.0  0.0011318115746256085  0.008804122439938975  0.00026103362827561765  1.0000
  Co  Co1       1.0  0.0005920210975381443  0.0016372950284907451  0.9995724361556679  1.0000
  Co  Co2       1.0  0.004407978764613331  0.006909171526691025  0.9999263626340471  1.0000
  Rh  Rh1       1.0  0.002154521154014331  0.007887295254395492  0.9994822822118148  1.0000
  Rh  Rh2       1.0  0.004029520986246636  0.005387295073671694  0.9996625900747833  1.0000
  Rh  Rh3       1.0  0.0009758814366152243  0.003180255171519896  0.9998538284407258  1.0000
  Rh  Rh4       1.0  0.0028788386218986024  0.0007918510320485461  0.999999633597442  1.0000
  Sn  Sn1       1.0  0.0037170209636561624  0.004137294983309795  0.999392128292804  1.0000
  Sn  Sn2       1.0  0.0024870122115722825  0.009208149464941896  0.9997466557883644  1.0000
  Co  Co3       1.0  0.005592020838110382  0.0016372950284907451  0.9995724361556679  1.0000
  Co  Co4       1.0  0.009407978490931296  0.006909171526691025  0.9999263626340471  1.0000
  Rh  Rh5       1.0  0.007154520894586568  0.007887295254395492  0.9994822822118148  1.0000
  Rh  Rh6       1.0  0.009029520940632965  0.005387295073671694  0.9996625900747833  1.0000
  Rh  Rh7       1.0  0.005975881134424644  0.003180255171519896  0.9998538284407258  1.0000
  Rh  Rh8       1.0  0.007878838120148205  0.0007918510320485461  0.999999633597442  1.0000
  Sn  Sn3       1.0  0.00871702091804249  0.004137294983309795  0.999392128292804  1.0000
  Sn  Sn4       1.0  0.007487011937890248  0.009208149464941896  0.9997466557883644  1.0000
