data_image0
_chemical_formula_structural       Co2Pt2Co2Pt2Co2Pt2Co2Pt2H
_chemical_formula_sum              "Co8 Pt8 H1"
_cell_length_a       5.364039421081543
_cell_length_b       4.573071189272391
_cell_length_c       102.0114974975586
_cell_angle_alpha    71.81538340855894
_cell_angle_beta     90.0
_cell_angle_gamma    90.0

_space_group_name_H-M_alt    "P 1"
_space_group_IT_number       1

loop_
  _space_group_symop_operation_xyz
  'x, y, z'

loop_
  _atom_site_type_symbol
  _atom_site_label
  _atom_site_symmetry_multiplicity
  _atom_site_fract_x
  _atom_site_fract_y
  _atom_site_fract_z
  _atom_site_occupancy
  Co  Co1       1.0  0.002500000055559477  0.00748265967701044  0.9992292687908566  1.0000
  Co  Co2       1.0  0.002500000055559477  0.0024826595483946555  0.9994534137559234  1.0000
  Pt  Pt1       1.0  0.0  0.0024826595483946555  0.999229268874457  1.0000
  Pt  Pt2       1.0  0.0  0.00748265967701044  0.999453413672323  1.0000
  Co  Co3       1.0  0.002500000055559477  0.0075173404944772725  0.9996728635275479  1.0000
  Co  Co4       1.0  0.002500000055559477  0.002647852804071036  0.9998851648844483  1.0000
  Pt  Pt3       1.0  0.0  0.0025068418881236116  0.9996717028385382  1.0000
  Pt  Pt4       1.0  0.010000000222237909  0.007401570854881336  0.9998964503903169  1.0000
  Co  Co5       1.0  0.007500000166678431  0.00748265967701044  0.9992292687908566  1.0000
  Co  Co6       1.0  0.007500000166678431  0.0024826595483946555  0.9994534137559234  1.0000
  Pt  Pt5       1.0  0.005000000111118954  0.0024826595483946555  0.999229268874457  1.0000
  Pt  Pt6       1.0  0.005000000111118954  0.00748265967701044  0.999453413672323  1.0000
  Co  Co7       1.0  0.007500000166678431  0.0075173404944772725  0.9996728635275479  1.0000
  Co  Co8       1.0  0.007500000166678431  0.002647852804071036  0.9998851648844483  1.0000
  Pt  Pt7       1.0  0.005000000111118954  0.0025068418881236116  0.9996717028385382  1.0000
  Pt  Pt8       1.0  0.005000000111118954  0.007401570854881336  0.9998964503903169  1.0000
  H   H1        1.0  0.005000000111118954  0.002647852804071036  3.220757735544786e-05  1.0000
