data_image0
_chemical_formula_structural       HSn4Ir4Sn4Ir4Sn4Ir4Sn4Ir4Sn4Ir4Sn4Ir4
_chemical_formula_sum              "H1 Sn24 Ir24"
_cell_length_a       8.092312985089624
_cell_length_b       12.084905792801319
_cell_length_c       106.4154052734375
_cell_angle_alpha    109.56103033639272
_cell_angle_beta     119.99999929573613
_cell_angle_gamma    80.36300392311084

_space_group_name_H-M_alt    "P 1"
_space_group_IT_number       1

loop_
  _space_group_symop_operation_xyz
  'x, y, z'

loop_
  _atom_site_type_symbol
  _atom_site_label
  _atom_site_symmetry_multiplicity
  _atom_site_fract_x
  _atom_site_fract_y
  _atom_site_fract_z
  _atom_site_occupancy
  H   H1        1.0  0.006159582616102588  0.00040405163375147583  0.0005096527841192253  1.0000
  Sn  Sn1       1.0  0.0016873322655585063  0.0037932877100839103  0.9996249700794142  1.0000
  Sn  Sn2       1.0  0.0016873322655585063  0.008793287683912665  0.9994348586190821  1.0000
  Sn  Sn3       1.0  0.003353998857805998  0.0012932878867398133  0.9994031735581107  1.0000
  Sn  Sn4       1.0  0.003353998857805998  0.006293288024138848  0.9995932849666607  1.0000
  Ir  Ir1       1.0  2.066560063603921e-05  0.002543287880197002  0.9993239604760388  1.0000
  Ir  Ir2       1.0  2.066560063603921e-05  0.007543287526885196  0.9995140718659308  1.0000
  Ir  Ir3       1.0  2.066560063603921e-05  4.328794950990837e-05  0.9996091273596177  1.0000
  Ir  Ir4       1.0  2.066560063603921e-05  0.00504328786711138  0.9994190161772041  1.0000
  Sn  Sn5       1.0  0.0016873322655585063  0.0037932877100839103  5.192942077045907e-06  1.0000
  Sn  Sn6       1.0  0.0016873322655585063  0.008793287683912665  0.9998150814817449  1.0000
  Sn  Sn7       1.0  0.003353998857805998  0.0012932878867398133  0.9997833964207735  1.0000
  Sn  Sn8       1.0  0.003353998857805998  0.006293288024138848  0.9999735075492671  1.0000
  Ir  Ir5       1.0  2.066560063603921e-05  0.002543287880197002  0.9997041830586452  1.0000
  Ir  Ir6       1.0  2.066560063603921e-05  0.007543287526885196  0.9998942944485372  1.0000
  Ir  Ir7       1.0  2.066560063603921e-05  4.328794950990837e-05  0.9999893502222805  1.0000
  Ir  Ir8       1.0  2.066560063603921e-05  0.00504328786711138  0.9997992390398669  1.0000
  Sn  Sn9       1.0  0.0016762519148691584  0.0036394426642880006  0.0003779337208080479  1.0000
  Sn  Sn10      1.0  0.0016711252310651593  0.008863853865714798  0.00019566229860450385  1.0000
  Sn  Sn11      1.0  0.003410038091220796  0.0012278610013622866  0.00016935385170261766  1.0000
  Sn  Sn12      1.0  0.003188695265504822  0.006394714029319834  0.0003320645616966261  1.0000
  Ir  Ir9       1.0  2.066560063603921e-05  0.002543287880197002  8.440592130793313e-05  1.0000
  Ir  Ir10      1.0  0.009979333880173935  0.0075759001693886715  0.0002689548412771184  1.0000
  Ir  Ir11      1.0  0.009978495069759428  0.009956712054374886  0.0003599991168460324  1.0000
  Ir  Ir12      1.0  0.00014224359831692401  0.005013044049408463  0.00019601579385140842  1.0000
  Sn  Sn13      1.0  0.006687332042300981  0.0037932877100839103  0.999624970182948  1.0000
  Sn  Sn14      1.0  0.006687332042300981  0.008793287683912665  0.999434858722616  1.0000
  Sn  Sn15      1.0  0.00835399890033124  0.0012932878867398133  0.9994031733916937  1.0000
  Sn  Sn16      1.0  0.00835399890033124  0.006293288024138848  0.9995932848002437  1.0000
  Ir  Ir13      1.0  0.005020665715836257  0.002543287880197002  0.999323960312385  1.0000
  Ir  Ir14      1.0  0.005020665715836257  0.007543287526885196  0.9995140717022771  1.0000
  Ir  Ir15      1.0  0.005020665715836257  4.328794950990837e-05  0.9996091274760204  1.0000
  Ir  Ir16      1.0  0.005020665715836257  0.00504328786711138  0.9994190160135504  1.0000
  Sn  Sn17      1.0  0.006687332042300981  0.0037932877100839103  5.192765554405688e-06  1.0000
  Sn  Sn18      1.0  0.006687332042300981  0.008793287683912665  0.9998150815852788  1.0000
  Sn  Sn19      1.0  0.00835399890033124  0.0012932878867398133  0.9997833962543565  1.0000
  Sn  Sn20      1.0  0.00835399890033124  0.006293288024138848  0.9999735076629065  1.0000
  Ir  Ir17      1.0  0.005020665715836257  0.002543287880197002  0.9997041831750478  1.0000
  Ir  Ir18      1.0  0.005020665715836257  0.007543287526885196  0.99989429456494  1.0000
  Ir  Ir19      1.0  0.005020665715836257  4.328794950990837e-05  0.9999893503386833  1.0000
  Ir  Ir20      1.0  0.005020665715836257  0.00504328786711138  0.9997992388762132  1.0000
  Sn  Sn21      1.0  0.006676252090285785  0.0036394426642880006  0.0003779332793874416  1.0000
  Sn  Sn22      1.0  0.0066711251406990175  0.008863853865714798  0.0001956624071911637  1.0000
  Sn  Sn23      1.0  0.008410038133746038  0.0012278610013622866  0.00016935396534211095  1.0000
  Sn  Sn24      1.0  0.008188695308030064  0.006394714029319834  0.00033206467533611935  1.0000
  Ir  Ir21      1.0  0.005020665715836257  0.002543287880197002  8.440603771069476e-05  1.0000
  Ir  Ir22      1.0  0.004979334369214228  0.0075759001693886715  0.00026895502790542556  1.0000
  Ir  Ir23      1.0  0.004978495027234186  0.009956712054374886  0.00035999928326300567  1.0000
  Ir  Ir24      1.0  0.005142243790344973  0.005013044049408463  0.0001960159131753394  1.0000
