data_image0
_chemical_formula_structural       HAl4Rh8Ti4Al4Rh8Ti4Al4Rh8Ti4Al4Rh8Ti4
_chemical_formula_sum              "H1 Al16 Rh32 Ti16"
_cell_length_a       8.69166374206543
_cell_length_b       8.69166374206543
_cell_length_c       106.8756103515625
_cell_angle_alpha    90.0
_cell_angle_beta     90.0
_cell_angle_gamma    90.0

_space_group_name_H-M_alt    "P 1"
_space_group_IT_number       1

loop_
  _space_group_symop_operation_xyz
  'x, y, z'

loop_
  _atom_site_type_symbol
  _atom_site_label
  _atom_site_symmetry_multiplicity
  _atom_site_fract_x
  _atom_site_fract_y
  _atom_site_fract_z
  _atom_site_occupancy
  H   H1        1.0  7.000000124413947e-10  1.3500000422418663e-09  0.00011527904685759971  1.0000
  Al  Al1       1.0  4.0000001440846756e-10  0.002500001371535912  0.9994250040377559  1.0000
  Al  Al2       1.0  0.002500000514325967  1.25000007696002e-09  0.999137476498476  1.0000
  Al  Al3       1.0  7.000000124413947e-10  0.002500001371535912  0.0  1.0000
  Al  Al4       1.0  0.002500000514325967  1.25000007696002e-09  0.9997125312981854  1.0000
  Rh  Rh1       1.0  0.002500000514325967  0.002500001371535912  0.9992812404075412  1.0000
  Rh  Rh2       1.0  0.002500000514325967  0.002500001371535912  0.9989937125894106  1.0000
  Rh  Rh3       1.0  4.0000001440846756e-10  1.25000007696002e-09  0.9989937125894106  1.0000
  Rh  Rh4       1.0  4.0000001440846756e-10  1.25000007696002e-09  0.9992812404075412  1.0000
  Rh  Rh5       1.0  0.002500000300023481  0.0025000009429309395  0.999856800205591  1.0000
  Rh  Rh6       1.0  0.002500000514325967  0.002500001371535912  0.9995687676679706  1.0000
  Rh  Rh7       1.0  4.0000001440846756e-10  1.25000007696002e-09  0.9995687676679706  1.0000
  Rh  Rh8       1.0  0.009999999485674033  0.00999999862846409  0.9998567974170854  1.0000
  Ti  Ti1       1.0  0.002500000514325967  1.25000007696002e-09  0.9994250040377559  1.0000
  Ti  Ti2       1.0  4.0000001440846756e-10  0.002500001371535912  0.999137476498476  1.0000
  Ti  Ti3       1.0  0.002500000514325967  2.649999999655421e-09  0.9999994646069501  1.0000
  Ti  Ti4       1.0  4.0000001440846756e-10  0.002500001371535912  0.9997125312981854  1.0000
  Al  Al5       1.0  4.0000001440846756e-10  0.007500001542977901  0.9994250040377559  1.0000
  Al  Al6       1.0  0.002500000514325967  0.005000001457256906  0.999137476498476  1.0000
  Al  Al7       1.0  7.000000124413947e-10  0.007500001542977901  0.0  1.0000
  Al  Al8       1.0  0.002500000514325967  0.005000001457256906  0.9997125312981854  1.0000
  Rh  Rh9       1.0  0.002500000514325967  0.007500001542977901  0.9992812404075412  1.0000
  Rh  Rh10      1.0  0.002500000514325967  0.007500001542977901  0.9989937125894106  1.0000
  Rh  Rh11      1.0  4.0000001440846756e-10  0.005000001457256906  0.9989937125894106  1.0000
  Rh  Rh12      1.0  4.0000001440846756e-10  0.005000001457256906  0.9992812404075412  1.0000
  Rh  Rh13      1.0  0.002500000300023481  0.007500000685767956  0.999856800205591  1.0000
  Rh  Rh14      1.0  0.002500000514325967  0.007500001542977901  0.9995687676679706  1.0000
  Rh  Rh15      1.0  4.0000001440846756e-10  0.005000001457256906  0.9995687676679706  1.0000
  Rh  Rh16      1.0  0.009999999485674033  0.004999998885627072  0.9998567974170854  1.0000
  Ti  Ti5       1.0  0.002500000514325967  0.005000001457256906  0.9994250040377559  1.0000
  Ti  Ti6       1.0  4.0000001440846756e-10  0.007500001542977901  0.999137476498476  1.0000
  Ti  Ti7       1.0  0.002500000514325967  0.005000002743071824  0.9999994646069501  1.0000
  Ti  Ti8       1.0  4.0000001440846756e-10  0.007500001542977901  0.9997125312981854  1.0000
  Al  Al9       1.0  0.005000000600046962  0.002500001371535912  0.9994250040377559  1.0000
  Al  Al10      1.0  0.007500000685767956  1.25000007696002e-09  0.999137476498476  1.0000
  Al  Al11      1.0  0.005000001028651934  0.002500001371535912  0.0  1.0000
  Al  Al12      1.0  0.007500000685767956  1.25000007696002e-09  0.9997125312981854  1.0000
  Rh  Rh17      1.0  0.007500000685767956  0.002500001371535912  0.9992812404075412  1.0000
  Rh  Rh18      1.0  0.007500000685767956  0.002500001371535912  0.9989937125894106  1.0000
  Rh  Rh19      1.0  0.005000000600046962  1.25000007696002e-09  0.9989937125894106  1.0000
  Rh  Rh20      1.0  0.005000000600046962  1.25000007696002e-09  0.9992812404075412  1.0000
  Rh  Rh21      1.0  0.007500000685767956  0.0025000009429309395  0.999856800205591  1.0000
  Rh  Rh22      1.0  0.007500000685767956  0.002500001371535912  0.9995687676679706  1.0000
  Rh  Rh23      1.0  0.005000000600046962  1.25000007696002e-09  0.9995687676679706  1.0000
  Rh  Rh24      1.0  0.0049999997428370165  0.00999999862846409  0.9998567974170854  1.0000
  Ti  Ti9       1.0  0.007500000685767956  1.25000007696002e-09  0.9994250040377559  1.0000
  Ti  Ti10      1.0  0.005000000600046962  0.002500001371535912  0.999137476498476  1.0000
  Ti  Ti11      1.0  0.007500000685767956  2.649999999655421e-09  0.9999994646069501  1.0000
  Ti  Ti12      1.0  0.005000000600046962  0.002500001371535912  0.9997125312981854  1.0000
  Al  Al13      1.0  0.005000000600046962  0.007500001542977901  0.9994250040377559  1.0000
  Al  Al14      1.0  0.007500000685767956  0.005000001457256906  0.999137476498476  1.0000
  Al  Al15      1.0  0.005000001028651934  0.007500001542977901  0.0  1.0000
  Al  Al16      1.0  0.007500000685767956  0.005000001457256906  0.9997125312981854  1.0000
  Rh  Rh25      1.0  0.007500000685767956  0.007500001542977901  0.9992812404075412  1.0000
  Rh  Rh26      1.0  0.007500000685767956  0.007500001542977901  0.9989937125894106  1.0000
  Rh  Rh27      1.0  0.005000000600046962  0.005000001457256906  0.9989937125894106  1.0000
  Rh  Rh28      1.0  0.005000000600046962  0.005000001457256906  0.9992812404075412  1.0000
  Rh  Rh29      1.0  0.007500000685767956  0.007500000685767956  0.999856800205591  1.0000
  Rh  Rh30      1.0  0.007500000685767956  0.007500001542977901  0.9995687676679706  1.0000
  Rh  Rh31      1.0  0.005000000600046962  0.005000001457256906  0.9995687676679706  1.0000
  Rh  Rh32      1.0  0.0049999997428370165  0.004999998885627072  0.9998567974170854  1.0000
  Ti  Ti13      1.0  0.007500000685767956  0.005000001457256906  0.9994250040377559  1.0000
  Ti  Ti14      1.0  0.005000000600046962  0.007500001542977901  0.999137476498476  1.0000
  Ti  Ti15      1.0  0.007500000685767956  0.005000002743071824  0.9999994646069501  1.0000
  Ti  Ti16      1.0  0.005000000600046962  0.007500001542977901  0.9997125312981854  1.0000
