data_image0
_chemical_formula_structural       COAl18Ni12
_chemical_formula_sum              "C1 O1 Al18 Ni12"
_cell_length_a       8.612680991332125
_cell_length_b       6.412090955642764
_cell_length_c       100.95125579833984
_cell_angle_alpha    94.65406144048005
_cell_angle_beta     90.09211435100549
_cell_angle_gamma    89.77768095347214

_space_group_name_H-M_alt    "P 1"
_space_group_IT_number       1

loop_
  _space_group_symop_operation_xyz
  'x, y, z'

loop_
  _atom_site_type_symbol
  _atom_site_label
  _atom_site_symmetry_multiplicity
  _atom_site_fract_x
  _atom_site_fract_y
  _atom_site_fract_z
  _atom_site_occupancy
  C   C1        1.0  0.009233307969239202  0.0019776270641328818  7.52769541496248e-05  1.0000
  O   O1        1.0  0.009233307969239202  0.0019776270641328818  0.00019414585398799247  1.0000
  Al  Al1       1.0  0.0008311946436431282  0.0006235399523023134  0.9997089775554797  1.0000
  Al  Al2       1.0  0.007497861526579356  0.008956873596391182  0.9999644744159826  1.0000
  Al  Al3       1.0  0.004164527760706901  0.004790206739560169  0.9998367259855074  1.0000
  Al  Al4       1.0  0.007562364355731247  0.004677326500462877  0.9998391981394468  1.0000
  Al  Al5       1.0  0.004229030589858791  0.0005106598257884207  0.9997114494146954  1.0000
  Al  Al6       1.0  0.0008956975268624097  0.008843993599298635  0.9999669459379438  1.0000
  Al  Al7       1.0  0.0007666917604238468  0.0049030869756421175  0.999834253831634  1.0000
  Al  Al8       1.0  0.007433358697427465  0.0007364199491207384  0.9997065054430947  1.0000
  Al  Al9       1.0  0.004100024931555009  0.009069753544037985  0.9999620022605412  1.0000
  Al  Al10      1.0  0.0008311946436431282  0.008123540252496318  0.9993257324413279  1.0000
  Al  Al11      1.0  0.007497861526579356  0.0064568736663393  0.9995812290880893  1.0000
  Al  Al12      1.0  0.004164527760706901  0.0022902065180577975  0.9994534806561122  1.0000
  Al  Al13      1.0  0.007562364355731247  0.0021773265704109947  0.9994559528115535  1.0000
  Al  Al14      1.0  0.004229030589858791  0.00801066030813898  0.9993282045966974  1.0000
  Al  Al15      1.0  0.0008956975268624097  0.0063439930863457734  0.9995837011974764  1.0000
  Al  Al16      1.0  0.0007666917604238468  0.002403086608414501  0.9994510087967027  1.0000
  Al  Al17      1.0  0.007433358697427465  0.008236420249314742  0.9993232603289428  1.0000
  Al  Al18      1.0  0.004100024931555009  0.006569753613986102  0.999578756932648  1.0000
  Ni  Ni1       1.0  0.009230699758331741  0.0017577395817969836  0.9999031359538326  1.0000
  Ni  Ni2       1.0  0.005897365992459286  0.0075910730280744805  0.9997753877374743  1.0000
  Ni  Ni3       1.0  0.002564032875395514  0.005924406389456374  3.088434125150096e-05  1.0000
  Ni  Ni4       1.0  0.00909835576308206  0.007822673658333954  0.9997703154682345  1.0000
  Ni  Ni5       1.0  0.005765022862287848  0.006156007018619359  2.581266246561088e-05  1.0000
  Ni  Ni6       1.0  0.002431689745224076  0.001989340304224125  0.9998980642328135  1.0000
  Ni  Ni7       1.0  0.009230699758331741  0.00925773966340312  0.9995198908385543  1.0000
  Ni  Ni8       1.0  0.005897365992459286  0.005091073098022598  0.999392142704796  1.0000
  Ni  Ni9       1.0  0.002564032875395514  0.0034244061679540015  0.9996476393070712  1.0000
  Ni  Ni10      1.0  0.00909835576308206  0.005322673728282071  0.9993870707307712  1.0000
  Ni  Ni11      1.0  0.005765022862287848  0.003656007088567476  0.9996425673345724  1.0000
  Ni  Ni12      1.0  0.002431689745224076  0.009489340240105016  0.9995148188215691  1.0000
