data_image0
_chemical_formula_structural       COIr8V24
_chemical_formula_sum              "C1 O1 Ir8 V24"
_cell_length_a       6.773640155792236
_cell_length_b       8.295980952595636
_cell_length_c       101.4080810546875
_cell_angle_alpha    95.05115263739744
_cell_angle_beta     90.0
_cell_angle_gamma    90.0

_space_group_name_H-M_alt    "P 1"
_space_group_IT_number       1

loop_
  _space_group_symop_operation_xyz
  'x, y, z'

loop_
  _atom_site_type_symbol
  _atom_site_label
  _atom_site_symmetry_multiplicity
  _atom_site_fract_x
  _atom_site_fract_y
  _atom_site_fract_z
  _atom_site_occupancy
  C   C1        1.0  0.0025429039078613534  0.003276279471171645  6.638035752119327e-05  1.0000
  O   O1        1.0  0.0025429039078613534  0.003276279471171645  0.00018471377423952102  1.0000
  Ir  Ir1       1.0  1.0154099582722552e-05  0.005256978223861144  0.9996070413904126  1.0000
  Ir  Ir2       1.0  0.005016328615698603  0.0021328979425018556  0.9997976433268957  1.0000
  Ir  Ir3       1.0  3.053619972258983e-05  0.00903527679706513  0.9999813301187885  1.0000
  Ir  Ir4       1.0  0.005010154116726279  0.008381978133701489  0.9994134666708354  1.0000
  Ir  Ir5       1.0  0.009989845465297484  0.004035032698815166  0.9999813300621965  1.0000
  Ir  Ir6       1.0  0.005010154116726279  0.003381978368116592  0.999413466610808  1.0000
  Ir  Ir7       1.0  1.0154099582722552e-05  0.0002569782610520013  0.9996070416228496  1.0000
  Ir  Ir8       1.0  0.005003980167722689  0.0071328224247748226  0.9997976440202141  1.0000
  V   V1        1.0  0.008760154424708769  0.007600728494340109  0.9994618602796936  1.0000
  V   V2        1.0  0.0037601541057269046  0.004475728133701488  0.9996554352899089  1.0000
  V   V3        1.0  0.008725795128076015  0.0012920972875114366  0.9998508185852398  1.0000
  V   V4        1.0  0.003643688326946187  0.008194539817331058  2.3014928999502007e-05  1.0000
  V   V5        1.0  0.00626015440271002  0.006038228314020799  0.9995586477848013  1.0000
  V   V6        1.0  0.001270552480066845  0.0029021628843224796  0.9997484727649141  1.0000
  V   V7        1.0  0.006112609340823843  0.009743021974490097  0.9999443605551295  1.0000
  V   V8        1.0  0.0012601540837281551  0.00916322867465942  0.9993650730684712  1.0000
  V   V9        1.0  0.0025101540947275298  0.005881978476308177  0.9994134666424452  1.0000
  V   V10       1.0  0.007510154138725029  0.002756978341068695  0.9996070413603988  1.0000
  V   V11       1.0  0.0025298990722018664  0.009690115387336265  0.9997962981115127  1.0000
  V   V12       1.0  0.007570023735066633  0.006630057927794724  0.9999918990700709  1.0000
  V   V13       1.0  0.0025101540947275298  0.007756978782851005  0.9996070414252968  1.0000
  V   V14       1.0  0.007490386612532613  0.0046901210313306674  0.9997963010293001  1.0000
  V   V15       1.0  0.0024503953170857493  0.0016299690168509406  0.9999919042456505  1.0000
  V   V16       1.0  0.007510154138725029  0.0008819782599250056  0.9994134665791707  1.0000
  V   V17       1.0  0.008760154424708769  0.0041632284582762465  0.9993650730051967  1.0000
  V   V18       1.0  0.0037601541057269046  0.0010382283230367642  0.9995586477231504  1.0000
  V   V19       1.0  0.008749801813267153  0.007902223282275368  0.9997484747310886  1.0000
  V   V20       1.0  0.003907764063923649  0.004743089828646454  0.9999443662720838  1.0000
  V   V21       1.0  0.0012601540837281551  0.0026007282779569366  0.9994618605103044  1.0000
  V   V22       1.0  0.00626015440271002  0.00947572835008466  0.9996554350592982  1.0000
  V   V23       1.0  0.001294451371386195  0.006292191382635383  0.9998508216757832  1.0000
  V   V24       1.0  0.006376824769859644  0.0031945265277979096  2.300948163050347e-05  1.0000
