data_image0
_chemical_formula_structural       COAl6Cu18
_chemical_formula_sum              "C1 O1 Al6 Cu18"
_cell_length_a       5.918108940124512
_cell_length_b       7.248173609804805
_cell_length_c       101.8699951171875
_cell_angle_alpha    94.34775331221125
_cell_angle_beta     90.0
_cell_angle_gamma    114.09484242113093

_space_group_name_H-M_alt    "P 1"
_space_group_IT_number       1

loop_
  _space_group_symop_operation_xyz
  'x, y, z'

loop_
  _atom_site_type_symbol
  _atom_site_label
  _atom_site_symmetry_multiplicity
  _atom_site_fract_x
  _atom_site_fract_y
  _atom_site_fract_z
  _atom_site_occupancy
  C   C1        1.0  0.005794408082210855  0.00859821817334931  0.00015468020954243687  1.0000
  O   O1        1.0  0.005794408082210855  0.00859821817334931  0.0002724776464117592  1.0000
  Al  Al1       1.0  0.002009794564592448  0.003598804114394494  0.9997653773459849  1.0000
  Al  Al2       1.0  0.00784732149117516  0.005271044558059435  0.9994987251167888  1.0000
  Al  Al3       1.0  0.006160513552369268  0.0019028918773619787  1.0264122012209206e-05  1.0000
  Al  Al4       1.0  0.004930654538833201  0.009437711262390727  0.9996290789781316  1.0000
  Al  Al5       1.0  0.0007639879681676649  0.0011043779243493162  0.9993683709632745  1.0000
  Al  Al6       1.0  0.009111930912191946  0.007800968409949449  0.9999027962010381  1.0000
  Cu  Cu1       1.0  0.0028473212260096224  0.005271044558059435  0.9994987251167888  1.0000
  Cu  Cu2       1.0  0.0011759971412956358  0.0019180495821468373  4.979298884806381e-06  1.0000
  Cu  Cu3       1.0  0.006987360036154251  0.0035549689875199074  0.9997559254971309  1.0000
  Cu  Cu4       1.0  0.0038889879997247587  0.0023543779780214073  0.9995639022262829  1.0000
  Cu  Cu5       1.0  0.00972232177170226  0.004021044716250862  0.9993031941474756  1.0000
  Cu  Cu6       1.0  0.00798099726410479  0.0005644332257896789  0.999822872558416  1.0000
  Cu  Cu7       1.0  0.008888988402587535  0.0023543779780214073  0.9995639022262829  1.0000
  Cu  Cu8       1.0  0.004722321368839486  0.004021044716250862  0.9993031941474756  1.0000
  Cu  Cu9       1.0  0.0030044875863509176  0.0005622887079483797  0.9998226222681281  1.0000
  Cu  Cu10      1.0  0.0057639881743201  0.0011043779243493162  0.9993683709632745  1.0000
  Cu  Cu11      1.0  0.00409355007523288  0.007770561757824581  0.9998991496437483  1.0000
  Cu  Cu12      1.0  0.009930654528604263  0.009437711262390727  0.9996290789781316  1.0000
  Cu  Cu13      1.0  0.006805654721005133  0.008187711420582154  0.9994335480088183  1.0000
  Cu  Cu14      1.0  0.005210160141747247  0.004857258723000701  0.9999578666133703  1.0000
  Cu  Cu15      1.0  0.0009723214050065177  0.00652104496483739  0.9996942560891494  1.0000
  Cu  Cu16      1.0  0.0018056546328789004  0.008187711420582154  0.9994335480088183  1.0000
  Cu  Cu17      1.0  6.934546143496178e-05  0.004855555905284158  0.9999581084384905  1.0000
  Cu  Cu18      1.0  0.005972321493132749  0.00652104496483739  0.9996942560891494  1.0000
