data_image0
_chemical_formula_structural       COAl6Ti6
_chemical_formula_sum              "C1 O1 Al6 Ti6"
_cell_length_a       4.9778698092117715
_cell_length_b       5.731185010985971
_cell_length_c       99.14404296875
_cell_angle_alpha    92.37191420192254
_cell_angle_beta     90.45600608777355
_cell_angle_gamma    107.63848145270721

_space_group_name_H-M_alt    "P 1"
_space_group_IT_number       1

loop_
  _space_group_symop_operation_xyz
  'x, y, z'

loop_
  _atom_site_type_symbol
  _atom_site_label
  _atom_site_symmetry_multiplicity
  _atom_site_fract_x
  _atom_site_fract_y
  _atom_site_fract_z
  _atom_site_occupancy
  C   C1        1.0  0.0005424917706574453  0.009015170575362195  0.00013451828200374677  1.0000
  O   O1        1.0  0.0005424917706574453  0.009015170575362195  0.000255554543582039  1.0000
  Al  Al1       1.0  0.004040842124584001  0.004375000273116349  0.9996547533435803  1.0000
  Al  Al2       1.0  0.00487417524557541  0.0068750001365581745  0.999409789307121  1.0000
  Al  Al3       1.0  0.009457508474322944  0.0006250000085348859  0.9995322712652412  1.0000
  Al  Al4       1.0  0.007685481646044561  0.005802140396442583  1.5974465616987993e-05  1.0000
  Al  Al5       1.0  0.008606026739404903  0.008153758878466283  0.9997754216782163  1.0000
  Al  Al6       1.0  0.003242255344611696  0.0019363938924411006  0.9999032805893966  1.0000
  Ti  Ti1       1.0  0.009457508752435173  0.0056250002048372615  0.9995322712387683  1.0000
  Ti  Ti2       1.0  0.00404084195809611  0.009375  0.9996547533158068  1.0000
  Ti  Ti3       1.0  0.004874175386374495  0.0018750000682790872  0.9994097893340675  1.0000
  Ti  Ti4       1.0  0.0031403623864771487  0.006940100149580362  0.9999011421350167  1.0000
  Ti  Ti5       1.0  0.007882020245052747  0.000789363262551772  5.038074535830538e-06  1.0000
  Ti  Ti6       1.0  0.008645551472973677  0.003196531561653066  0.9997771765739605  1.0000
