data_image0
_chemical_formula_structural       HCo2As2Co2As2Co2As2Co2As2Co2As2Co2As2Co2As2Co2As2
_chemical_formula_sum              "H1 Co16 As16"
_cell_length_a       7.166479587554932
_cell_length_b       7.16647983512821
_cell_length_c       100.40132904052734
_cell_angle_alpha    90.0
_cell_angle_beta     90.0
_cell_angle_gamma    119.99999885722723

_space_group_name_H-M_alt    "P 1"
_space_group_IT_number       1

loop_
  _space_group_symop_operation_xyz
  'x, y, z'

loop_
  _atom_site_type_symbol
  _atom_site_label
  _atom_site_symmetry_multiplicity
  _atom_site_fract_x
  _atom_site_fract_y
  _atom_site_fract_z
  _atom_site_occupancy
  H   H1        1.0  0.0016666719905769868  0.00333333288115392  7.324387758692132e-05  1.0000
  Co  Co1       1.0  2.9000000564452862e-09  1.9999999963998897e-09  0.9992511882705425  1.0000
  Co  Co2       1.0  2.9000000564452862e-09  1.9999999963998897e-09  0.99950351976916  1.0000
  As  As1       1.0  0.0033333361443174813  0.0016666686914700568  0.9993773540198512  1.0000
  As  As2       1.0  0.001666669591053345  0.0033333352821065566  0.9991250222244018  1.0000
  Co  Co3       1.0  0.009999997089327032  8.899999454480173e-09  0.9997514311431942  1.0000
  Co  Co4       1.0  8.269925307514782e-09  0.00999999774310452  0.0  1.0000
  As  As3       1.0  0.0033333358441984015  0.0016666680912318975  0.9999010629423936  1.0000
  As  As4       1.0  0.001666669591053345  0.0033333352821065566  0.9996296855184686  1.0000
  Co  Co5       1.0  2.7765397022470447e-09  0.005000001872743056  0.9992511882705425  1.0000
  Co  Co6       1.0  2.7765397022470447e-09  0.005000001872743056  0.99950351976916  1.0000
  As  As5       1.0  0.0033333359316302887  0.006666668163260477  0.9993773540198512  1.0000
  As  As6       1.0  0.0016666693671762022  0.008333335054016056  0.9991250222244018  1.0000
  Co  Co7       1.0  0.00999999704786111  0.005000008775481886  0.9997514311431942  1.0000
  Co  Co8       1.0  7.953207398335785e-09  0.004999997671075942  0.0  1.0000
  As  As7       1.0  0.0033333356315112094  0.006666667563022317  0.9999010629423936  1.0000
  As  As8       1.0  0.0016666693671762022  0.008333335054016056  0.9996296855184686  1.0000
  Co  Co9       1.0  0.00500000303770035  1.9999999963998897e-09  0.9992511882705425  1.0000
  Co  Co10      1.0  0.00500000303770035  1.9999999963998897e-09  0.99950351976916  1.0000
  As  As9       1.0  0.008333336362642519  0.0016666686914700568  0.9993773540198512  1.0000
  As  As10      1.0  0.00666666967875363  0.0033333352821065566  0.9991250222244018  1.0000
  Co  Co11      1.0  0.004999997130912754  8.899999454480173e-09  0.9997514311431942  1.0000
  Co  Co12      1.0  0.005000008071552752  0.00999999774310452  0.0  1.0000
  As  As11      1.0  0.00833333606252344  0.0016666680912318975  0.9999010629423936  1.0000
  As  As12      1.0  0.00666666967875363  0.0033333352821065566  0.9996296855184686  1.0000
  Co  Co13      1.0  0.00500000273495398  0.005000001872743056  0.9992511882705425  1.0000
  Co  Co14      1.0  0.00500000273495398  0.005000001872743056  0.99950351976916  1.0000
  As  As13      1.0  0.008333336119330589  0.006666668163260477  0.9993773540198512  1.0000
  As  As14      1.0  0.0066666695855012404  0.008333335054016056  0.9991250222244018  1.0000
  Co  Co15      1.0  0.004999997089446829  0.005000008775481886  0.9997514311431942  1.0000
  Co  Co16      1.0  0.005000008171532437  0.004999997671075942  0.0  1.0000
  As  As15      1.0  0.00833333581921151  0.006666667563022317  0.9999010629423936  1.0000
  As  As16      1.0  0.0066666695855012404  0.008333335054016056  0.9996296855184686  1.0000
