data_image0
_chemical_formula_structural       COCa3Ge6Ca3Ge6Ca3Ge6Ca3Ge6
_chemical_formula_sum              "C1 O1 Ca12 Ge24"
_cell_length_a       8.22731692469224
_cell_length_b       9.642360172869367
_cell_length_c       108.98086547851562
_cell_angle_alpha    97.85184905775547
_cell_angle_beta     108.45686407907205
_cell_angle_gamma    64.74652366855908

_space_group_name_H-M_alt    "P 1"
_space_group_IT_number       1

loop_
  _space_group_symop_operation_xyz
  'x, y, z'

loop_
  _atom_site_type_symbol
  _atom_site_label
  _atom_site_symmetry_multiplicity
  _atom_site_fract_x
  _atom_site_fract_y
  _atom_site_fract_z
  _atom_site_occupancy
  C   C1        1.0  0.0031718051088982235  0.009974974140026712  0.00022095009522503167  1.0000
  O   O1        1.0  0.0031718051088982235  0.009974974140026712  0.00033106139105669067  1.0000
  Ca  Ca1       1.0  2.904787419529173e-05  0.006691692697508793  0.999080684857525  1.0000
  Ca  Ca2       1.0  2.904780002317249e-05  2.5026000539605497e-05  0.9994781131645518  1.0000
  Ca  Ca3       1.0  2.9047770978181208e-05  0.0033583592872844827  0.9992793988719797  1.0000
  Ge  Ge1       1.0  0.0016957144203302251  0.006490753508060252  0.9994541550268836  1.0000
  Ge  Ge2       1.0  0.0016957147495413596  0.009824086704698516  0.9992554412887125  1.0000
  Ge  Ge3       1.0  0.001695714568468123  0.0031574203114219886  0.9990567269744973  1.0000
  Ge  Ge4       1.0  0.0033623809270871712  0.006892631886957333  0.9993033563930409  1.0000
  Ge  Ge5       1.0  0.003362381184669887  0.00022596509320696857  0.9991046423579331  1.0000
  Ge  Ge6       1.0  0.003362381181881835  0.0035592984767330227  0.9995020704160522  1.0000
  Ca  Ca4       1.0  2.904787419529173e-05  0.006691692697508793  0.9996768269329551  1.0000
  Ca  Ca5       1.0  0.009970952098432908  0.009971392729200177  5.33998909360139e-05  1.0000
  Ca  Ca6       1.0  4.5878981666530274e-05  0.0034065991909729637  0.99988551861188  1.0000
  Ge  Ge7       1.0  0.001825476952782575  0.00632455579775188  6.20013989705025e-05  1.0000
  Ge  Ge8       1.0  0.0017037309593100564  0.009769623117203119  0.999846697746506  1.0000
  Ge  Ge9       1.0  0.001695714568468123  0.0031574203114219886  0.9996528693233913  1.0000
  Ge  Ge10      1.0  0.0034020856832112805  0.006884640778616211  0.9999087418039576  1.0000
  Ge  Ge11      1.0  0.003362381184669887  0.00022596509320696857  0.999700784706827  1.0000
  Ge  Ge12      1.0  0.003494733949703102  0.003522115922668209  0.00012609787535630988  1.0000
  Ca  Ca7       1.0  0.005029048189245653  0.006691692697508793  0.9990806847775464  1.0000
  Ca  Ca8       1.0  0.005029047682475973  2.5026000539605497e-05  0.9994781128007701  1.0000
  Ca  Ca9       1.0  0.005029047966691284  0.0033583592872844827  0.999279398789149  1.0000
  Ge  Ge13      1.0  0.006695714974055102  0.006490753508060252  0.9994541552260733  1.0000
  Ge  Ge14      1.0  0.006695714825917205  0.009824086704698516  0.9992554412030294  1.0000
  Ge  Ge15      1.0  0.006695714167494936  0.0031574203114219886  0.9990567271508692  1.0000
  Ge  Ge16      1.0  0.008362381480812048  0.006892631886957333  0.9993033565922306  1.0000
  Ge  Ge17      1.0  0.008362381022371216  0.00022596509320696857  0.9991046422665456  1.0000
  Ge  Ge18      1.0  0.008362380780908648  0.0035592984767330227  0.9995020705924241  1.0000
  Ca  Ca10      1.0  0.005029048189245653  0.006691692697508793  0.9996768271264405  1.0000
  Ca  Ca11      1.0  0.004970952022057063  0.009971392729200177  5.3400250082822733e-05  1.0000
  Ca  Ca12      1.0  0.005045879058042375  0.0034065991909729637  0.9998855187996608  1.0000
  Ge  Ge19      1.0  0.006825477506507452  0.00632455579775188  6.200159816016282e-05  1.0000
  Ge  Ge20      1.0  0.006703731035685901  0.009769623117203119  0.9998466979342868  1.0000
  Ge  Ge21      1.0  0.006695714167494936  0.0031574203114219886  0.9996528694997632  1.0000
  Ge  Ge22      1.0  0.008402086236936158  0.006884640778616211  0.9999087420031473  1.0000
  Ge  Ge23      1.0  0.008362381022371216  0.00022596509320696857  0.9997007848889033  1.0000
  Ge  Ge24      1.0  0.008494734026078947  0.003522115922668209  0.00012609806313711554  1.0000
