data_image0
_chemical_formula_structural       COCo2Cu4Se8Sn2
_chemical_formula_sum              "C1 O1 Co2 Cu4 Se8 Sn2"
_cell_length_a       6.981043363269093
_cell_length_b       6.981043338775635
_cell_length_c       102.55012512207031
_cell_angle_alpha    90.0
_cell_angle_beta     90.0
_cell_angle_gamma    108.70023439802249

_space_group_name_H-M_alt    "P 1"
_space_group_IT_number       1

loop_
  _space_group_symop_operation_xyz
  'x, y, z'

loop_
  _atom_site_type_symbol
  _atom_site_label
  _atom_site_symmetry_multiplicity
  _atom_site_fract_x
  _atom_site_fract_y
  _atom_site_fract_z
  _atom_site_occupancy
  C   C1        1.0  0.005643114587654008  0.0006970443333360845  0.00010535100844774932  1.0000
  O   O1        1.0  0.005643114587654008  0.0006970443333360845  0.0002223671925275919  1.0000
  Co  Co1       1.0  0.005968125195241628  0.002776676792384507  0.9997771620156307  1.0000
  Co  Co2       1.0  0.0010713956166776228  0.007676745293729222  0.9993815158172109  1.0000
  Cu  Cu1       1.0  0.006542916750916824  0.007414541107850319  0.9999206564628444  1.0000
  Cu  Cu2       1.0  0.0010713956166776228  0.002676745165658156  0.9995798950029573  1.0000
  Cu  Cu3       1.0  0.0013021868995824171  0.0021849746635594844  0.9999211749150947  1.0000
  Cu  Cu4       1.0  0.006071395487102442  0.007676745358911124  0.9995798950029573  1.0000
  Se  Se1       1.0  0.00011537944455487504  0.004071177054215827  0.9993815158172109  1.0000
  Se  Se2       1.0  0.005173811876272406  0.009302955531395637  0.9997737339535541  1.0000
  Se  Se3       1.0  0.009884620085030884  0.00884208118102077  0.0  1.0000
  Se  Se4       1.0  0.0047466194083374625  0.004001521161242393  0.9995972895990574  1.0000
  Se  Se5       1.0  0.009746619137919695  0.009001521042524128  0.9995625006974694  1.0000
  Se  Se6       1.0  0.004743312424391192  0.003979547414741898  0.9999522500827663  1.0000
  Se  Se7       1.0  0.004676963735066449  0.00863276133788846  0.9993815158172109  1.0000
  Se  Se8       1.0  0.00944447178918923  0.00358443825903608  0.999774304716009  1.0000
  Sn  Sn1       1.0  0.006071395487102442  0.002676745230840057  0.9993815158172109  1.0000
  Sn  Sn2       1.0  0.0011023502117452242  0.007658414179777029  0.9997826848107905  1.0000
