data_image0
_chemical_formula_structural       HOs6V18
_chemical_formula_sum              "H1 Os6 V18"
_cell_length_a       6.002059459686279
_cell_length_b       7.350991672035324
_cell_length_c       102.32208251953125
_cell_angle_alpha    94.34775332109544
_cell_angle_beta     90.0
_cell_angle_gamma    114.09484209549206

_space_group_name_H-M_alt    "P 1"
_space_group_IT_number       1

loop_
  _space_group_symop_operation_xyz
  'x, y, z'

loop_
  _atom_site_type_symbol
  _atom_site_label
  _atom_site_symmetry_multiplicity
  _atom_site_fract_x
  _atom_site_fract_y
  _atom_site_fract_z
  _atom_site_occupancy
  H   H1        1.0  0.008824288068511514  0.0071900855047306676  9.914845792413362e-05  1.0000
  Os  Os1       1.0  0.0020110733314425318  0.0035652772606213725  0.9997707491809014  1.0000
  Os  Os2       1.0  0.007838164192083724  0.005217978022995876  0.9995055107216173  1.0000
  Os  Os3       1.0  0.006227227241955168  0.001991790475440165  1.0847898280794484e-05  1.0000
  Os  Os4       1.0  0.004921497296954718  0.00938464439256005  0.9996371296275911  1.0000
  Os  Os5       1.0  0.0007548307806531366  0.0010513111659979247  0.9993738915217291  1.0000
  Os  Os6       1.0  0.009055788256373473  0.007652568242778751  0.9998972622275069  1.0000
  V   V1        1.0  0.005139548310730962  0.004758788109009899  0.9999606726746548  1.0000
  V   V2        1.0  0.0009631640423116019  0.006467977711038258  0.9997029391948974  1.0000
  V   V3        1.0  0.0067964974831911254  0.008134644704517666  0.999439701154311  1.0000
  V   V4        1.0  0.004713164019875452  0.003967977777886319  0.9993080819540434  1.0000
  V   V5        1.0  0.0030165529768761664  0.0006154212828743611  0.9998340359680992  1.0000
  V   V6        1.0  0.008879830831342927  0.0023013112022072907  0.9995713202881652  1.0000
  V   V7        1.0  0.007030001444853309  0.0036025016032838904  0.9997683562075439  1.0000
  V   V8        1.0  0.00283816417036032  0.005217978022995876  0.9995055107216173  1.0000
  V   V9        1.0  0.0009321748656927388  0.001407073829930761  1.3100010949300267e-05  1.0000
  V   V10       1.0  0.00971316411918244  0.003967977777886319  0.9993080819540434  1.0000
  V   V11       1.0  0.00805698370291908  0.0006153554096811038  0.9998340082309004  1.0000
  V   V12       1.0  0.003879830732035937  0.0023013112022072907  0.9995713202881652  1.0000
  V   V13       1.0  7.850266307226161e-05  0.0047591195639780865  0.9999606849652171  1.0000
  V   V14       1.0  0.005963163986451422  0.006467977711038258  0.9997029391948974  1.0000
  V   V15       1.0  0.0017964973838841365  0.008134644704517666  0.999439701154311  1.0000
  V   V16       1.0  0.00992149737686581  0.00938464439256005  0.9996371296275911  1.0000
  V   V17       1.0  0.005754830763584749  0.0010513111659979247  0.9993738915217291  1.0000
  V   V18       1.0  0.004091297845308797  0.007723428301372592  0.9999136919148672  1.0000
