data_image0
_chemical_formula_structural       COSi2Ag2Pt10Si2Ag2Pt10
_chemical_formula_sum              "C1 O1 Si4 Ag4 Pt20"
_cell_length_a       8.19758606299636
_cell_length_b       5.642419815063477
_cell_length_c       103.8545150756836
_cell_angle_alpha    90.0
_cell_angle_beta     69.87000336792929
_cell_angle_gamma    69.87000336792929

_space_group_name_H-M_alt    "P 1"
_space_group_IT_number       1

loop_
  _space_group_symop_operation_xyz
  'x, y, z'

loop_
  _atom_site_type_symbol
  _atom_site_label
  _atom_site_symmetry_multiplicity
  _atom_site_fract_x
  _atom_site_fract_y
  _atom_site_fract_z
  _atom_site_occupancy
  C   C1        1.0  0.003559778901641729  0.004702219008758151  0.9997877520509477  1.0000
  O   O1        1.0  0.003559778901641729  0.004702219008758151  0.9999032985373951  1.0000
  Si  Si1       1.0  0.0064821088919600174  0.000741053907962335  0.9996890227769586  1.0000
  Si  Si2       1.0  0.0064821088919600174  0.005741053459006482  0.9994173722854112  1.0000
  Ag  Ag1       1.0  0.0014821086058451171  0.0032410540510197853  0.9995531973897368  1.0000
  Ag  Ag2       1.0  0.0014821086058451171  0.008241053602063932  0.9992815474721138  1.0000
  Pt  Pt1       1.0  0.004446325947587579  0.0042589454857852255  0.9996084999011433  1.0000
  Pt  Pt2       1.0  0.004446325947587579  0.009258945036829372  0.9993368494095959  1.0000
  Pt  Pt3       1.0  0.008517891316123545  0.002223162801517242  0.9994978957492824  1.0000
  Pt  Pt4       1.0  0.008517891316123545  0.007223162352561389  0.9997695456669053  1.0000
  Pt  Pt5       1.0  0.004446325947587579  0.009258945036829372  0.9996084999011433  1.0000
  Pt  Pt6       1.0  0.004446325947587579  0.0042589454857852255  0.9993368494095959  1.0000
  Pt  Pt7       1.0  0.008517891316123545  0.007223162352561389  0.9994978957492824  1.0000
  Pt  Pt8       1.0  0.008517891316123545  0.002223162801517242  0.9997695456669053  1.0000
  Pt  Pt9       1.0  0.0014821086058451171  0.0032410540510197853  0.9992815474721138  1.0000
  Pt  Pt10      1.0  0.0014821086058451171  0.008241053602063932  0.9995531973897368  1.0000
  Si  Si3       1.0  0.0064821088919600174  0.000741053907962335  0.9991457223677881  1.0000
  Si  Si4       1.0  0.0064821088919600174  0.005741053459006482  0.9988740721632029  1.0000
  Ag  Ag3       1.0  0.0014821086058451171  0.0032410540510197853  0.9990098972675285  1.0000
  Ag  Ag4       1.0  0.0014821086058451171  0.008241053602063932  0.9987382470629433  1.0000
  Pt  Pt11      1.0  0.004446325947587579  0.0042589454857852255  0.9990651994919728  1.0000
  Pt  Pt12      1.0  0.004446325947587579  0.009258945036829372  0.9987935490004254  1.0000
  Pt  Pt13      1.0  0.008517891316123545  0.002223162801517242  0.9989545953401119  1.0000
  Pt  Pt14      1.0  0.008517891316123545  0.007223162352561389  0.9992262452577348  1.0000
  Pt  Pt15      1.0  0.004446325947587579  0.009258945036829372  0.9990651994919728  1.0000
  Pt  Pt16      1.0  0.004446325947587579  0.0042589454857852255  0.9987935490004254  1.0000
  Pt  Pt17      1.0  0.008517891316123545  0.007223162352561389  0.9989545953401119  1.0000
  Pt  Pt18      1.0  0.008517891316123545  0.002223162801517242  0.9992262452577348  1.0000
  Pt  Pt19      1.0  0.0014821086058451171  0.0032410540510197853  0.9987382470629433  1.0000
  Pt  Pt20      1.0  0.0014821086058451171  0.008241053602063932  0.9990098972675285  1.0000
