data_image0
_chemical_formula_structural       HTi6Pb2Ti6Pb2
_chemical_formula_sum              "H1 Ti12 Pb4"
_cell_length_a       6.02600638485424
_cell_length_b       4.832700252532959
_cell_length_c       106.15603637695312
_cell_angle_alpha    90.0
_cell_angle_beta     119.99999910475664
_cell_angle_gamma    90.0

_space_group_name_H-M_alt    "P 1"
_space_group_IT_number       1

loop_
  _space_group_symop_operation_xyz
  'x, y, z'

loop_
  _atom_site_type_symbol
  _atom_site_label
  _atom_site_symmetry_multiplicity
  _atom_site_fract_x
  _atom_site_fract_y
  _atom_site_fract_z
  _atom_site_occupancy
  H   H1        1.0  0.0012208072115597228  0.007500000215838192  0.00032448886708184627  1.0000
  Ti  Ti1       1.0  0.0035932761255255447  0.002500000200421178  0.9995161868249955  1.0000
  Ti  Ti2       1.0  0.008779192792009468  0.002500000200421178  0.9992429124415605  1.0000
  Ti  Ti3       1.0  0.008779192792009468  0.002500000200421178  0.9995161865841486  1.0000
  Ti  Ti4       1.0  0.007174497662219259  0.007500000215838192  0.9993340038087845  1.0000
  Ti  Ti5       1.0  0.0019885817095737215  0.007500000215838192  0.9996072782124802  1.0000
  Ti  Ti6       1.0  0.0019885817095737215  0.007500000215838192  0.999334004069892  1.0000
  Pb  Pb1       1.0  0.007050553903181494  0.007500000215838192  0.9996143139692898  1.0000
  Pb  Pb2       1.0  0.0037172205984016965  0.002500000200421178  0.9992358766847509  1.0000
  Ti  Ti7       1.0  0.003571515833072468  0.002499999236857822  7.775924275759343e-05  1.0000
  Ti  Ti8       1.0  0.008779192792009468  0.002500000200421178  0.9998105682179846  1.0000
  Ti  Ti9       1.0  0.008693986186850316  0.0025000007785591916  7.775411776791617e-05  1.0000
  Ti  Ti10      1.0  0.007164643837132827  0.007500000215838192  0.999905617406759  1.0000
  Ti  Ti11      1.0  0.0018589174281666144  0.007500000215838192  0.00016020913573861024  1.0000
  Ti  Ti12      1.0  0.002068103841202048  0.007499999444987507  0.9999056212821755  1.0000
  Pb  Pb3       1.0  0.007263748875675988  0.007500000215838192  0.0002061653647409083  1.0000
  Pb  Pb4       1.0  0.0037172205984016965  0.002500000200421178  0.9998035324611749  1.0000
