data_image0
_chemical_formula_structural       COPt12Si6Pt12Si6
_chemical_formula_sum              "C1 O1 Pt24 Si12"
_cell_length_a       8.252244868526196
_cell_length_b       6.999305481847124
_cell_length_c       100.86031341552734
_cell_angle_alpha    88.70947388908618
_cell_angle_beta     88.59300511299517
_cell_angle_gamma    76.07675578020218

_space_group_name_H-M_alt    "P 1"
_space_group_IT_number       1

loop_
  _space_group_symop_operation_xyz
  'x, y, z'

loop_
  _atom_site_type_symbol
  _atom_site_label
  _atom_site_symmetry_multiplicity
  _atom_site_fract_x
  _atom_site_fract_y
  _atom_site_fract_z
  _atom_site_occupancy
  C   C1        1.0  0.0043743115746014355  0.0013252222662564058  0.0001334431659694844  1.0000
  O   O1        1.0  0.0043743115746014355  0.0013252222662564058  0.00025241924593279446  1.0000
  Pt  Pt1       1.0  0.0007840983238891305  0.006052745706357054  0.9999099400167042  1.0000
  Pt  Pt2       1.0  0.004582374641620415  0.0013311591427150502  0.9997313435291673  1.0000
  Pt  Pt3       1.0  0.0032456155781566656  0.0067663297109786654  0.9995657501288362  1.0000
  Pt  Pt4       1.0  0.0038850928262815923  0.003115202926734294  0.9999772808325825  1.0000
  Pt  Pt5       1.0  0.002679611928205667  0.00868939835700275  0.9998299520284322  1.0000
  Pt  Pt6       1.0  0.0014400597580937202  0.003988552128197716  0.999650742341364  1.0000
  Pt  Pt7       1.0  0.0018567265041452953  0.0023218856333720034  0.999395766580134  1.0000
  Pt  Pt8       1.0  0.00046783748330693313  0.007877441073148193  0.9992257828208103  1.0000
  Pt  Pt9       1.0  0.004078948618696167  0.0034329967213272412  0.9990557989027645  1.0000
  Pt  Pt10      1.0  5.1171018906144915e-05  0.009544107293759615  0.9994807582864218  1.0000
  Pt  Pt11      1.0  0.003662281816775629  0.005099663490367242  0.9993107746636782  1.0000
  Pt  Pt12      1.0  0.002273393094251248  0.0006552187957784302  0.999140790819753  1.0000
  Si  Si1       1.0  0.002342837542615017  0.00037744109234319294  0.999608245897495  1.0000
  Si  Si2       1.0  0.009948829052360155  0.009622558904914664  0.9999459958429521  1.0000
  Si  Si3       1.0  0.0035944002285042175  0.005067310591723021  0.9997832368230513  1.0000
  Si  Si4       1.0  0.0031761708481421102  0.007044107688628192  0.9990982947557503  1.0000
  Si  Si5       1.0  0.0009539486777222774  0.005932996874887243  0.9994382624328034  1.0000
  Si  Si6       1.0  0.004565059643198647  0.0014885522488520028  0.9992682785155276  1.0000
  Pt  Pt13      1.0  0.005784098477420772  0.006052745706357054  0.9999099396470443  1.0000
  Pt  Pt14      1.0  0.00958237456937023  0.0013311591427150502  0.999731343159961  1.0000
  Pt  Pt15      1.0  0.008245615054342832  0.0067663297109786654  0.9995657503514993  1.0000
  Pt  Pt16      1.0  0.008885093205595058  0.003115202926734294  0.9999772810534314  1.0000
  Pt  Pt17      1.0  0.007679611855955483  0.00868939835700275  0.999829951659226  1.0000
  Pt  Pt18      1.0  0.006440059685843536  0.003988552128197716  0.9996507419721576  1.0000
  Pt  Pt19      1.0  0.006856726431895111  0.0023218856333720034  0.9993957665064088  1.0000
  Pt  Pt20      1.0  0.005467837636838575  0.007877441073148193  0.9992257827466315  1.0000
  Pt  Pt21      1.0  0.009078948546445982  0.0034329967213272412  0.9990557988290394  1.0000
  Pt  Pt22      1.0  0.005051170946655961  0.009544107293759615  0.9994807582126967  1.0000
  Pt  Pt23      1.0  0.008662282196089095  0.005099663490367242  0.9993107745890458  1.0000
  Pt  Pt24      1.0  0.007273393247782889  0.0006552187957784302  0.9991407907455743  1.0000
  Si  Si7       1.0  0.0073428374703648335  0.00037744109234319294  0.999608246119251  1.0000
  Si  Si8       1.0  0.0049488291246103395  0.009622558904914664  0.9999459962121584  1.0000
  Si  Si9       1.0  0.008594400156254034  0.005067310591723021  0.999783236453845  1.0000
  Si  Si10      1.0  0.008176171227455576  0.007044107688628192  0.9990982949765992  1.0000
  Si  Si11      1.0  0.005953948605472093  0.005932996874887243  0.9994382623590783  1.0000
  Si  Si12      1.0  0.009565059570948463  0.0014885522488520028  0.9992682787372836  1.0000
