data_image0
_chemical_formula_structural       COAl10W2Al10W2
_chemical_formula_sum              "C1 O1 Al20 W4"
_cell_length_a       4.935080143371215
_cell_length_b       10.186233010731511
_cell_length_c       30.519359588623047
_cell_angle_alpha    61.02124450293548
_cell_angle_beta     60.00000061633277
_cell_angle_gamma    75.9810593021344

_space_group_name_H-M_alt    "P 1"
_space_group_IT_number       1

loop_
  _space_group_symop_operation_xyz
  'x, y, z'

loop_
  _atom_site_type_symbol
  _atom_site_label
  _atom_site_symmetry_multiplicity
  _atom_site_fract_x
  _atom_site_fract_y
  _atom_site_fract_z
  _atom_site_occupancy
  C   C1        1.0  6.789349659904624e-05  0.009209963176521846  0.9986273611382817  1.0000
  O   O1        1.0  6.789349659904624e-05  0.009209963176521846  0.9990205544942132  1.0000
  Al  Al1       1.0  0.009941563902846225  0.007549269709689893  0.9973673445690338  1.0000
  Al  Al2       1.0  0.00015927109337728835  0.002427714228506554  0.9980391802858366  1.0000
  Al  Al3       1.0  0.0067027336144102195  0.007548758004935268  0.9967681279424477  1.0000
  Al  Al4       1.0  0.003369400089316914  0.0025487574865415627  0.997037633520333  1.0000
  Al  Al5       1.0  0.0037342587376721346  0.009903024624597339  0.9980011102198403  1.0000
  Al  Al6       1.0  0.0035233436875350605  0.0049409859936575895  0.9978007332308106  1.0000
  Al  Al7       1.0  0.009963932703601953  0.005094310547475124  0.9971738758517418  1.0000
  Al  Al8       1.0  0.009813187574556277  0.009951242764294101  0.9975974393381345  1.0000
  Al  Al9       1.0  0.006660880693025839  4.8757501696217645e-05  0.9969028807555953  1.0000
  Al  Al10      1.0  0.006660880693025839  0.005048757536708696  0.9966401431184929  1.0000
  W   W1        1.0  0.006670946784111351  0.0025805801711183507  0.9975493238806228  1.0000
  W   W2        1.0  0.003630578260982226  0.007673381524014886  0.9977619440190398  1.0000
  Al  Al11      1.0  3.606679915681292e-05  0.007548758004935268  0.9956901062746017  1.0000
  Al  Al12      1.0  3.606679915681292e-05  0.0025487574865415627  0.9964986226769127  1.0000
  Al  Al13      1.0  0.0067027336144102195  0.007548758004935268  0.9951510953835984  1.0000
  Al  Al14      1.0  0.003369400089316914  0.0025487574865415627  0.9954206009614837  1.0000
  Al  Al15      1.0  0.003411253010701294  4.8757501696217645e-05  0.9963571021771865  1.0000
  Al  Al16      1.0  0.003411253010701294  0.005048757536708696  0.9960943645400842  1.0000
  Al  Al17      1.0  3.606679915681292e-05  0.005048757536708696  0.9955485858225138  1.0000
  Al  Al18      1.0  3.606679915681292e-05  4.8757501696217645e-05  0.9958316269618993  1.0000
  Al  Al19      1.0  0.006660880693025839  4.8757501696217645e-05  0.9952858481967459  1.0000
  Al  Al20      1.0  0.006660880693025839  0.005048757536708696  0.9950231105596435  1.0000
  W   W3        1.0  0.0067027336144102195  0.0025487574865415627  0.9959596117859092  1.0000
  W   W4        1.0  0.003369400089316914  0.007548758004935268  0.9962291171180221  1.0000
