data_image0
_chemical_formula_structural       HV4Ir12V4Ir12
_chemical_formula_sum              "H1 V8 Ir24"
_cell_length_a       7.007186150849864
_cell_length_b       5.478969794204792
_cell_length_c       112.0431137084961
_cell_angle_alpha    66.98614771688288
_cell_angle_beta     77.12892560281341
_cell_angle_gamma    66.98614800823552

_space_group_name_H-M_alt    "P 1"
_space_group_IT_number       1

loop_
  _space_group_symop_operation_xyz
  'x, y, z'

loop_
  _atom_site_type_symbol
  _atom_site_label
  _atom_site_symmetry_multiplicity
  _atom_site_fract_x
  _atom_site_fract_y
  _atom_site_fract_z
  _atom_site_occupancy
  H   H1        1.0  0.0003012906618483138  0.004601331332113444  0.9999824271148887  1.0000
  V   V1        1.0  0.0021945285233889215  0.0016666665983308365  0.9996503171325499  1.0000
  V   V2        1.0  0.007194528818978508  0.0016666663002147543  0.9993376167161572  1.0000
  V   V3        1.0  0.008027861935932537  0.008333333410878397  0.9997024337550441  1.0000
  V   V4        1.0  0.0030278617852398057  0.00833333327316512  0.9993897331715685  1.0000
  Ir  Ir1       1.0  0.0005236809646811664  0.008350056855582757  0.999858522409005  1.0000
  Ir  Ir2       1.0  0.005523680861804399  0.008350057109617618  0.9995458219876073  1.0000
  Ir  Ir3       1.0  0.008036223643702368  0.003324971867955045  0.9997029569338999  1.0000
  Ir  Ir4       1.0  0.003036223493009638  0.003324971730241769  0.9993902563504243  1.0000
  Ir  Ir5       1.0  0.0005236809646811664  0.003324971823619475  0.9998585226353673  1.0000
  Ir  Ir6       1.0  0.005523680861804399  0.003324971708294457  0.9995458222210312  1.0000
  Ir  Ir7       1.0  0.00969870931351922  0.001649943236713324  0.999494228479524  1.0000
  Ir  Ir8       1.0  0.004698709452620203  0.0016499433354209728  0.9998069288936732  1.0000
  Ir  Ir9       1.0  0.0021861669605159452  0.00667502844414459  0.9996497939458849  1.0000
  Ir  Ir10      1.0  0.007186167111208676  0.006675028581857866  0.9993370935231786  1.0000
  Ir  Ir11      1.0  0.00969870931351922  0.006675028638036486  0.9994942282461001  1.0000
  Ir  Ir12      1.0  0.004698709452620203  0.006675028367384254  0.9998069286673108  1.0000
  V   V5        1.0  0.0021945285233889215  0.0016666665983308365  0.9990249161263681  1.0000
  V   V6        1.0  0.007194528818978508  0.0016666663002147543  0.9987122157099753  1.0000
  V   V7        1.0  0.008027861935932537  0.008333333410878397  0.9990770327488623  1.0000
  V   V8        1.0  0.0030278617852398057  0.00833333327316512  0.9987643326973663  1.0000
  Ir  Ir13      1.0  0.0005236809646811664  0.008350056855582757  0.999233121402823  1.0000
  Ir  Ir14      1.0  0.005523680861804399  0.008350057109617618  0.9989204209814254  1.0000
  Ir  Ir15      1.0  0.008036223643702368  0.003324971867955045  0.9990775559277181  1.0000
  Ir  Ir16      1.0  0.003036223493009638  0.003324971730241769  0.9987648553442425  1.0000
  Ir  Ir17      1.0  0.0005236809646811664  0.003324971823619475  0.9992331216291855  1.0000
  Ir  Ir18      1.0  0.005523680861804399  0.003324971708294457  0.9989204212148493  1.0000
  Ir  Ir19      1.0  0.00969870931351922  0.001649943236713324  0.998868827473342  1.0000
  Ir  Ir20      1.0  0.004698709452620203  0.0016499433354209728  0.9991815278874914  1.0000
  Ir  Ir21      1.0  0.0021861669605159452  0.00667502844414459  0.9990243934716826  1.0000
  Ir  Ir22      1.0  0.007186167111208676  0.006675028581857866  0.9987116925169968  1.0000
  Ir  Ir23      1.0  0.00969870931351922  0.006675028638036486  0.9988688272399182  1.0000
  Ir  Ir24      1.0  0.004698709452620203  0.006675028367384254  0.9991815276611289  1.0000
