data_image0
_chemical_formula_structural       COCa8Ga8
_chemical_formula_sum              "C1 O1 Ca8 Ga8"
_cell_length_a       6.114425475133273
_cell_length_b       6.220894120316113
_cell_length_c       105.51759338378906
_cell_angle_alpha    85.53973227462605
_cell_angle_beta     89.38794855961966
_cell_angle_gamma    103.07081953689877

_space_group_name_H-M_alt    "P 1"
_space_group_IT_number       1

loop_
  _space_group_symop_operation_xyz
  'x, y, z'

loop_
  _atom_site_type_symbol
  _atom_site_label
  _atom_site_symmetry_multiplicity
  _atom_site_fract_x
  _atom_site_fract_y
  _atom_site_fract_z
  _atom_site_occupancy
  C   C1        1.0  0.0049067288589463645  0.006397547535068643  0.9999509951202976  1.0000
  O   O1        1.0  0.0049067288589463645  0.006397547535068643  6.472046157834666e-05  1.0000
  Ca  Ca1       1.0  0.0055798559605451875  0.0047684856848407165  0.999145101986919  1.0000
  Ca  Ca2       1.0  0.00974652257317353  0.0031018187138581246  0.9994256050997282  1.0000
  Ca  Ca3       1.0  0.007275998900072817  0.0002315146112504538  0.9989226840811052  1.0000
  Ca  Ca4       1.0  0.0014426654213442881  0.0085648479240219  0.9992031871262966  1.0000
  Ca  Ca5       1.0  0.003877952551119769  0.0014390586041804283  0.9997141579800357  1.0000
  Ca  Ca6       1.0  0.008117040882901272  0.009405511824973324  0.9999784622313256  1.0000
  Ca  Ca7       1.0  0.005609332138363684  0.006898181569895913  0.9994836899537737  1.0000
  Ca  Ca8       1.0  0.009690033131521147  0.005229016946521513  0.9997560271647548  1.0000
  Ga  Ga1       1.0  0.006769043326052466  9.113000627877826e-07  0.9992251589806564  1.0000
  Ga  Ga2       1.0  0.002602376818895427  0.0016675780681875067  0.9989446561511514  1.0000
  Ga  Ga3       1.0  0.004420144501086793  0.001665755411135223  0.999403632764989  1.0000
  Ga  Ga4       1.0  0.0002534777005160954  0.003332422227903663  0.9991231299354425  1.0000
  Ga  Ga5       1.0  0.004991418190661001  0.006633646933032388  0.9997862786732026  1.0000
  Ga  Ga6       1.0  0.0009357100621123878  0.008334244718404663  0.9995056617427917  1.0000
  Ga  Ga7       1.0  0.002698416784818125  0.007919915707976096  0.9999620178675703  1.0000
  Ga  Ga8       1.0  0.008586811361101699  0.00999908887812082  0.9996841357909052  1.0000
