data_image0
_chemical_formula_structural       COGa30Pd6
_chemical_formula_sum              "C1 O1 Ga30 Pd6"
_cell_length_a       6.897856837214119
_cell_length_b       11.574982631394471
_cell_length_c       35.78337097167969
_cell_angle_alpha    84.37514497189773
_cell_angle_beta     85.81615345166618
_cell_angle_gamma    102.4546711929611

_space_group_name_H-M_alt    "P 1"
_space_group_IT_number       1

loop_
  _space_group_symop_operation_xyz
  'x, y, z'

loop_
  _atom_site_type_symbol
  _atom_site_label
  _atom_site_symmetry_multiplicity
  _atom_site_fract_x
  _atom_site_fract_y
  _atom_site_fract_z
  _atom_site_occupancy
  C   C1        1.0  0.0014943133612766134  0.0035539547658166803  0.9998663056955092  1.0000
  O   O1        1.0  0.0014943133612766134  0.0035539547658166803  0.00020165725942505508  1.0000
  Ga  Ga1       1.0  9.627563632781026e-05  0.003805525474765263  0.9977746189361272  1.0000
  Ga  Ga2       1.0  0.0035442047687028275  0.002070370400971038  0.9994660614082006  1.0000
  Ga  Ga3       1.0  0.006762942170131001  0.00797219211930741  0.9985714656977297  1.0000
  Ga  Ga4       1.0  0.0066654414121972505  0.009282565399085393  0.9997574859759221  1.0000
  Ga  Ga5       1.0  0.00013198765216377087  0.005023656769686354  0.998997211100202  1.0000
  Ga  Ga6       1.0  0.0034296088243412244  0.000888858724025426  0.9981730422870386  1.0000
  Ga  Ga7       1.0  0.0036418471896684087  0.00457627942621134  0.9992803466491335  1.0000
  Ga  Ga8       1.0  0.006955493148204106  0.0005043633550517519  0.9985101680989001  1.0000
  Ga  Ga9       1.0  0.0002888267721772788  0.006337696856531426  0.9977133213970774  1.0000
  Ga  Ga10      1.0  0.0012423635371778571  0.007078578393774403  0.9993889052836445  1.0000
  Ga  Ga11      1.0  0.004594346005337419  0.0029349367355943476  0.9985765548392845  1.0000
  Ga  Ga12      1.0  0.007927679439579977  0.008768269905206244  0.9977797084005081  1.0000
  Ga  Ga13      1.0  0.002649973646789631  0.004636262867549139  0.9983441496575733  1.0000
  Ga  Ga14      1.0  0.0059833068137525825  0.0004695961400400459  0.9975473031526658  1.0000
  Ga  Ga15      1.0  0.009254786540118555  0.008751834485422499  0.9991473807122672  1.0000
  Ga  Ga16      1.0  0.005211983656696356  0.007318350207650465  0.999403686912697  1.0000
  Ga  Ga17      1.0  0.008931538312525212  0.003009447356998653  0.9985663764944913  1.0000
  Ga  Ga18      1.0  0.0022648716657444013  0.008842780858478326  0.9977695297964764  1.0000
  Ga  Ga19      1.0  0.004209244091980685  0.007141454726523536  0.9980019349772355  1.0000
  Ga  Ga20      1.0  0.0074059404997638655  0.005650526791510404  0.9995100268121372  1.0000
  Ga  Ga21      1.0  0.0008759107333971225  0.001308121308010806  0.9987987814228393  1.0000
  Ga  Ga22      1.0  0.0032370579520863865  0.008877547990523088  0.9987323947460177  1.0000
  Ga  Ga23      1.0  0.006570390839343731  0.004710881014113163  0.9979355482529353  1.0000
  Ga  Ga24      1.0  0.009847127245441057  0.0028920799946196003  0.9994749128661646  1.0000
  Ga  Ga25      1.0  0.0065703908989045426  0.005440020737541249  0.9986327632386836  1.0000
  Ga  Ga26      1.0  0.009903724466684801  0.0012733541759660442  0.9978359167228781  1.0000
  Ga  Ga27      1.0  0.0030573696644834738  0.009530403591147055  0.9994784105924438  1.0000
  Ga  Ga28      1.0  0.00028882670698842944  0.007066836248091734  0.9984105363951019  1.0000
  Ga  Ga29      1.0  0.003622159972827292  0.0029001696035495855  0.9976136898861734  1.0000
  Ga  Ga30      1.0  0.00685305469120542  0.001201788217346271  0.9992068634824314  1.0000
  Pd  Pd1       1.0  0.003429608744390309  0.005263858684201293  0.997575407603264  1.0000
  Pd  Pd2       1.0  0.006733246097126068  0.003542538514290938  0.9991513110491255  1.0000
  Pd  Pd3       1.0  9.627574930542879e-05  0.00943052532874344  0.9983722541083848  1.0000
  Pd  Pd4       1.0  0.003429608859003016  0.006513858909871381  0.9987706774498757  1.0000
  Pd  Pd5       1.0  0.0067629421301555435  0.0023471920993953445  0.9979738309461333  1.0000
  Pd  Pd6       1.0  0.00012103554426693383  0.0006641370308653387  0.9995086072022837  1.0000
