data_image0
_chemical_formula_structural       COCa16Al16Au16
_chemical_formula_sum              "C1 O1 Ca16 Al16 Au16"
_cell_length_a       16.409750859220228
_cell_length_b       8.71358134357643
_cell_length_c       104.85432434082031
_cell_angle_alpha    116.29898912714543
_cell_angle_beta     81.49655644590916
_cell_angle_gamma    81.49655578776863

_space_group_name_H-M_alt    "P 1"
_space_group_IT_number       1

loop_
  _space_group_symop_operation_xyz
  'x, y, z'

loop_
  _atom_site_type_symbol
  _atom_site_label
  _atom_site_symmetry_multiplicity
  _atom_site_fract_x
  _atom_site_fract_y
  _atom_site_fract_z
  _atom_site_occupancy
  C   C1        1.0  0.0038567807919734996  0.005068083108816094  0.0001894079806483629  1.0000
  O   O1        1.0  0.0038567807919734996  0.005068083108816094  0.0003038521372388474  1.0000
  Ca  Ca1       1.0  0.006646739359111392  0.003139773846149622  0.9994805217734198  1.0000
  Ca  Ca2       1.0  0.001646739311813173  0.005639773869798731  0.9996882762275735  1.0000
  Ca  Ca3       1.0  0.001646739311813173  0.0006397740796292253  0.9992727674105056  1.0000
  Ca  Ca4       1.0  0.006669168174912297  0.008291284206384185  0.9999059763869473  1.0000
  Ca  Ca5       1.0  0.005974956122387511  0.0009756655694268095  0.9997161895120904  1.0000
  Ca  Ca6       1.0  0.0009941358579306778  0.0033609561088802074  0.9999339359021084  1.0000
  Ca  Ca7       1.0  0.0009749563115803901  0.008475665026556136  0.9995084351378574  1.0000
  Ca  Ca8       1.0  0.005974956122387511  0.005975665121152575  0.9993006806935301  1.0000
  Ca  Ca9       1.0  0.008474956500773269  0.009583185525410993  0.999208643802123  1.0000
  Ca  Ca10      1.0  0.0034749562169839503  0.0020831860869666395  0.9994163982588165  1.0000
  Ca  Ca11      1.0  0.0033821358256543727  0.007098986095863061  0.9998383869039825  1.0000
  Ca  Ca12      1.0  0.008474956500773269  0.004583186212128972  0.9996241526294626  1.0000
  Ca  Ca13      1.0  0.009261273322562961  0.0014833474934489593  0.9998041429060486  1.0000
  Ca  Ca14      1.0  0.004121404162303879  0.003982276388530316  0.999999569718852  1.0000
  Ca  Ca15      1.0  0.004146739453707832  0.0092472943923027  0.999596239345993  1.0000
  Ca  Ca16      1.0  0.00914673973749715  0.0067472942504080416  0.9993884848820128  1.0000
  Al  Al1       1.0  0.005402229547265981  0.00041681398644245917  0.9993947166848843  1.0000
  Al  Al2       1.0  0.0004022297068974729  0.0029168139066267132  0.9996024711304399  1.0000
  Al  Al3       1.0  0.0002805341071530195  0.007749219754296464  0.9999866421137578  1.0000
  Al  Al4       1.0  0.0052945291360060685  0.0056339895999935755  0.9998204834782424  1.0000
  Al  Al5       1.0  0.00971946631261868  0.002306146043222885  0.9992944488921511  1.0000
  Al  Al6       1.0  0.004719466028829362  0.004806146185117544  0.9995022033561312  1.0000
  Al  Al7       1.0  0.004702030486086453  0.009555186589413334  0.999915065251352  1.0000
  Al  Al8       1.0  0.00971946631261868  0.007306146310279876  0.9997099574425513  1.0000
  Al  Al9       1.0  0.00790222992565174  0.0007147645800653448  0.999577710953722  1.0000
  Al  Al10      1.0  0.0028969875801685904  0.0031703884912550866  0.9997843183669513  1.0000
  Al  Al11      1.0  0.0029022296418624205  0.008214764035242026  0.9993699565903627  1.0000
  Al  Al12      1.0  0.007970129357982289  0.005084154493979439  0.9999545460878658  1.0000
  Al  Al13      1.0  0.007334769061333909  0.0021182239634179004  0.9999082523497691  1.0000
  Al  Al14      1.0  0.002219465886934703  0.004508195711692851  0.9993192090862462  1.0000
  Al  Al15      1.0  0.0022425452897481372  0.009482355852359313  0.9997268364911195  1.0000
  Al  Al16      1.0  0.007219465934232922  0.007008195478213249  0.9995269634491604  1.0000
  Au  Au1       1.0  0.009498645114116603  0.0006005404900125225  0.9994545382221762  1.0000
  Au  Au2       1.0  0.004498644830327286  0.0031005406319071812  0.9996622926861563  1.0000
  Au  Au3       1.0  0.004498644830327286  0.008100539945189205  0.9992467838588167  1.0000
  Au  Au4       1.0  0.009473367999522931  0.005365486816482509  0.9998660770209188  1.0000
  Au  Au5       1.0  0.005623050745768058  0.0021224197780965646  0.9992346273636384  1.0000
  Au  Au6       1.0  0.0006230505802242889  0.004622419860868449  0.9994423818227053  1.0000
  Au  Au7       1.0  0.0007402954174911692  0.009492378562795155  0.9998529043018193  1.0000
  Au  Au8       1.0  0.005623050745768058  0.007122419568266071  0.9996501361807062  1.0000
  Au  Au9       1.0  0.006998645208713043  0.00893462199343459  0.999385224450107  1.0000
  Au  Au10      1.0  0.001998644924923725  0.0014346225549902354  0.9995929789068004  1.0000
  Au  Au11      1.0  0.0018543029375675606  0.006283015794503464  0.9999810184523952  1.0000
  Au  Au12      1.0  0.0068302460460958605  0.004182498153069838  0.9998012436963202  1.0000
  Au  Au13      1.0  0.008123051124153815  0.0037883371416349274  0.9993039411057831  1.0000
  Au  Au14      1.0  0.003123050603873399  0.0062883374017751355  0.9995116955795896  1.0000
  Au  Au15      1.0  0.0032149035101181863  0.0010361101097763742  0.9999040265504543  1.0000
  Au  Au16      1.0  0.008123051124153815  0.008788337408691919  0.9997194496561833  1.0000
