data_image0
_chemical_formula_structural       COAu3Pd6Zn3
_chemical_formula_sum              "C1 O1 Au3 Pd6 Zn3"
_cell_length_a       4.510096097902064
_cell_length_b       4.510096073150635
_cell_length_c       103.14230346679688
_cell_angle_alpha    90.0
_cell_angle_beta     90.0
_cell_angle_gamma    119.99999981845825

_space_group_name_H-M_alt    "P 1"
_space_group_IT_number       1

loop_
  _space_group_symop_operation_xyz
  'x, y, z'

loop_
  _atom_site_type_symbol
  _atom_site_label
  _atom_site_symmetry_multiplicity
  _atom_site_fract_x
  _atom_site_fract_y
  _atom_site_fract_z
  _atom_site_occupancy
  C   C1        1.0  0.0033333050540505322  0.006666731838500821  0.00014421933061509862  1.0000
  O   O1        1.0  0.0033333050540505322  0.006666731838500821  0.000260563681238973  1.0000
  Au  Au1       1.0  0.003333349642801661  0.0066666868147628915  0.9995862285264413  1.0000
  Au  Au2       1.0  0.006666549066816096  0.0033334844010157226  0.9999525831773315  1.0000
  Au  Au3       1.0  1.6449999732328713e-08  2.0449999816581697e-08  0.9992291992456507  1.0000
  Pd  Pd1       1.0  6.104999516367411e-08  0.009999979346711542  0.0  1.0000
  Pd  Pd2       1.0  0.003333349642801661  0.0066666868147628915  0.9993184565658483  1.0000
  Pd  Pd3       1.0  0.0066666830715120026  0.0033333537033646997  0.9996754855576953  1.0000
  Pd  Pd4       1.0  0.0066666830715120026  0.0033333537033646997  0.9991399422143967  1.0000
  Pd  Pd5       1.0  1.6449999732328713e-08  2.0449999816581697e-08  0.9994969709172999  1.0000
  Pd  Pd6       1.0  0.0033329905483674357  0.006667045399459175  0.9998523913593748  1.0000
  Zn  Zn1       1.0  0.009999983595154666  4.918730157377259e-08  0.9997562632461054  1.0000
  Zn  Zn2       1.0  0.003333349642801661  0.0066666868147628915  0.999050684894199  1.0000
  Zn  Zn3       1.0  0.0066666830715120026  0.0033333537033646997  0.999407713886046  1.0000
