data_image0
_chemical_formula_structural       COZr12
_chemical_formula_sum              "C1 O1 Zr12"
_cell_length_a       5.205824851989746
_cell_length_b       5.646965503692627
_cell_length_c       102.60276794433594
_cell_angle_alpha    90.0
_cell_angle_beta     90.0
_cell_angle_gamma    90.0

_space_group_name_H-M_alt    "P 1"
_space_group_IT_number       1

loop_
  _space_group_symop_operation_xyz
  'x, y, z'

loop_
  _atom_site_type_symbol
  _atom_site_label
  _atom_site_symmetry_multiplicity
  _atom_site_fract_x
  _atom_site_fract_y
  _atom_site_fract_z
  _atom_site_occupancy
  C   C1        1.0  0.007500000171744094  0.008333333333333333  0.0001949269101785721  1.0000
  O   O1        1.0  0.007500000171744094  0.008333333333333333  0.0003118824753594307  1.0000
  Zr  Zr1       1.0  0.007500000171744094  0.0033333332013937883  0.9993644858151743  1.0000
  Zr  Zr2       1.0  0.007500000171744094  0.008333333333333333  0.9992056071237364  1.0000
  Zr  Zr3       1.0  0.0025000000572480315  0.006666667062485302  0.9993644858151743  1.0000
  Zr  Zr4       1.0  0.0025000000572480315  0.0016666667656213255  0.9992056071237364  1.0000
  Zr  Zr5       1.0  0.007500000171744094  0.0033333332013937883  0.9996822431980503  1.0000
  Zr  Zr6       1.0  0.007500000171744094  0.008333333333333333  0.9995233645066124  1.0000
  Zr  Zr7       1.0  0.0025000000572480315  0.006666667062485302  0.9996822431980503  1.0000
  Zr  Zr8       1.0  0.0025000000572480315  0.0016666667656213255  0.9995233645066124  1.0000
  Zr  Zr9       1.0  0.007500000171744094  0.0033333332013937883  0.0  1.0000
  Zr  Zr10      1.0  0.007500000171744094  0.008333333333333333  0.9998411218894883  1.0000
  Zr  Zr11      1.0  0.0025000000572480315  0.006666667062485302  0.0  1.0000
  Zr  Zr12      1.0  0.0025000000572480315  0.0016666667656213255  0.9998411218894883  1.0000
