data_image0
_chemical_formula_structural       HSb16V8
_chemical_formula_sum              "H1 Sb16 V8"
_cell_length_a       5.474670455008375
_cell_length_b       9.388339042663574
_cell_length_c       31.328807830810547
_cell_angle_alpha    90.0
_cell_angle_beta     88.07801562919565
_cell_angle_gamma    90.0

_space_group_name_H-M_alt    "P 1"
_space_group_IT_number       1

loop_
  _space_group_symop_operation_xyz
  'x, y, z'

loop_
  _atom_site_type_symbol
  _atom_site_label
  _atom_site_symmetry_multiplicity
  _atom_site_fract_x
  _atom_site_fract_y
  _atom_site_fract_z
  _atom_site_occupancy
  H   H1        1.0  0.006677567877908003  0.003368442341813665  0.0002810968921653041  1.0000
  Sb  Sb1       1.0  0.0016175825934701712  0.004089915892553798  0.9989598584349278  1.0000
  Sb  Sb2       1.0  0.009117582784106017  0.009089915749705899  0.9981883805441302  1.0000
  Sb  Sb3       1.0  0.0040210931182464256  0.009118963076370322  0.9997480793699196  1.0000
  Sb  Sb4       1.0  0.006617582266665865  0.004089915892553798  0.9974169020343971  1.0000
  Sb  Sb5       1.0  0.009263955028633723  0.007520830779001273  0.9992019617533643  1.0000
  Sb  Sb6       1.0  0.006763954511193571  0.002520830525049452  0.9984304832436313  1.0000
  Sb  Sb7       1.0  0.0007360450837052585  0.002521152528021806  0.9999956861573831  1.0000
  Sb  Sb8       1.0  0.004263954674595723  0.007520830779001273  0.9976590052055455  1.0000
  Sb  Sb9       1.0  0.009117582784106017  0.005951745411496927  0.9981883805441302  1.0000
  Sb  Sb10      1.0  0.006617582266665865  0.0009517453559449665  0.9974169020343971  1.0000
  Sb  Sb11      1.0  0.0016175825934701712  0.0009517453559449665  0.9989598584349278  1.0000
  Sb  Sb12      1.0  0.004022054127159294  0.005923683735335679  0.9997479148746178  1.0000
  Sb  Sb13      1.0  0.003971210525961465  0.007520830779001273  0.998717755737422  1.0000
  Sb  Sb14      1.0  0.0014712105191530419  0.002520830525049452  0.9979462772246962  1.0000
  Sb  Sb15      1.0  0.006048418525333478  0.002520871990620137  0.9995558057696309  1.0000
  Sb  Sb16      1.0  0.008418425821566418  0.007519978453203842  0.00019435533919118648  1.0000
  V   V1        1.0  0.006617582266665865  0.005020830652025363  0.9989598587483859  1.0000
  V   V2        1.0  0.004117582770489171  2.0830549973434418e-05  0.9981883802326673  1.0000
  V   V3        1.0  0.008878972747527464  0.009979169316230661  0.9996713232798768  1.0000
  V   V4        1.0  0.0016175825934701712  0.005020830652025363  0.997416901958758  1.0000
  V   V5        1.0  0.008879117086096028  0.0050630219693973836  0.9996711911579343  1.0000
  V   V6        1.0  0.006617582266665865  2.0830549973434418e-05  0.9989598587483859  1.0000
  V   V7        1.0  0.0016175825934701712  2.0830549973434418e-05  0.997416901958758  1.0000
  V   V8        1.0  0.004117582770489171  0.005020830652025363  0.9981883802326673  1.0000
