data_image0
_chemical_formula_structural       HCu4Ru12Cu4Ru12
_chemical_formula_sum              "H1 Cu8 Ru24"
_cell_length_a       5.263510704040527
_cell_length_b       8.694523883115881
_cell_length_c       106.84457397460938
_cell_angle_alpha    107.61931119475516
_cell_angle_beta     90.0
_cell_angle_gamma    72.38068880524486

_space_group_name_H-M_alt    "P 1"
_space_group_IT_number       1

loop_
  _space_group_symop_operation_xyz
  'x, y, z'

loop_
  _atom_site_type_symbol
  _atom_site_label
  _atom_site_symmetry_multiplicity
  _atom_site_fract_x
  _atom_site_fract_y
  _atom_site_fract_z
  _atom_site_occupancy
  H   H1        1.0  0.009381243908783286  0.0037250258076187135  0.00014034777288992136  1.0000
  Cu  Cu1       1.0  0.0006187565212436818  0.00124999999525902  0.9995381568080319  1.0000
  Cu  Cu2       1.0  0.005618756446929122  0.00124999999525902  0.9992918407261582  1.0000
  Cu  Cu3       1.0  0.008118756765182845  0.006250000094819597  0.9994149988476482  1.0000
  Cu  Cu4       1.0  0.003118756397148834  0.006250000094819597  0.9991686824868429  1.0000
  Ru  Ru1       1.0  0.0018687565622697048  0.003750000104301557  0.9992302614684945  1.0000
  Ru  Ru2       1.0  0.006868756930303715  0.003750000104301557  0.9994765781082313  1.0000
  Ru  Ru3       1.0  0.006868756930303715  0.003750000104301557  0.9992302614684945  1.0000
  Ru  Ru4       1.0  0.0018687565622697048  0.003750000104301557  0.9994765781082313  1.0000
  Ru  Ru5       1.0  0.008118756765182845  0.006250000094819597  0.9991686824868429  1.0000
  Ru  Ru6       1.0  0.003118756397148834  0.006250000094819597  0.9994149988476482  1.0000
  Ru  Ru7       1.0  0.004368757058310173  0.008749999848288644  0.9993534198601577  1.0000
  Ru  Ru8       1.0  0.009368757426344184  0.008749999848288644  0.9991071034993524  1.0000
  Ru  Ru9       1.0  0.009368757426344184  0.008749999848288644  0.9993534198601577  1.0000
  Ru  Ru10      1.0  0.004368757058310173  0.008749999848288644  0.9991071034993524  1.0000
  Ru  Ru11      1.0  0.0006187565212436818  0.00124999999525902  0.9992918407261582  1.0000
  Ru  Ru12      1.0  0.005618756446929122  0.00124999999525902  0.9995381568080319  1.0000
  Cu  Cu5       1.0  0.0006187565212436818  0.00124999999525902  3.07895296426564e-05  1.0000
  Cu  Cu6       1.0  0.005618756446929122  0.00124999999525902  0.9997844728899058  1.0000
  Cu  Cu7       1.0  0.008118756765182845  0.006250000094819597  0.9999076315692589  1.0000
  Cu  Cu8       1.0  0.003118756397148834  0.006250000094819597  0.999661314929522  1.0000
  Ru  Ru13      1.0  0.0018687565622697048  0.003750000104301557  0.9997228941901052  1.0000
  Ru  Ru14      1.0  0.006868756930303715  0.003750000104301557  0.9999692102719789  1.0000
  Ru  Ru15      1.0  0.006868756930303715  0.003750000104301557  0.9997228941901052  1.0000
  Ru  Ru16      1.0  0.0018687565622697048  0.003750000104301557  0.9999692102719789  1.0000
  Ru  Ru17      1.0  0.008118756765182845  0.006250000094819597  0.999661314929522  1.0000
  Ru  Ru18      1.0  0.003118756397148834  0.006250000094819597  0.9999076315692589  1.0000
  Ru  Ru19      1.0  0.004368757058310173  0.008749999848288644  0.9998460523028369  1.0000
  Ru  Ru20      1.0  0.009368757426344184  0.008749999848288644  0.9995997362209631  1.0000
  Ru  Ru21      1.0  0.009368757426344184  0.008749999848288644  0.9998460523028369  1.0000
  Ru  Ru22      1.0  0.004368757058310173  0.008749999848288644  0.9995997362209631  1.0000
  Ru  Ru23      1.0  0.0006187565212436818  0.00124999999525902  0.9997844728899058  1.0000
  Ru  Ru24      1.0  0.005618756446929122  0.00124999999525902  3.07895296426564e-05  1.0000
