data_image0
_chemical_formula_structural       Ga8Sn16V16H
_chemical_formula_sum              "Ga8 Sn16 V16 H1"
_cell_length_a       8.85187215979496
_cell_length_b       9.88563345531823
_cell_length_c       103.9857177734375
_cell_angle_alpha    86.97966809796678
_cell_angle_beta     89.04707835342772
_cell_angle_gamma    100.5385617594988

_space_group_name_H-M_alt    "P 1"
_space_group_IT_number       1

loop_
  _space_group_symop_operation_xyz
  'x, y, z'

loop_
  _atom_site_type_symbol
  _atom_site_label
  _atom_site_symmetry_multiplicity
  _atom_site_fract_x
  _atom_site_fract_y
  _atom_site_fract_z
  _atom_site_occupancy
  Ga  Ga1       1.0  0.0027278898591591287  0.005354555497663544  0.9995588465751912  1.0000
  Ga  Ga2       1.0  0.007212521116760999  0.004187198298802065  0.9999569238910706  1.0000
  Ga  Ga3       1.0  0.0075858891425886685  0.004644551807098956  0.9995433765458281  1.0000
  Ga  Ga4       1.0  0.001354284331501283  0.0036470623953582426  0.9999519812478553  1.0000
  Ga  Ga5       1.0  0.00946335146180724  0.004080467238499419  0.999754557535699  1.0000
  Ga  Ga6       1.0  0.005710889034226126  0.005269551730314573  0.9993391075418658  1.0000
  Ga  Ga7       1.0  0.004558053172232741  0.00470257546184885  0.9997902517501657  1.0000
  Ga  Ga8       1.0  0.0008528900137591126  0.005979555804801076  0.9993545775689336  1.0000
  Sn  Sn1       1.0  0.00568607718605351  0.0001298517498577339  0.9997122090356143  1.0000
  Sn  Sn2       1.0  0.0019812579216808954  0.0013789590258260894  0.9992871294472435  1.0000
  Sn  Sn3       1.0  0.0063593502664109165  0.008243081481375918  0.9992184199958876  1.0000
  Sn  Sn4       1.0  0.00010935016555938989  0.0069930808671008525  0.9996269585483492  1.0000
  Sn  Sn5       1.0  0.001671909352446197  0.00031708936418353755  0.9996341810693525  1.0000
  Sn  Sn6       1.0  0.007921908808941032  0.001567089402575729  0.9992256425206879  1.0000
  Sn  Sn7       1.0  0.004582521086792568  0.009870148701250516  0.9994065553760502  1.0000
  Sn  Sn8       1.0  0.008287828799183211  0.008651030765843752  0.9998261329412103  1.0000
  Sn  Sn9       1.0  0.004274751926135006  0.002820090942501888  0.9995360342624017  1.0000
  Sn  Sn10      1.0  0.008133570535493621  0.001652540438956047  0.999980207400191  1.0000
  Sn  Sn11      1.0  0.003922042628385649  0.0018723246017409046  0.9999031189256093  1.0000
  Sn  Sn12      1.0  0.00020442889990227486  0.0030060262457006887  0.9994752648271827  1.0000
  Sn  Sn13      1.0  0.006039027009794394  0.007179016554221569  0.9995661888577494  1.0000
  Sn  Sn14      1.0  0.009890649573349014  0.006060708451417477  1.354064925007582e-05  1.0000
  Sn  Sn15      1.0  0.008641869399440541  0.009682017748618004  0.9994680420529821  1.0000
  Sn  Sn16      1.0  0.002364501968391029  0.008602182844869992  0.9998887485226632  1.0000
  V   V1        1.0  0.0019060535278420919  0.0029614492640739017  0.9997130826542796  1.0000
  V   V2        1.0  0.008182967515014948  0.004284298293937006  0.9993053562773838  1.0000
  V   V3        1.0  0.0037331641439496657  0.007035280028345109  0.999365296606453  1.0000
  V   V4        1.0  0.007465694783714395  0.005877258274776539  0.999764099015064  1.0000
  V   V5        1.0  0.004756574416884385  0.007333165810285323  0.9997986642076677  1.0000
  V   V6        1.0  0.0013785002661250178  0.008607607661533456  0.9994118394886128  1.0000
  V   V7        1.0  0.0032535001115250343  0.007982607354395925  0.9996161084948705  1.0000
  V   V8        1.0  0.009503499633838265  0.009232607200827157  0.9992075702336743  1.0000
  V   V9        1.0  0.008897226473587707  0.0014553877052354417  0.999697015946055  1.0000
  V   V10       1.0  0.005185278887086706  0.0026414998735821917  0.9992818456220377  1.0000
  V   V11       1.0  0.008380810850998977  0.006964809625100557  0.9993883288654171  1.0000
  V   V12       1.0  0.0021416278853271602  0.005894581215517669  0.9997921057153998  1.0000
  V   V13       1.0  0.006555570473606563  0.002940038130817492  0.9997370931702492  1.0000
  V   V14       1.0  0.002830614825115709  0.0042138275067705394  0.999328388217858  1.0000
  V   V15       1.0  0.007060278574543307  0.0020164999503665747  0.9994861146265959  1.0000
  V   V16       1.0  0.0008193668754748888  0.0011177064011823074  0.9998709874009931  1.0000
  H   H1        1.0  0.0015919343833393233  0.009859944824585156  2.4118774918455618e-05  1.0000
