data_image0
_chemical_formula_structural       COV12Au4V12Au4
_chemical_formula_sum              "C1 O1 V24 Au8"
_cell_length_a       4.8841705322265625
_cell_length_b       6.907259941101074
_cell_length_c       104.53630065917969
_cell_angle_alpha    90.0
_cell_angle_beta     90.0
_cell_angle_gamma    90.0

_space_group_name_H-M_alt    "P 1"
_space_group_IT_number       1

loop_
  _space_group_symop_operation_xyz
  'x, y, z'

loop_
  _atom_site_type_symbol
  _atom_site_label
  _atom_site_symmetry_multiplicity
  _atom_site_fract_x
  _atom_site_fract_y
  _atom_site_fract_z
  _atom_site_occupancy
  C   C1        1.0  0.007500739784481816  0.007564236300715456  0.9999874645639159  1.0000
  O   O1        1.0  0.007500739784481816  0.007564236300715456  0.00010225688618458534  1.0000
  V   V1        1.0  2.500000023986992e-09  0.006314460036240193  0.9987485831678682  1.0000
  V   V2        1.0  2.500000023986992e-09  0.0013144600955664581  0.9990789593326255  1.0000
  V   V3        1.0  2.500000023986992e-09  0.0038144601333195355  0.9992441471299135  1.0000
  V   V4        1.0  2.500000023986992e-09  0.00881446020882569  0.9989137712502468  1.0000
  V   V5        1.0  0.0050000025017456085  0.006314460036240193  0.9989137712502468  1.0000
  V   V6        1.0  0.0050000025017456085  0.0013144600955664581  0.9992441471299135  1.0000
  V   V7        1.0  0.0050000025017456085  0.00881446020882569  0.9987485831678682  1.0000
  V   V8        1.0  0.0050000025017456085  0.0038144601333195355  0.9990789593326255  1.0000
  V   V9        1.0  0.0075000022271637734  0.0025644600470267867  0.9988311770665123  1.0000
  V   V10       1.0  0.0075000022271637734  0.0075644601225329415  0.9991615532312694  1.0000
  V   V11       1.0  0.0025000023949637833  0.0025644600470267867  0.9988311770665123  1.0000
  V   V12       1.0  0.0025000023949637833  0.0075644601225329415  0.9991615532312694  1.0000
  Au  Au1       1.0  0.0050000025017456085  0.005064459949947444  0.9993267413136481  1.0000
  Au  Au2       1.0  0.0050000025017456085  6.446000084668287e-05  0.9989963651488909  1.0000
  Au  Au3       1.0  2.500000023986992e-09  0.005064459949947444  0.9989963651488909  1.0000
  Au  Au4       1.0  2.500000023986992e-09  6.446000084668287e-05  0.9993267413136481  1.0000
  V   V13       1.0  2.500000023986992e-09  0.006314460036240193  0.9994093354973828  1.0000
  V   V14       1.0  0.00999990584893967  0.0013493146806781698  0.9997488168874676  1.0000
  V   V15       1.0  0.00999999737621802  0.0037542453227949408  0.9998966346813503  1.0000
  V   V16       1.0  2.500000023986992e-09  0.00881446020882569  0.9995745232946707  1.0000
  V   V17       1.0  0.0050000025017456085  0.006314460036240193  0.9995745232946707  1.0000
  V   V18       1.0  0.0050000135612917425  0.001377051597161424  0.9998966090231913  1.0000
  V   V19       1.0  0.0050000025017456085  0.00881446020882569  0.9994093354973828  1.0000
  V   V20       1.0  0.005000086020387103  0.0037793435688154298  0.9997489235113725  1.0000
  V   V21       1.0  0.0075000022271637734  0.0025644600470267867  0.9994919296811174  1.0000
  V   V22       1.0  0.007500739784481816  0.007564236300715456  0.999821775577257  1.0000
  V   V23       1.0  0.0025000023949637833  0.0025644600470267867  0.9994919296811174  1.0000
  V   V24       1.0  0.00249932204219471  0.007564243312001305  0.9998217801387075  1.0000
  Au  Au5       1.0  0.0050002233113046295  0.005193925500466878  5.359704307074803e-08  1.0000
  Au  Au6       1.0  0.0050000025017456085  6.446000084668287e-05  0.9996571174784054  1.0000
  Au  Au7       1.0  2.500000023986992e-09  0.005064459949947444  0.9996571174784054  1.0000
  Au  Au8       1.0  0.009999785338023174  0.009935540006906182  0.0  1.0000
