data_image0
_chemical_formula_structural       COV18Ir6V18Ir6
_chemical_formula_sum              "C1 O1 V36 Ir12"
_cell_length_a       10.71006569752435
_cell_length_b       4.789687156677246
_cell_length_c       110.64183807373047
_cell_angle_alpha    90.0
_cell_angle_beta     108.43494841958267
_cell_angle_gamma    90.0

_space_group_name_H-M_alt    "P 1"
_space_group_IT_number       1

loop_
  _space_group_symop_operation_xyz
  'x, y, z'

loop_
  _atom_site_type_symbol
  _atom_site_label
  _atom_site_symmetry_multiplicity
  _atom_site_fract_x
  _atom_site_fract_y
  _atom_site_fract_z
  _atom_site_occupancy
  C   C1        1.0  0.009713980920573136  0.0029166666044448107  0.00024179297328681936  1.0000
  O   O1        1.0  0.009713980920573136  0.0029166666044448107  0.00035025072238941156  1.0000
  V   V1        1.0  0.009452685648321314  0.0012499999455558761  5.977332120863287e-05  1.0000
  V   V2        1.0  0.006119352730519902  0.0012499999455558761  0.9996516312181406  1.0000
  V   V3        1.0  0.002786019262749771  0.0012499999455558761  0.9998557022395963  1.0000
  V   V4        1.0  0.007786019372743515  0.0012499999455558761  0.00016180884596554758  1.0000
  V   V5        1.0  0.004452685721650476  0.0012499999455558761  0.999753666720451  1.0000
  V   V6        1.0  0.0011193526205261583  0.0012499999455558761  0.9999577377531299  1.0000
  V   V7        1.0  0.009452685648321314  0.006249999533336081  0.999906720035869  1.0000
  V   V8        1.0  0.006119352730519902  0.006249999533336081  0.0001107910741595417  1.0000
  V   V9        1.0  0.002786019262749771  0.006249999533336081  0.9997026489542566  1.0000
  V   V10       1.0  0.0011193526205261583  0.006249999533336081  0.0001107910384695371  1.0000
  V   V11       1.0  0.007786019372743515  0.006249999533336081  0.9997026489899467  1.0000
  V   V12       1.0  0.004452685721650476  0.006249999533336081  0.9999067200057906  1.0000
  V   V13       1.0  0.006952685501662988  0.008749999813334432  0.9999067197458597  1.0000
  V   V14       1.0  0.003619352583861577  0.008749999813334432  0.00011079078415019576  1.0000
  V   V15       1.0  0.0002860192535836255  0.008749999813334432  0.9997026486684559  1.0000
  V   V16       1.0  0.006952685501662988  0.003749999642224329  0.9999067197458597  1.0000
  V   V17       1.0  0.003619352583861577  0.003749999642224329  0.00011079078415019576  1.0000
  V   V18       1.0  0.0002860192535836255  0.003749999642224329  0.9997026486684559  1.0000
  Ir  Ir1       1.0  0.008619352510532413  0.006249999533336081  0.0001107908142285645  1.0000
  Ir  Ir2       1.0  0.005286019226085189  0.006249999533336081  0.9997026486999373  1.0000
  Ir  Ir3       1.0  0.0019526859416379647  0.006249999533336081  0.9999067197270045  1.0000
  Ir  Ir4       1.0  0.008619352510532413  0.0012499999455558761  0.9998046842435493  1.0000
  Ir  Ir5       1.0  0.005286019226085189  0.0012499999455558761  8.755270616552713e-06  1.0000
  Ir  Ir6       1.0  0.0019526859416379647  0.0012499999455558761  0.9996006131563252  1.0000
  V   V19       1.0  0.009452685648321314  0.0012499999455558761  0.9994475599104915  1.0000
  V   V20       1.0  0.006119352730519902  0.0012499999455558761  0.9990394178074234  1.0000
  V   V21       1.0  0.002786019262749771  0.0012499999455558761  0.9992434888288791  1.0000
  V   V22       1.0  0.007786019372743515  0.0012499999455558761  0.999549595704607  1.0000
  V   V23       1.0  0.004452685721650476  0.0012499999455558761  0.9991414533097338  1.0000
  V   V24       1.0  0.0011193526205261583  0.0012499999455558761  0.9993455246117713  1.0000
  V   V25       1.0  0.009452685648321314  0.006249999533336081  0.9992945066251518  1.0000
  V   V26       1.0  0.006119352730519902  0.006249999533336081  0.999498577932801  1.0000
  V   V27       1.0  0.002786019262749771  0.006249999533336081  0.9990904355435395  1.0000
  V   V28       1.0  0.0011193526205261583  0.006249999533336081  0.9994985778971109  1.0000
  V   V29       1.0  0.007786019372743515  0.006249999533336081  0.9990904355792295  1.0000
  V   V30       1.0  0.004452685721650476  0.006249999533336081  0.9992945065950735  1.0000
  V   V31       1.0  0.006952685501662988  0.008749999813334432  0.999294506604501  1.0000
  V   V32       1.0  0.003619352583861577  0.008749999813334432  0.9994985776427916  1.0000
  V   V33       1.0  0.0002860192535836255  0.008749999813334432  0.9990904355270974  1.0000
  V   V34       1.0  0.006952685501662988  0.003749999642224329  0.999294506604501  1.0000
  V   V35       1.0  0.003619352583861577  0.003749999642224329  0.9994985776427916  1.0000
  V   V36       1.0  0.0002860192535836255  0.003749999642224329  0.9990904355270974  1.0000
  Ir  Ir7       1.0  0.008619352510532413  0.006249999533336081  0.99949857767287  1.0000
  Ir  Ir8       1.0  0.005286019226085189  0.006249999533336081  0.9990904355585787  1.0000
  Ir  Ir9       1.0  0.0019526859416379647  0.006249999533336081  0.9992945065856459  1.0000
  Ir  Ir10      1.0  0.008619352510532413  0.0012499999455558761  0.9991924711021907  1.0000
  Ir  Ir11      1.0  0.005286019226085189  0.0012499999455558761  0.999396542129258  1.0000
  Ir  Ir12      1.0  0.0019526859416379647  0.0012499999455558761  0.9989884000149667  1.0000
