data_image0
_chemical_formula_structural       HOs10Tc10Zr20
_chemical_formula_sum              "H1 Os10 Tc10 Zr20"
_cell_length_a       4.665063858032227
_cell_length_b       13.995192543446956
_cell_length_c       103.31522369384766
_cell_angle_alpha    98.04946649739318
_cell_angle_beta     90.0
_cell_angle_gamma    90.0

_space_group_name_H-M_alt    "P 1"
_space_group_IT_number       1

loop_
  _space_group_symop_operation_xyz
  'x, y, z'

loop_
  _atom_site_type_symbol
  _atom_site_label
  _atom_site_symmetry_multiplicity
  _atom_site_fract_x
  _atom_site_fract_y
  _atom_site_fract_z
  _atom_site_occupancy
  H   H1        1.0  0.008750000191652183  0.007202099762064983  0.0002008565994722248  1.0000
  Os  Os1       1.0  0.006250000079855076  0.0024999999139736872  0.999731281832943  1.0000
  Os  Os2       1.0  0.006250000079855076  0.007833332884562736  0.9995163073052606  1.0000
  Os  Os3       1.0  0.006250000079855076  0.007166666599279388  0.9999462565040976  1.0000
  Os  Os4       1.0  0.006250000079855076  0.0031666664680892616  0.9993013326392054  1.0000
  Os  Os5       1.0  0.006250000079855076  0.008499999707510537  0.9990863581166223  1.0000
  Os  Os6       1.0  0.0012500000558985534  0.0005000000163987658  0.999408819903684  1.0000
  Os  Os7       1.0  0.0012500000558985534  0.005833332953383786  0.9991938453753643  1.0000
  Os  Os8       1.0  0.0012500000558985534  0.005166666668100438  0.9996237948626613  1.0000
  Os  Os9       1.0  0.0012500000558985534  0.004499999845152637  5.374405129961918e-05  1.0000
  Os  Os10      1.0  0.0012500000558985534  0.009833333353406139  0.9998387689568956  1.0000
  Tc  Tc1       1.0  0.0012500000558985534  0.0028333333254475877  0.9995163072386238  1.0000
  Tc  Tc2       1.0  0.0012500000558985534  0.008166666564868863  0.9993013327160408  1.0000
  Tc  Tc3       1.0  0.0012500000558985534  0.007499999741921062  0.9997312819046791  1.0000
  Tc  Tc4       1.0  0.0012500000558985534  0.0034999998795631625  0.9990863580448862  1.0000
  Tc  Tc5       1.0  0.0012500000558985534  0.0021666666369159  0.9999462564298118  1.0000
  Tc  Tc6       1.0  0.006250000079855076  0.00016666663852889363  0.9996237947871007  1.0000
  Tc  Tc7       1.0  0.006250000079855076  0.0054999998107421125  0.9994088199747827  1.0000
  Tc  Tc8       1.0  0.006250000079855076  0.004833332987794311  0.9998387694518811  1.0000
  Tc  Tc9       1.0  0.006250000079855076  0.0008333333270605813  0.9991938453074526  1.0000
  Tc  Tc10      1.0  0.006250000079855076  0.009499999673100012  5.374354611544733e-05  1.0000
  Zr  Zr1       1.0  0.0012500000558985534  0.0013333332426472622  0.9996775380209244  1.0000
  Zr  Zr2       1.0  0.0012500000558985534  0.0066666666164846506  0.9994625635008909  1.0000
  Zr  Zr3       1.0  0.0012500000558985534  0.00599999979353685  0.9998925126895293  1.0000
  Zr  Zr4       1.0  0.0012500000558985534  0.00199999993117895  0.9992475891181964  1.0000
  Zr  Zr5       1.0  0.0012500000558985534  0.0006666666213236311  0.00010748721338716357  1.0000
  Zr  Zr6       1.0  0.006250000079855076  0.0016666666541211626  0.9994625637150653  1.0000
  Zr  Zr7       1.0  0.006250000079855076  0.006999999759126325  0.9992475891899326  1.0000
  Zr  Zr8       1.0  0.006250000079855076  0.006333332936178523  0.9996775380901107  1.0000
  Zr  Zr9       1.0  0.006250000079855076  0.005666666650895175  0.00010748728894771944  1.0000
  Zr  Zr10      1.0  0.006250000079855076  0.0010000000327975316  0.999892512619068  1.0000
  Zr  Zr11      1.0  0.006250000079855076  0.009333333370611402  0.999355076242149  1.0000
  Zr  Zr12      1.0  0.006250000079855076  0.004666666685305701  0.9991401018594546  1.0000
  Zr  Zr13      1.0  0.006250000079855076  0.0039999998623579  0.9995700510480929  1.0000
  Zr  Zr14      1.0  0.006250000079855076  0.0033333333082423253  2.4183057047755095e-10  1.0000
  Zr  Zr15      1.0  0.006250000079855076  0.0086666665476636  0.9997850257192474  1.0000
  Zr  Zr16      1.0  0.0012500000558985534  0.009666665975588622  0.999140101632532  1.0000
  Zr  Zr17      1.0  0.0012500000558985534  0.008333332867357473  3.0846734705794056e-10  1.0000
  Zr  Zr18      1.0  0.0012500000558985534  0.0043333332738318  0.9993550764537737  1.0000
  Zr  Zr19      1.0  0.0012500000558985534  0.0036666664508839993  0.9997850256424121  1.0000
  Zr  Zr20      1.0  0.0012500000558985534  0.008999999690305275  0.9995700508313689  1.0000
