data_image0
_chemical_formula_structural       COSn8
_chemical_formula_sum              "C1 O1 Sn8"
_cell_length_a       4.75570821762085
_cell_length_b       6.725587368011475
_cell_length_c       108.04566955566406
_cell_angle_alpha    90.0
_cell_angle_beta     90.0
_cell_angle_gamma    90.0

_space_group_name_H-M_alt    "P 1"
_space_group_IT_number       1

loop_
  _space_group_symop_operation_xyz
  'x, y, z'

loop_
  _atom_site_type_symbol
  _atom_site_label
  _atom_site_symmetry_multiplicity
  _atom_site_fract_x
  _atom_site_fract_y
  _atom_site_fract_z
  _atom_site_occupancy
  C   C1        1.0  0.002499997838008399  0.00937500066467776  0.00016030623519869915  1.0000
  O   O1        1.0  0.002499997838008399  0.00937500066467776  0.0002713706061081947  1.0000
  Sn  Sn1       1.0  0.005000001550993975  0.008124999357478162  0.9993311059210005  1.0000
  Sn  Sn2       1.0  0.004999998809337959  0.0081008156110154  0.9997791775928023  1.0000
  Sn  Sn3       1.0  1.1500000644195741e-09  0.0006249993380917289  0.9993311059210005  1.0000
  Sn  Sn4       1.0  0.009999999185336499  0.0006491724220153965  0.9997791770411408  1.0000
  Sn  Sn5       1.0  1.1500000644195741e-09  0.0031249993907120515  0.9995511846883883  1.0000
  Sn  Sn6       1.0  0.009999997618675918  0.003127191165631388  0.9999999983450153  1.0000
  Sn  Sn7       1.0  0.0049999980260076685  0.005622810507140978  0.0  1.0000
  Sn  Sn8       1.0  0.005000001550993975  0.005624999512569641  0.9995511846883883  1.0000
