data_image0
_chemical_formula_structural       COAs6In8Se2
_chemical_formula_sum              "C1 O1 As6 In8 Se2"
_cell_length_a       6.388572692871094
_cell_length_b       7.803271112695532
_cell_length_c       104.38433837890625
_cell_angle_alpha    94.50322299665056
_cell_angle_beta     90.0
_cell_angle_gamma    114.16414871500182

_space_group_name_H-M_alt    "P 1"
_space_group_IT_number       1

loop_
  _space_group_symop_operation_xyz
  'x, y, z'

loop_
  _atom_site_type_symbol
  _atom_site_label
  _atom_site_symmetry_multiplicity
  _atom_site_fract_x
  _atom_site_fract_y
  _atom_site_fract_z
  _atom_site_occupancy
  C   C1        1.0  0.0073748066917576575  0.006410174923694125  0.00014085370917264837  1.0000
  O   O1        1.0  0.0073748066917576575  0.006410174923694125  0.00025581314562078146  1.0000
  As  As1       1.0  0.0013738706487728025  0.002580584992859654  0.9991025081815493  1.0000
  As  As2       1.0  0.008457203951798031  0.00674725150196678  0.9992397588163019  1.0000
  As  As3       1.0  0.004290537154775389  0.008413917895530244  0.9989652577374882  1.0000
  As  As4       1.0  0.009707203878270246  0.00924725135491121  0.999651510242821  1.0000
  As  As5       1.0  0.007051512090588336  0.0035488280208794036  0.9997966796058713  1.0000
  As  As6       1.0  0.0026238707065446344  0.005080585108403317  0.9995142596096098  1.0000
  In  In1       1.0  0.004469123351964916  0.0039021447861758217  0.9993064242195812  1.0000
  In  In2       1.0  0.00041166895608878894  0.005525126746776491  0.9990391181515842  1.0000
  In  In3       1.0  0.007467127100685911  0.009636043175919  0.9991658984052885  1.0000
  In  In4       1.0  0.0014808969409482752  0.007925691824194276  0.9994475944918362  1.0000
  In  In5       1.0  0.0033318589918919016  0.00036395669540737553  0.9998165826405813  1.0000
  In  In6       1.0  0.00874500180276913  0.0021917933031514797  0.9995881205908639  1.0000
  In  In7       1.0  0.0057321214044058905  0.006217034762726928  0.9997133327607385  1.0000
  In  In8       1.0  0.00029279599005568836  0.004664106924962803  2.7375587570696373e-05  1.0000
  Se  Se1       1.0  0.005540537336338215  0.0009139182710471479  0.9993770092584363  1.0000
  Se  Se2       1.0  0.004246680556649024  0.007735968604459101  0.9999212357741821  1.0000
