data_image0
_chemical_formula_structural       HV18Pd6V18Pd6
_chemical_formula_sum              "H1 V36 Pd12"
_cell_length_a       10.78615797356432
_cell_length_b       4.823716640472412
_cell_length_c       110.93059539794922
_cell_angle_alpha    90.0
_cell_angle_beta     108.43494922341596
_cell_angle_gamma    90.0

_space_group_name_H-M_alt    "P 1"
_space_group_IT_number       1

loop_
  _space_group_symop_operation_xyz
  'x, y, z'

loop_
  _atom_site_type_symbol
  _atom_site_label
  _atom_site_symmetry_multiplicity
  _atom_site_fract_x
  _atom_site_fract_y
  _atom_site_fract_z
  _atom_site_occupancy
  H   H1        1.0  0.003451936435321778  0.008749999969108548  0.0002091924617878491  1.0000
  V   V1        1.0  0.008749999941750517  0.0012500000231685893  3.843507040599897e-05  1.0000
  V   V2        1.0  0.005416666734624397  0.0012500000231685893  0.9996284631774239  1.0000
  V   V3        1.0  0.002083333345468642  0.0012500000231685893  0.9998334490811537  1.0000
  V   V4        1.0  0.007083333702246724  0.0012500000231685893  0.9995259699652973  1.0000
  V   V5        1.0  0.003750000131061336  0.0012500000231685893  0.99973095586343  1.0000
  V   V6        1.0  0.00041666665089076506  0.0012500000231685893  0.9999359423016759  1.0000
  V   V7        1.0  0.008749999941750517  0.00624999992277137  0.9998846953511714  1.0000
  V   V8        1.0  0.005416666734624397  0.00624999992277137  8.968179781292174e-05  1.0000
  V   V9        1.0  0.002083333345468642  0.00624999992277137  0.9996797093619191  1.0000
  V   V10       1.0  0.00041666665089076506  0.00624999992277137  8.968148359573541e-05  1.0000
  V   V11       1.0  0.007083333702246724  0.00624999992277137  0.9996797096845319  1.0000
  V   V12       1.0  0.003750000131061336  0.00624999992277137  0.9998846955826646  1.0000
  V   V13       1.0  0.006249999854376293  0.008749999969108548  0.999884695461321  1.0000
  V   V14       1.0  0.0029166666472501723  0.008749999969108548  8.9681370647698e-05  1.0000
  V   V15       1.0  0.009583333789620948  0.008749999969108548  0.9996797095743823  1.0000
  V   V16       1.0  0.006249999854376293  0.0037499998764341912  0.999884695461321  1.0000
  V   V17       1.0  0.0029166666472501723  0.0037499998764341912  8.9681370647698e-05  1.0000
  V   V18       1.0  0.009583333789620948  0.0037499998764341912  0.9996797095743823  1.0000
  Pd  Pd1       1.0  0.007916666821998621  0.00624999992277137  8.96816876633987e-05  1.0000
  Pd  Pd2       1.0  0.004583333250813232  0.00624999992277137  0.9996797097834873  1.0000
  Pd  Pd3       1.0  0.0012499999526722951  0.00624999992277137  0.9998846956900156  1.0000
  Pd  Pd4       1.0  0.007916666821998621  0.0012500000231685893  0.999782202786509  1.0000
  Pd  Pd5       1.0  0.004583333250813232  0.0012500000231685893  0.9999871886846416  1.0000
  Pd  Pd6       1.0  0.0012499999526722951  0.0012500000231685893  0.9995772167888611  1.0000
  V   V19       1.0  0.008749999941750517  0.0012500000231685893  0.9994234772680972  1.0000
  V   V20       1.0  0.005416666734624397  0.0012500000231685893  0.9990135051064578  1.0000
  V   V21       1.0  0.002083333345468642  0.0012500000231685893  0.999218491278845  1.0000
  V   V22       1.0  0.007083333702246724  0.0012500000231685893  0.9989110121629885  1.0000
  V   V23       1.0  0.003750000131061336  0.0012500000231685893  0.9991159980611213  1.0000
  V   V24       1.0  0.00041666665089076506  0.0012500000231685893  0.9993209839620524  1.0000
  V   V25       1.0  0.008749999941750517  0.00624999992277137  0.9992697375488627  1.0000
  V   V26       1.0  0.005416666734624397  0.00624999992277137  0.9994747234581894  1.0000
  V   V27       1.0  0.002083333345468642  0.00624999992277137  0.9990647515596104  1.0000
  V   V28       1.0  0.00041666665089076506  0.00624999992277137  0.999474723681287  1.0000
  V   V29       1.0  0.007083333702246724  0.00624999992277137  0.9990647516135658  1.0000
  V   V30       1.0  0.003750000131061336  0.00624999992277137  0.9992697377803558  1.0000
  V   V31       1.0  0.006249999854376293  0.008749999969108548  0.9992697376590122  1.0000
  V   V32       1.0  0.0029166666472501723  0.008749999969108548  0.999474723568339  1.0000
  V   V33       1.0  0.009583333789620948  0.008749999969108548  0.9990647515034162  1.0000
  V   V34       1.0  0.006249999854376293  0.0037499998764341912  0.9992697376590122  1.0000
  V   V35       1.0  0.0029166666472501723  0.0037499998764341912  0.999474723568339  1.0000
  V   V36       1.0  0.009583333789620948  0.0037499998764341912  0.9990647515034162  1.0000
  Pd  Pd7       1.0  0.007916666821998621  0.00624999992277137  0.9994747233480399  1.0000
  Pd  Pd8       1.0  0.004583333250813232  0.00624999992277137  0.9990647517125212  1.0000
  Pd  Pd9       1.0  0.0012499999526722951  0.00624999992277137  0.999269737350392  1.0000
  Pd  Pd10      1.0  0.007916666821998621  0.0012500000231685893  0.9991672447155429  1.0000
  Pd  Pd11      1.0  0.004583333250813232  0.0012500000231685893  0.9993722303450182  1.0000
  Pd  Pd12      1.0  0.0012499999526722951  0.0012500000231685893  0.998962258717895  1.0000
