data_image0
_chemical_formula_structural       HSb12Si6V24
_chemical_formula_sum              "H1 Sb12 Si6 V24"
_cell_length_a       7.394185853531135
_cell_length_b       9.955298178377433
_cell_length_c       108.82138061523438
_cell_angle_alpha    91.95563259576137
_cell_angle_beta     92.39130306261568
_cell_angle_gamma    103.08292818103492

_space_group_name_H-M_alt    "P 1"
_space_group_IT_number       1

loop_
  _space_group_symop_operation_xyz
  'x, y, z'

loop_
  _atom_site_type_symbol
  _atom_site_label
  _atom_site_symmetry_multiplicity
  _atom_site_fract_x
  _atom_site_fract_y
  _atom_site_fract_z
  _atom_site_occupancy
  H   H1        1.0  0.0054538306020357075  0.0075989842751838154  4.2968985275740355e-05  1.0000
  Sb  Sb1       1.0  0.0014083259524984553  0.0029631181921332063  0.9999222807949502  1.0000
  Sb  Sb2       1.0  0.0022978673994277906  0.009650759860663806  0.9996190070163214  1.0000
  Sb  Sb3       1.0  0.0031312008461123527  0.0063174265324579286  0.9993217205689401  1.0000
  Sb  Sb4       1.0  0.005897548197157458  0.0037108873919370206  0.9993407240875128  1.0000
  Sb  Sb5       1.0  0.004179008524414702  0.00033068535915742873  0.9999499339715981  1.0000
  Sb  Sb6       1.0  0.00506421443531504  0.007044220720142898  0.9996380105340007  1.0000
  Sb  Sb7       1.0  0.004935785349449224  0.0031971707238666615  0.9996838270343763  1.0000
  Sb  Sb8       1.0  0.005769118795368011  0.00986383718799882  0.9993865402166273  1.0000
  Sb  Sb9       1.0  0.004189224989753978  0.006424422821566306  0.9999901266417954  1.0000
  Sb  Sb10      1.0  0.008535465878447014  0.0072572988165963  0.9994055437368415  1.0000
  Sb  Sb11      1.0  0.007293775226370537  0.0038047632904641923  1.9862783710950564e-05  1.0000
  Sb  Sb12      1.0  0.007702132789101752  0.0005906318717651496  0.9997028305541008  1.0000
  Si  Si1       1.0  0.000624999921297455  0.0026206957258503717  0.999437953886874  1.0000
  Si  Si2       1.0  0.008966926899200945  0.009267398183984735  4.573686807796199e-05  1.0000
  Si  Si3       1.0  0.009791666614364921  0.005954029246335846  0.9997352404584908  1.0000
  Si  Si4       1.0  0.00020833322947095946  0.00428736238995331  0.999586597110654  1.0000
  Si  Si5       1.0  0.0010416666761555217  0.000954029061747433  0.9992893106632726  1.0000
  Si  Si6       1.0  0.009307757174530472  0.00773573813928382  0.9998753893120077  1.0000
  V   V1        1.0  0.009621280387734295  0.004702500192833362  0.9993650115214975  1.0000
  V   V2        1.0  0.007892116544827304  0.001205358780529939  0.9999472471054136  1.0000
  V   V3        1.0  0.008787946878018161  0.00803583352103924  0.9996622985164293  1.0000
  V   V4        1.0  0.0033465410284570073  0.004541400655279022  0.9995015004737084  1.0000
  V   V5        1.0  0.004179874538173141  0.0012080673270731446  0.9992042137526412  1.0000
  V   V6        1.0  0.0025255420733917375  0.00784691189491672  0.9998092234979732  1.0000
  V   V7        1.0  0.0026278276584945875  0.00499988097123827  0.9997578975049135  1.0000
  V   V8        1.0  0.0034611611012191957  0.00166654783531199  0.999460610510392  1.0000
  V   V9        1.0  0.0017623068304791652  0.008097278389058032  3.0275215484831697e-05  1.0000
  V   V10       1.0  0.007372171941134918  0.005241510280491693  0.9995639406100676  1.0000
  V   V11       1.0  0.008205505509922667  0.001908177144565412  0.9992666541636327  1.0000
  V   V12       1.0  0.006473804734139102  0.00861344912162496  0.9998687788322775  1.0000
  V   V13       1.0  0.00786053951102869  0.006548690048636832  4.3563152749595094e-05  1.0000
  V   V14       1.0  0.008479696353383493  0.0034694961248246904  0.9997722653283168  1.0000
  V   V15       1.0  0.009313029314543345  0.00013616265240911507  0.9994749783313795  1.0000
  V   V16       1.0  0.0006901352409615537  0.00017646385506754015  0.9998485128733976  1.0000
  V   V17       1.0  0.0015203038765617231  0.006771895126905273  0.9995495727884512  1.0000
  V   V18       1.0  0.0023536373783579474  0.003438562183258589  0.9992522857946976  1.0000
  V   V19       1.0  0.006721182532221798  0.005646984495385487  0.9998289552944746  1.0000
  V   V20       1.0  0.007486792518149673  0.0023666574605246604  0.9995230506481808  1.0000
  V   V21       1.0  0.008320125459815893  0.009033323924656817  0.9992257638290022  1.0000
  V   V22       1.0  0.0012120530288492893  0.002205558115249917  0.9996595396006235  1.0000
  V   V23       1.0  0.0020453861635701762  0.008872224387102478  0.9993622527813919  1.0000
  V   V24       1.0  0.00039787670564881637  0.00568518929763272  0.9999495774090813  1.0000
