data_image0
_chemical_formula_structural       COIn8Sb8In8Sb8
_chemical_formula_sum              "C1 O1 In16 Sb16"
_cell_length_a       8.107207298278809
_cell_length_b       16.120921594326422
_cell_length_c       102.76488494873047
_cell_angle_alpha    98.34739308133511
_cell_angle_beta     90.0
_cell_angle_gamma    75.43667534738012

_space_group_name_H-M_alt    "P 1"
_space_group_IT_number       1

loop_
  _space_group_symop_operation_xyz
  'x, y, z'

loop_
  _atom_site_type_symbol
  _atom_site_label
  _atom_site_symmetry_multiplicity
  _atom_site_fract_x
  _atom_site_fract_y
  _atom_site_fract_z
  _atom_site_occupancy
  C   C1        1.0  0.00432883689646997  0.006758992824713017  0.00034634520483499344  1.0000
  O   O1        1.0  0.00432883689646997  0.006758992824713017  0.00046311626646793443  1.0000
  In  In1       1.0  0.004426068617836562  0.006564529381979833  0.9996940226240901  1.0000
  In  In2       1.0  0.00692606859127296  0.0015645294351070386  0.9995801535153139  1.0000
  In  In3       1.0  0.0019260685637027483  0.0015645294351070386  0.9993524152605411  1.0000
  In  In4       1.0  0.009426068875158533  0.006564529381979833  0.9994662843693173  1.0000
  In  In5       1.0  0.006509401980593559  0.009064529053557107  0.9997509571716038  1.0000
  In  In6       1.0  0.009009401893658132  0.004064529227427962  0.9996370880655774  1.0000
  In  In7       1.0  0.004009402095839682  0.004064529227427962  0.9994093498108045  1.0000
  In  In8       1.0  0.0015094021827751084  0.009064529053557107  0.9995232189168309  1.0000
  Sb  Sb1       1.0  0.0034905982606226777  0.008435470096407603  0.9997366310948879  1.0000
  Sb  Sb2       1.0  0.005990598052943601  0.0034354705117657556  0.9996227619943611  1.0000
  Sb  Sb3       1.0  0.0009905980253733899  0.0034354705117657556  0.9993950237395882  1.0000
  Sb  Sb4       1.0  0.00849059851794465  0.008435470096407603  0.999508892840115  1.0000
  Sb  Sb5       1.0  0.008073931294956949  0.005935470424830328  0.9996796965473743  1.0000
  Sb  Sb6       1.0  0.0005739314430046838  0.0009354704779575339  0.999565827438598  1.0000
  Sb  Sb7       1.0  0.005573931470574895  0.0009354704779575339  0.9993380891838253  1.0000
  Sb  Sb8       1.0  0.003073931497138498  0.005935470424830328  0.9994519582926015  1.0000
  In  In9       1.0  0.004426068617836562  0.006564529381979833  0.0001494994236407622  1.0000
  In  In10      1.0  0.00692606859127296  0.0015645294351070386  3.562973485470379e-05  1.0000
  In  In11      1.0  0.0019260685637027483  0.0015645294351070386  0.9998078917700868  1.0000
  In  In12      1.0  0.009426068875158533  0.006564529381979833  0.999921760878863  1.0000
  In  In13      1.0  0.006509401980593559  0.009064529053557107  0.00020643397115438405  1.0000
  In  In14      1.0  0.009009401893658132  0.004064529227427962  9.25648651279629e-05  1.0000
  In  In15      1.0  0.004009402095839682  0.004064529227427962  0.9998648263203502  1.0000
  In  In16      1.0  0.0015094021827751084  0.009064529053557107  0.9999786954263766  1.0000
  Sb  Sb9       1.0  0.0034905982606226777  0.008435470096407603  0.00019210731442865833  1.0000
  Sb  Sb10      1.0  0.005990598052943601  0.0034354705117657556  7.823879391166883e-05  1.0000
  Sb  Sb11      1.0  0.0009905980253733899  0.0034354705117657556  0.9998505002491339  1.0000
  Sb  Sb12      1.0  0.00849059851794465  0.008435470096407603  0.9999643693496607  1.0000
  Sb  Sb13      1.0  0.008073931294956949  0.005935470424830328  0.0001351733469248794  1.0000
  Sb  Sb14      1.0  0.0005739314430046838  0.0009354704779575339  2.1303658138820974e-05  1.0000
  Sb  Sb15      1.0  0.005573931470574895  0.0009354704779575339  0.9997935656933709  1.0000
  Sb  Sb16      1.0  0.003073931497138498  0.005935470424830328  0.9999074348021472  1.0000
