data_image0
_chemical_formula_structural       COPd6V3Pd6V3
_chemical_formula_sum              "C1 O1 Pd12 V6"
_cell_length_a       7.6533026695251465
_cell_length_b       4.803231191808496
_cell_length_c       98.80946350097656
_cell_angle_alpha    91.23251327246216
_cell_angle_beta     90.0
_cell_angle_gamma    113.47453004246306

_space_group_name_H-M_alt    "P 1"
_space_group_IT_number       1

loop_
  _space_group_symop_operation_xyz
  'x, y, z'

loop_
  _atom_site_type_symbol
  _atom_site_label
  _atom_site_symmetry_multiplicity
  _atom_site_fract_x
  _atom_site_fract_y
  _atom_site_fract_z
  _atom_site_occupancy
  C   C1        1.0  0.0028587685796906508  0.00230069859777975  0.0001229818857890298  1.0000
  O   O1        1.0  0.0028587685796906508  0.00230069859777975  0.00024442738593519436  1.0000
  Pd  Pd1       1.0  0.0014295582257209762  0.006577596079582873  0.9992977775525393  1.0000
  Pd  Pd2       1.0  0.004502729110079745  0.008870279091321568  0.9994769839804744  1.0000
  Pd  Pd3       1.0  0.0009750128210378562  0.004759414278316927  0.9995628374482826  1.0000
  Pd  Pd4       1.0  0.004037199985942545  0.007012900676791867  0.999744473412458  1.0000
  Pd  Pd5       1.0  0.0004972707509134827  0.0028560027007746226  0.9998368035641797  1.0000
  Pd  Pd6       1.0  0.003613705424277473  0.005322716205687046  5.565494249530459e-06  1.0000
  V   V1        1.0  0.0029661435811572665  0.002723937949143472  0.9993873805847877  1.0000
  V   V2        1.0  0.002511598400649785  0.0009057562536017276  0.9996524404806414  1.0000
  V   V3        1.0  0.0020577223648097897  0.009094243547636775  0.9998897175986005  1.0000
  Pd  Pd7       1.0  0.006429558123502235  0.006577596079582873  0.9992977775525393  1.0000
  Pd  Pd8       1.0  0.009502729129549982  0.008870279091321568  0.9994769839804744  1.0000
  Pd  Pd9       1.0  0.0059750126731857485  0.004759414278316927  0.9995628374482826  1.0000
  Pd  Pd10      1.0  0.009037199762034825  0.007012900676791867  0.999744473412458  1.0000
  Pd  Pd11      1.0  0.005497270679116986  0.0028560027007746226  0.9998368035641797  1.0000
  Pd  Pd12      1.0  0.00861370544374771  0.005322716205687046  5.565494249530459e-06  1.0000
  V   V4        1.0  0.007966143844005458  0.002723937949143472  0.9993873805847877  1.0000
  V   V5        1.0  0.007511598420120022  0.0009057562536017276  0.9996524404806414  1.0000
  V   V6        1.0  0.007057722140902072  0.009094243547636775  0.9998897175986005  1.0000
