data_image0
_chemical_formula_structural       COPd12V6
_chemical_formula_sum              "C1 O1 Pd12 V6"
_cell_length_a       4.803231230335089
_cell_length_b       7.235851435995372
_cell_length_c       41.80638122558594
_cell_angle_alpha    89.63361141489422
_cell_angle_beta     89.88030353948345
_cell_angle_gamma    82.34774780092249

_space_group_name_H-M_alt    "P 1"
_space_group_IT_number       1

loop_
  _space_group_symop_operation_xyz
  'x, y, z'

loop_
  _atom_site_type_symbol
  _atom_site_label
  _atom_site_symmetry_multiplicity
  _atom_site_fract_x
  _atom_site_fract_y
  _atom_site_fract_z
  _atom_site_occupancy
  C   C1        1.0  0.0016326081548413663  0.005408634825419555  0.00011830423771570972  1.0000
  O   O1        1.0  0.0016326081548413663  0.005408634825419555  0.0004053416268554461  1.0000
  Pd  Pd1       1.0  0.006171661082419248  0.002174673448149629  0.9996088423035575  1.0000
  Pd  Pd2       1.0  0.002308237779711305  0.00681599645786999  0.999902318830367  1.0000
  Pd  Pd3       1.0  0.007784212830343474  0.0049781863378082  0.9999926218415156  1.0000
  Pd  Pd4       1.0  0.001574841193655439  0.00045299530790244874  0.9997029981342905  1.0000
  Pd  Pd5       1.0  0.0042679658227116  0.0031576476838348915  0.9989856566738692  1.0000
  Pd  Pd6       1.0  0.0002961135817573094  0.007649037687602365  0.9992961862182707  1.0000
  Pd  Pd7       1.0  0.005764587248824083  0.005841801200139155  0.9993925967446582  1.0000
  Pd  Pd8       1.0  0.009703886314707262  0.0013909072987054677  0.9990849450998022  1.0000
  Pd  Pd9       1.0  0.0024497839724685233  0.004066738844162238  0.9983725790602895  1.0000
  Pd  Pd10      1.0  0.008358874712483146  0.008612193606851296  0.9986791177395423  1.0000
  Pd  Pd11      1.0  0.0037947953241868906  0.006845452702248036  0.9987784065148801  1.0000
  Pd  Pd12      1.0  0.00788570412877154  0.002299998199295896  0.9984718674865907  1.0000
  V   V1        1.0  0.0009660654594068761  0.0040310842379769314  0.9995056664292917  1.0000
  V   V2        1.0  0.00678843560184788  0.00858292333410642  0.9997361411496039  1.0000
  V   V3        1.0  0.009031380565693428  0.005001550193041464  0.9988820315981636  1.0000
  V   V4        1.0  0.004940471217023241  0.009547005475204358  0.9991885702692886  1.0000
  V   V5        1.0  0.007213198327659482  0.00591064135336881  0.9982689536282444  1.0000
  V   V6        1.0  0.0031222895927097024  0.0004560956251550941  0.9985754925623184  1.0000
