data_image0
_chemical_formula_structural       HPd6Sn6Ti6
_chemical_formula_sum              "H1 Pd6 Sn6 Ti6"
_cell_length_a       6.24822998046875
_cell_length_b       7.6524877026309905
_cell_length_c       103.64775085449219
_cell_angle_alpha    94.34775286398813
_cell_angle_beta     90.0
_cell_angle_gamma    114.09484228833617

_space_group_name_H-M_alt    "P 1"
_space_group_IT_number       1

loop_
  _space_group_symop_operation_xyz
  'x, y, z'

loop_
  _atom_site_type_symbol
  _atom_site_label
  _atom_site_symmetry_multiplicity
  _atom_site_fract_x
  _atom_site_fract_y
  _atom_site_fract_z
  _atom_site_occupancy
  H   H1        1.0  0.0049523534649732965  0.0002849149993552879  8.958780278949107e-05  1.0000
  Pd  Pd1       1.0  0.004756634052374651  0.005016532734079293  0.999965932341634  1.0000
  Pd  Pd2       1.0  0.0006250000383633503  0.006798418391949335  0.9997000433568751  1.0000
  Pd  Pd3       1.0  0.006458333187263052  0.00846508477321888  0.9994295136014378  1.0000
  Pd  Pd4       1.0  0.00937499990138125  0.004298418284925415  0.9992942487945247  1.0000
  Pd  Pd5       1.0  0.007794823181595294  0.0009186444990304488  0.999828867521951  1.0000
  Pd  Pd6       1.0  0.0035416666187016465  0.0026317516360960685  0.9995647782609296  1.0000
  Sn  Sn1       1.0  0.0016893263246145456  0.0039264756479484965  0.999767232910909  1.0000
  Sn  Sn2       1.0  0.007499999889751777  0.005548418070877575  0.9994971457866676  1.0000
  Sn  Sn3       1.0  0.005838372051717348  0.001987118071228614  4.341064643068276e-05  1.0000
  Sn  Sn4       1.0  0.0045833331197383965  0.009715084559171042  0.9996324105935808  1.0000
  Sn  Sn5       1.0  0.00041666666107142395  0.0013817517163640086  0.9993618812680379  1.0000
  Sn  Sn6       1.0  0.008853404489222973  0.007966281065191094  0.9999161612263665  1.0000
  Ti  Ti1       1.0  0.00958333313389851  0.009715084559171042  0.9996324105935808  1.0000
  Ti  Ti2       1.0  0.005416666414387345  0.0013817517163640086  0.9993618812680379  1.0000
  Ti  Ti3       1.0  0.0038597170284502685  0.008169476144453866  0.9998968686289909  1.0000
  Ti  Ti4       1.0  0.00667291832202369  0.0039055746790652305  0.9997740771392278  1.0000
  Ti  Ti5       1.0  0.0024999998942233912  0.005548418070877575  0.9994971457866676  1.0000
  Ti  Ti6       1.0  0.0009829253162331663  0.001800644944335575  1.0078506754030058e-05  1.0000
