data_image0
_chemical_formula_structural       COAl6Cr6Mn12
_chemical_formula_sum              "C1 O1 Al6 Cr6 Mn12"
_cell_length_a       7.015695314019395
_cell_length_b       5.7282915115356445
_cell_length_c       100.84779357910156
_cell_angle_alpha    90.0
_cell_angle_beta     85.65224672885479
_cell_angle_gamma    114.09484378136614

_space_group_name_H-M_alt    "P 1"
_space_group_IT_number       1

loop_
  _space_group_symop_operation_xyz
  'x, y, z'

loop_
  _atom_site_type_symbol
  _atom_site_label
  _atom_site_symmetry_multiplicity
  _atom_site_fract_x
  _atom_site_fract_y
  _atom_site_fract_z
  _atom_site_occupancy
  C   C1        1.0  0.006146016316480878  0.003329142040256656  9.991012089384808e-05  1.0000
  O   O1        1.0  0.006146016316480878  0.003329142040256656  0.00021890156228103775  1.0000
  Al  Al1       1.0  0.0009410120144935354  0.005678177627943612  0.9999408280196871  1.0000
  Al  Al2       1.0  0.0077083333878111325  0.004062499987406076  0.999415126589894  1.0000
  Al  Al3       1.0  0.009375000350214428  0.009895833183274633  0.9996700306208378  1.0000
  Al  Al4       1.0  0.005403738586651865  0.0029103981944470256  0.9998009497449347  1.0000
  Al  Al5       1.0  0.0018750000408583498  0.0011458333545754232  0.9992876747362489  1.0000
  Al  Al6       1.0  0.0035416668573389665  0.006979166436836903  0.9995425787679623  1.0000
  Cr  Cr1       1.0  0.0014749784083465866  0.0009448305384051563  0.99990876513864  1.0000
  Cr  Cr2       1.0  0.0077083333878111325  0.009062499702072986  0.999415126589894  1.0000
  Cr  Cr3       1.0  0.009375000350214428  0.004895833509253463  0.9996700306208378  1.0000
  Cr  Cr4       1.0  0.005077078413365393  0.007746707355731344  0.9997718990543393  1.0000
  Cr  Cr5       1.0  0.0018750000408583498  0.0061458330285965946  0.9992876747362489  1.0000
  Cr  Cr6       1.0  0.0035416668573389665  0.0019791667221699923  0.9995425787679623  1.0000
  Mn  Mn1       1.0  0.0022910693740134692  0.0038156171994964357  0.9997418495300816  1.0000
  Mn  Mn2       1.0  0.004786014618267767  0.00951935195083247  0.9999747242933364  1.0000
  Mn  Mn3       1.0  0.0006250000379398964  0.008020833118183824  0.9994788525463915  1.0000
  Mn  Mn4       1.0  0.007955804825629824  0.0012006424509174891  0.9998803782298005  1.0000
  Mn  Mn5       1.0  0.004791666787296081  0.00010416677900792012  0.9993514006626867  1.0000
  Mn  Mn6       1.0  0.006458333457854019  0.005937499971213887  0.9996063046951696  1.0000
  Mn  Mn7       1.0  0.007955841014454087  0.007170628049756872  0.9998803715375526  1.0000
  Mn  Mn8       1.0  0.004791666787296081  0.005104166635934918  0.9993514006626867  1.0000
  Mn  Mn9       1.0  0.006458333457854019  0.0009375001142868892  0.9996063046951696  1.0000
  Mn  Mn10      1.0  0.0022908817174489417  0.008891257783925615  0.9997418540659727  1.0000
  Mn  Mn11      1.0  0.004786971287347894  0.005683013288312324  0.9999747541190902  1.0000
  Mn  Mn12      1.0  0.0006250000379398964  0.0030208332612568253  0.9994788525463915  1.0000
