data_image0
_chemical_formula_structural       COPt12Si4
_chemical_formula_sum              "C1 O1 Pt12 Si4"
_cell_length_a       5.465289996659149
_cell_length_b       5.561720013803738
_cell_length_c       107.05078887939453
_cell_angle_alpha    85.73876404398068
_cell_angle_beta     86.84767457512801
_cell_angle_gamma    61.31671524370346

_space_group_name_H-M_alt    "P 1"
_space_group_IT_number       1

loop_
  _space_group_symop_operation_xyz
  'x, y, z'

loop_
  _atom_site_type_symbol
  _atom_site_label
  _atom_site_symmetry_multiplicity
  _atom_site_fract_x
  _atom_site_fract_y
  _atom_site_fract_z
  _atom_site_occupancy
  C   C1        1.0  0.007945202003119952  0.0019214168625179234  0.9999702767837635  1.0000
  O   O1        1.0  0.007945202003119952  0.0019214168625179234  8.237277894173866e-05  1.0000
  Pt  Pt1       1.0  0.00036632046669784145  0.005455381698908209  0.9991649603907043  1.0000
  Pt  Pt2       1.0  0.006616320630536278  0.0017053816989082084  0.9995975911816178  1.0000
  Pt  Pt3       1.0  0.00963367939545641  0.005443251359234229  0.9997938919276268  1.0000
  Pt  Pt4       1.0  0.0031898649732134505  0.009243584163636631  0.9993604088504828  1.0000
  Pt  Pt5       1.0  0.007551287703850781  0.009364363013413722  0.9999675250485252  1.0000
  Pt  Pt6       1.0  0.0010560327461465236  0.0029380146830329397  0.9995588075180701  1.0000
  Pt  Pt7       1.0  0.005102786162698928  0.004345784034075061  0.9998275970559137  1.0000
  Pt  Pt8       1.0  0.008750152701985285  0.00801095079718904  0.9993991925159433  1.0000
  Pt  Pt9       1.0  0.004502260716943382  0.003703441869185634  0.9993564067702554  1.0000
  Pt  Pt10      1.0  0.0009472687295230197  0.009885948503251885  0.9997883859541674  1.0000
  Pt  Pt11      1.0  0.009053925017905692  0.0009955236110363458  0.9991689621792658  1.0000
  Pt  Pt12      1.0  0.005303925072518502  0.007245523611036346  0.9996015932627998  1.0000
  Si  Si1       1.0  0.00885532845647788  0.0036908202446376925  0.9993555333663238  1.0000
  Si  Si2       1.0  0.005058280548608309  0.0001140519029661525  0.999791649333317  1.0000
  Si  Si3       1.0  0.004700857231943152  0.0010081453311650021  0.999169835861353  1.0000
  Si  Si4       1.0  0.0009508571472718478  0.007258145617907147  0.9996024666657769  1.0000
