data_image0
_chemical_formula_structural       HIn12Pd24In12Pd24
_chemical_formula_sum              "H1 In24 Pd48"
_cell_length_a       10.359736690695403
_cell_length_b       9.479441124538946
_cell_length_c       105.95824432373047
_cell_angle_alpha    105.77612839319943
_cell_angle_beta     92.98868484467724
_cell_angle_gamma    67.8227564269753

_space_group_name_H-M_alt    "P 1"
_space_group_IT_number       1

loop_
  _space_group_symop_operation_xyz
  'x, y, z'

loop_
  _atom_site_type_symbol
  _atom_site_label
  _atom_site_symmetry_multiplicity
  _atom_site_fract_x
  _atom_site_fract_y
  _atom_site_fract_z
  _atom_site_occupancy
  H   H1        1.0  0.006463899461657381  0.0006138730048209851  0.0002194152131087703  1.0000
  In  In1       1.0  0.003907479982640619  0.009060400847921085  0.999494401823449  1.0000
  In  In2       1.0  0.007240812864670036  0.009060400847921085  0.9992681603179548  1.0000
  In  In3       1.0  0.0005741463804453781  0.009060400847921085  0.9990419185006749  1.0000
  In  In4       1.0  0.0060925203818632525  0.0010645171608981894  0.9989089472276657  1.0000
  In  In5       1.0  0.00942585326389267  0.0010645171608981894  0.9993614305467686  1.0000
  In  In6       1.0  0.002759186779668011  0.0010645171608981894  0.9991351887294886  1.0000
  In  In7       1.0  0.006572774622581023  0.006064517262351678  0.9989741391719458  1.0000
  In  In8       1.0  0.009906107504610441  0.006064517262351678  0.9994266224910486  1.0000
  In  In9       1.0  0.0032394410203857825  0.006064517262351678  0.9992003809550335  1.0000
  In  In10      1.0  0.0034272257786813563  0.0040604006361920665  0.9994292095954093  1.0000
  In  In11      1.0  0.006760559380876597  0.0040604006361920665  0.9992029680935863  1.0000
  In  In12      1.0  9.38923565275716e-05  0.0040604006361920665  0.9989767265548177  1.0000
  Pd  Pd1       1.0  0.006506023924115816  0.0023724796871412955  0.9993932154932614  1.0000
  Pd  Pd2       1.0  0.009839357526311055  0.0023724796871412955  0.9991669737101737  1.0000
  Pd  Pd3       1.0  0.003172691042086398  0.0023724796871412955  0.9989407321741585  1.0000
  Pd  Pd4       1.0  0.0034939756099467032  0.007752438652504573  0.9990101335616668  1.0000
  Pd  Pd5       1.0  0.006827309212141943  0.007752438652504573  0.9994626168844408  1.0000
  Pd  Pd6       1.0  0.00016064236783437406  0.007752438652504573  0.99923637534659  1.0000
  Pd  Pd7       1.0  0.008046037883771125  0.0027524382202244913  0.9989493284318214  1.0000
  Pd  Pd8       1.0  0.0013793713995464657  0.0027524382202244913  0.9994018114391383  1.0000
  Pd  Pd9       1.0  0.004712704641658795  0.0027524382202244913  0.9991755699354798  1.0000
  Pd  Pd10      1.0  0.0019539620838913254  0.007372479898870315  0.9994540206199526  1.0000
  Pd  Pd11      1.0  0.005287295326003655  0.007372479898870315  0.9992277791162941  1.0000
  Pd  Pd12      1.0  0.008620628208033072  0.007372479898870315  0.9990015373295352  1.0000
  Pd  Pd13      1.0  0.0044571653183752506  0.0007845955170092367  0.9993466819232409  1.0000
  Pd  Pd14      1.0  0.0077904982004046676  0.0007845955170092367  0.9991204401364822  1.0000
  Pd  Pd15      1.0  0.0011238318062007375  0.0007845955170092367  0.9988941986009258  1.0000
  Pd  Pd16      1.0  0.0055428350461286195  0.009340322491810039  0.9990566671278737  1.0000
  Pd  Pd17      1.0  0.008876167928158039  0.009340322491810039  0.9995091504469765  1.0000
  Pd  Pd18      1.0  0.002209501443933379  0.009340322491810039  0.9992829089109614  1.0000
  Pd  Pd19      1.0  0.004938589892429881  0.004340322280081019  0.9989746439483234  1.0000
  Pd  Pd20      1.0  0.0082719227744593  0.004340322280081019  0.9994271269861615  1.0000
  Pd  Pd21      1.0  0.00160525629023464  0.004340322280081019  0.9992008854501463  1.0000
  Pd  Pd22      1.0  0.005061410508832499  0.0057845956184627255  0.9994287051002964  1.0000
  Pd  Pd23      1.0  0.008394743390861917  0.0057845956184627255  0.9992024633135376  1.0000
  Pd  Pd24      1.0  0.00172807726672017  0.0057845956184627255  0.9989762217793579  1.0000
  In  In13      1.0  0.0038969984449780184  0.008983626140922995  0.00016486214900509846  1.0000
  In  In14      1.0  0.00718546497461042  0.009108330122580374  0.9999506832637416  1.0000
  In  In15      1.0  0.0005741463804453781  0.009060400847921085  0.9997206436065367  1.0000
  In  In16      1.0  0.0060925203818632525  0.0010645171608981894  0.9995876720522627  1.0000
  In  In17      1.0  0.009498571091837417  0.0011552716072570092  6.04917358100141e-05  1.0000
  In  In18      1.0  0.002759186779668011  0.0010645171608981894  0.9998139135540856  1.0000
  In  In19      1.0  0.006572774622581023  0.006064517262351678  0.9996528639965427  1.0000
  In  In20      1.0  0.009877946744271657  0.006069679039414232  0.00011511985816408484  1.0000
  In  In21      1.0  0.0032394410203857825  0.006064517262351678  0.9998791054983657  1.0000
  In  In22      1.0  0.0034651432198338386  0.0040908150687882176  0.00011746491461506156  1.0000
  In  In23      1.0  0.006760559380876597  0.0040604006361920665  0.9998816931994481  1.0000
  In  In24      1.0  9.38923565275716e-05  0.0040604006361920665  0.9996554510981499  1.0000
  Pd  Pd25      1.0  0.006559042704487796  0.002339998249989075  6.637098643782161e-05  1.0000
  Pd  Pd26      1.0  0.009839357526311055  0.0023724796871412955  0.9998456985347707  1.0000
  Pd  Pd27      1.0  0.003172691042086398  0.0023724796871412955  0.9996194569987555  1.0000
  Pd  Pd28      1.0  0.0034939756099467032  0.007752438652504573  0.9996888586675285  1.0000
  Pd  Pd29      1.0  0.00683486911745168  0.007591571354260591  0.0001302192151837624  1.0000
  Pd  Pd30      1.0  0.00015751357657816417  0.007768941165191659  0.9999136545849252  1.0000
  Pd  Pd31      1.0  0.008046037883771125  0.0027524382202244913  0.9996280529751536  1.0000
  Pd  Pd32      1.0  0.0013946485523756483  0.0028160608057232104  7.560565851695992e-05  1.0000
  Pd  Pd33      1.0  0.004712704641658795  0.0027524382202244913  0.999854294478812  1.0000
  Pd  Pd34      1.0  0.0019713530943574506  0.007323994835533978  0.00012509877669245354  1.0000
  Pd  Pd35      1.0  0.005278145618754262  0.007409847865359314  0.9999043929641581  1.0000
  Pd  Pd36      1.0  0.008620628208033072  0.007372479898870315  0.9996802621541322  1.0000
  Pd  Pd37      1.0  0.004388198992546882  0.0008531394789125801  2.801312386212051e-05  1.0000
  Pd  Pd38      1.0  0.0077904982004046676  0.0007845955170092367  0.9997991649610791  1.0000
  Pd  Pd39      1.0  0.0011238318062007375  0.0007845955170092367  0.9995729234255228  1.0000
  Pd  Pd40      1.0  0.0055428350461286195  0.009340322491810039  0.9997353922337354  1.0000
  Pd  Pd41      1.0  0.008744510872157414  0.009255987294395595  0.00016491974158750936  1.0000
  Pd  Pd42      1.0  0.0021739010537461106  0.009386127418637055  0.999960783167907  1.0000
  Pd  Pd43      1.0  0.004938589892429881  0.004340322280081019  0.9996533684916556  1.0000
  Pd  Pd44      1.0  0.008236523517889211  0.004334660293209122  9.74436182477725e-05  1.0000
  Pd  Pd45      1.0  0.00160525629023464  0.004340322280081019  0.999879610556008  1.0000
  Pd  Pd46      1.0  0.005079254350883781  0.005742590345337371  0.00010233730174009078  1.0000
  Pd  Pd47      1.0  0.008394743390861917  0.0057845956184627255  0.9998811881381345  1.0000
  Pd  Pd48      1.0  0.00172807726672017  0.0057845956184627255  0.9996549466039549  1.0000
