data_image0
_chemical_formula_structural       COSn2Pt2Sn2Pt2Sn2Pt2Sn2Pt2
_chemical_formula_sum              "C1 O1 Sn8 Pt8"
_cell_length_a       8.406040784873108
_cell_length_b       5.541849136352539
_cell_length_c       103.62416076660156
_cell_angle_alpha    90.0
_cell_angle_beta     120.00000141846125
_cell_angle_gamma    90.0

_space_group_name_H-M_alt    "P 1"
_space_group_IT_number       1

loop_
  _space_group_symop_operation_xyz
  'x, y, z'

loop_
  _atom_site_type_symbol
  _atom_site_label
  _atom_site_symmetry_multiplicity
  _atom_site_fract_x
  _atom_site_fract_y
  _atom_site_fract_z
  _atom_site_occupancy
  C   C1        1.0  0.006142391159925226  0.007519284380619681  0.00024913684433742485  1.0000
  O   O1        1.0  0.006142391159925226  0.007519284380619681  0.00036494018817075525  1.0000
  Sn  Sn1       1.0  0.0017138961349149773  0.007519283708408979  0.9995306480060614  1.0000
  Sn  Sn2       1.0  0.003380562717999631  0.0025192837084089792  0.9998010496320998  1.0000
  Pt  Pt1       1.0  4.7229451883720104e-05  0.005019283708408979  0.9996658488431199  1.0000
  Pt  Pt2       1.0  4.7229451883720104e-05  1.9283600750234198e-05  0.9996658488431199  1.0000
  Sn  Sn3       1.0  0.0016878473313678229  0.007519284380619681  0.9999320294632933  1.0000
  Sn  Sn4       1.0  0.0032061903396364733  0.00251928555698841  0.00017836814158147084  1.0000
  Pt  Pt3       1.0  0.009952770458404208  0.005057852469648342  5.613203932733332e-05  1.0000
  Pt  Pt4       1.0  0.009952770458404208  0.009980716963801721  5.613203932733332e-05  1.0000
  Sn  Sn5       1.0  0.006713896140032243  0.007519283708408979  0.9995306482478531  1.0000
  Sn  Sn6       1.0  0.008380563106911857  0.0025192837084089792  0.9998010498894583  1.0000
  Pt  Pt5       1.0  0.005047229684879243  0.005019283708408979  0.9996658488065542  1.0000
  Pt  Pt6       1.0  0.005047229684879243  1.9283600750234198e-05  0.9996658488065542  1.0000
  Sn  Sn7       1.0  0.006687847208553436  0.007519284380619681  0.9999320294122959  1.0000
  Sn  Sn8       1.0  0.008206190216822087  0.00251928555698841  0.00017836809058406893  1.0000
  Pt  Pt7       1.0  0.004952770069491983  0.005057852469648342  5.6131781968849646e-05  1.0000
  Pt  Pt8       1.0  0.004952770581218595  0.009980716963801721  5.613180272460257e-05  1.0000
