data_image0
_chemical_formula_structural       Si12V20H
_chemical_formula_sum              "Si12 V20 H1"
_cell_length_a       4.744046688079834
_cell_length_b       7.079945706893938
_cell_length_c       29.97539520263672
_cell_angle_alpha    90.0
_cell_angle_beta     90.0
_cell_angle_gamma    109.5746124716462

_space_group_name_H-M_alt    "P 1"
_space_group_IT_number       1

loop_
  _space_group_symop_operation_xyz
  'x, y, z'

loop_
  _atom_site_type_symbol
  _atom_site_label
  _atom_site_symmetry_multiplicity
  _atom_site_fract_x
  _atom_site_fract_y
  _atom_site_fract_z
  _atom_site_occupancy
  Si  Si1       1.0  0.009199708916029165  0.009046483049602587  0.9977353367149749  1.0000
  Si  Si2       1.0  0.004167799981223586  0.008975041093881583  0.9999997295704816  1.0000
  Si  Si3       1.0  0.007540774069943658  0.0007286138914055378  0.9966226298542894  1.0000
  Si  Si4       1.0  0.002540774014975751  0.0007286138914055378  0.9988480443213301  1.0000
  Si  Si5       1.0  0.007540774422094271  0.005728614061732802  0.9962482858049477  1.0000
  Si  Si6       1.0  0.0025407740235769403  0.005728614061732802  0.9984737002719885  1.0000
  Si  Si7       1.0  0.0009171508103909306  0.0024824464296296115  0.0  1.0000
  Si  Si8       1.0  0.005881839928159378  0.0024107450738630157  0.9977353367149749  1.0000
  Si  Si9       1.0  0.007540774069943658  0.0007286138914055378  0.9988480443213301  1.0000
  Si  Si10      1.0  0.002540774014975751  0.0007286138914055378  0.9966226298542894  1.0000
  Si  Si11      1.0  0.0025407740235769403  0.005728614061732802  0.9969969736550744  1.0000
  Si  Si12      1.0  0.007540774422094271  0.005728614061732802  0.9992223878735587  1.0000
  V   V1        1.0  0.004289366276003794  0.00922579856658651  0.9972897812161565  1.0000
  V   V2        1.0  0.009314428076951748  0.009271386519055244  0.9995369615310828  1.0000
  V   V3        1.0  0.009959226808637386  0.0057278914273754394  0.9999406312755555  1.0000
  V   V4        1.0  0.0050407741001393825  0.005728614061732802  0.9977353367149749  1.0000
  V   V5        1.0  0.001539711740954402  0.0037264893983307472  0.9962881910607614  1.0000
  V   V6        1.0  0.006539712090393245  0.0037264893983307472  0.9985136055278021  1.0000
  V   V7        1.0  0.008541836221554874  0.007730738445909833  0.9969570686478174  1.0000
  V   V8        1.0  0.003541836166586967  0.007730738445909833  0.9991824831148581  1.0000
  V   V9        1.0  0.0051222568083947595  0.005726505354365414  0.9999406113910322  1.0000
  V   V10       1.0  4.077384885751901e-05  0.005728614061732802  0.9977353367149749  1.0000
  V   V11       1.0  0.006539712090393245  0.0037264893983307472  0.9969570686478174  1.0000
  V   V12       1.0  0.001539711740954402  0.0037264893983307472  0.9991824831148581  1.0000
  V   V13       1.0  0.0059210569242601555  0.0024927590473732193  0.0003175016535969671  1.0000
  V   V14       1.0  0.0007921818409563414  0.0022314296964916045  0.9981808927109064  1.0000
  V   V15       1.0  0.004289366276003794  0.00922579856658651  0.9981808927109064  1.0000
  V   V16       1.0  0.009162127875346978  0.00896078833185021  0.0003179122690054684  1.0000
  V   V17       1.0  0.003541836166586967  0.007730738445909833  0.9962881910607614  1.0000
  V   V18       1.0  0.008541836221554874  0.007730738445909833  0.9985136055278021  1.0000
  V   V19       1.0  0.005769516782285209  0.0021847520683738715  0.9995368297961152  1.0000
  V   V20       1.0  0.0007921818409563414  0.0022314296964916045  0.9972897812161565  1.0000
  H   H1        1.0  0.008249469183395104  0.004727190273240582  0.9997275288381267  1.0000
