data_image0
_chemical_formula_structural       COCu8In8Se16
_chemical_formula_sum              "C1 O1 Cu8 In8 Se16"
_cell_length_a       8.426204681396484
_cell_length_b       7.316005334635001
_cell_length_c       111.33272552490234
_cell_angle_alpha    89.79290857860447
_cell_angle_beta     90.0
_cell_angle_gamma    90.0

_space_group_name_H-M_alt    "P 1"
_space_group_IT_number       1

loop_
  _space_group_symop_operation_xyz
  'x, y, z'

loop_
  _atom_site_type_symbol
  _atom_site_label
  _atom_site_symmetry_multiplicity
  _atom_site_fract_x
  _atom_site_fract_y
  _atom_site_fract_z
  _atom_site_occupancy
  C   C1        1.0  0.009380473116963401  0.005161098863138273  7.580966326481364e-05  1.0000
  O   O1        1.0  0.009380473116963401  0.005161098863138273  0.00018359490127204238  1.0000
  Cu  Cu1       1.0  0.008320239516854478  0.005833333333333334  0.9995993127742578  1.0000
  Cu  Cu2       1.0  0.0033202399501200608  0.009166666666666667  0.9992899347080975  1.0000
  Cu  Cu3       1.0  0.003207835383850247  0.002460034623607031  0.9998434114754586  1.0000
  Cu  Cu4       1.0  0.008320239516854478  0.0025  0.998980556062562  1.0000
  Cu  Cu5       1.0  0.005820239622960334  0.004166666666666667  0.9992899342845664  1.0000
  Cu  Cu6       1.0  0.0008202398904355162  0.0075  0.998980556218406  1.0000
  Cu  Cu7       1.0  0.0008202398904355162  0.0008333333969834139  0.9995993128860857  1.0000
  Cu  Cu8       1.0  0.005766254731189441  0.00769377732370659  0.9998437418510316  1.0000
  In  In1       1.0  0.008320239516854478  0.009166666666666667  0.9992899347080975  1.0000
  In  In2       1.0  0.0033202399501200608  0.0025  0.998980556062562  1.0000
  In  In3       1.0  0.0033202399501200608  0.005833333333333334  0.9995993127742578  1.0000
  In  In4       1.0  0.008141419315521583  0.0026031334985587586  0.9999993817186532  1.0000
  In  In5       1.0  0.005820239622960334  0.0008333333969834139  0.9995993128860857  1.0000
  In  In6       1.0  0.0008202398904355162  0.004166666666666667  0.9992899342845664  1.0000
  In  In7       1.0  0.0006195270112478434  0.0077361784613830375  0.9998410875680512  1.0000
  In  In8       1.0  0.005820239622960334  0.0075  0.998980556218406  1.0000
  Se  Se1       1.0  0.005667016133381457  0.007397850786287267  0.9992220705523608  1.0000
  Se  Se2       1.0  0.0006670160140123679  0.0007311841196206007  0.9989126924421994  1.0000
  Se  Se3       1.0  0.0006670160140123679  0.004064517452953934  0.9995314491538952  1.0000
  Se  Se4       1.0  0.005690085315192684  0.0009479988261906741  0.9998387386254616  1.0000
  Se  Se5       1.0  0.00597346355464695  0.004268815880379399  0.9995124874733833  1.0000
  Se  Se6       1.0  0.0009734636563317298  0.007602149213712732  0.9992031088718488  1.0000
  Se  Se7       1.0  0.0006298043030077417  0.0012569640826159715  0.9998237716729537  1.0000
  Se  Se8       1.0  0.00597346355464695  0.0009354826106961465  0.9988937307616722  1.0000
  Se  Se9       1.0  0.003473463660752807  0.0023978507862872675  0.9992220706642038  1.0000
  Se  Se10      1.0  0.008473463448541092  0.005731184119620601  0.9989126923303564  1.0000
  Se  Se11      1.0  0.008473463448541092  0.00906451796215458  0.9995314490419313  1.0000
  Se  Se12      1.0  0.003356268857132962  0.005823700784739297  0.9998434868224688  1.0000
  Se  Se13      1.0  0.008167015585167862  0.0026021492137127326  0.9992031089836918  1.0000
  Se  Se14      1.0  0.0031670160184334452  0.005935482547046066  0.9988937306498444  1.0000
  Se  Se15      1.0  0.0031670160184334452  0.009268816389580044  0.9995124873614193  1.0000
  Se  Se16      1.0  0.008045010649349739  0.005795222720288346  0.9998249257459143  1.0000
