data_image0
_chemical_formula_structural       Ag12Pd4H
_chemical_formula_sum              "Ag12 Pd4 H1"
_cell_length_a       5.065949440002441
_cell_length_b       5.06594940310266
_cell_length_c       105.24174499511719
_cell_angle_alpha    90.0
_cell_angle_beta     90.0
_cell_angle_gamma    109.13885049134387

_space_group_name_H-M_alt    "P 1"
_space_group_IT_number       1

loop_
  _space_group_symop_operation_xyz
  'x, y, z'

loop_
  _atom_site_type_symbol
  _atom_site_label
  _atom_site_symmetry_multiplicity
  _atom_site_fract_x
  _atom_site_fract_y
  _atom_site_fract_z
  _atom_site_occupancy
  Ag  Ag1       1.0  0.005000000256764991  2.0000000206373015e-10  0.9990364010404229  1.0000
  Ag  Ag2       1.0  2.7856584120311763e-10  0.005000000311352976  0.9993154550636548  1.0000
  Ag  Ag3       1.0  2.7856584120311763e-10  0.005000000311352976  0.9990364010404229  1.0000
  Ag  Ag4       1.0  0.005000000256764991  2.0000000206373015e-10  0.9993154550636548  1.0000
  Ag  Ag5       1.0  0.00500000046975912  0.005000000311352976  0.9994549822168606  1.0000
  Ag  Ag6       1.0  2.5000000683501234e-10  2.0000000206373015e-10  0.9991759279104491  1.0000
  Ag  Ag7       1.0  0.005000000256764991  2.0000000206373015e-10  0.999594508803707  1.0000
  Ag  Ag8       1.0  1.7644030020447375e-09  0.005000001478926635  0.9998797466213448  1.0000
  Ag  Ag9       1.0  2.7856584120311763e-10  0.005000000311352976  0.999594508803707  1.0000
  Ag  Ag10      1.0  0.005000001451125742  1.6000000165098412e-09  0.9998797466213448  1.0000
  Ag  Ag11      1.0  0.005000001092637847  0.005000001089735415  1.0938097848914685e-05  1.0000
  Ag  Ag12      1.0  2.5000000683501234e-10  2.0000000206373015e-10  0.9997341146808604  1.0000
  Pd  Pd1       1.0  0.00500000046975912  0.005000000311352976  0.9991759279104491  1.0000
  Pd  Pd2       1.0  2.5000000683501234e-10  2.0000000206373015e-10  0.9994549822168606  1.0000
  Pd  Pd3       1.0  0.00500000046975912  0.005000000311352976  0.9997358749256755  1.0000
  Pd  Pd4       1.0  0.009999999948960132  0.009999999844323513  0.0  1.0000
  H   H1        1.0  0.0025000016931354665  0.007500002023794342  2.2275479029444593e-05  1.0000
