data_image0
_chemical_formula_structural       HAu3Pd3Zn6Au3Pd3Zn6Au3Pd3Zn6Au3Pd3Zn6
_chemical_formula_sum              "H1 Au12 Pd12 Zn24"
_cell_length_a       8.93603229522705
_cell_length_b       8.936031939898093
_cell_length_c       102.83307647705078
_cell_angle_alpha    90.0
_cell_angle_beta     90.0
_cell_angle_gamma    120.0000013153699

_space_group_name_H-M_alt    "P 1"
_space_group_IT_number       1

loop_
  _space_group_symop_operation_xyz
  'x, y, z'

loop_
  _atom_site_type_symbol
  _atom_site_label
  _atom_site_symmetry_multiplicity
  _atom_site_fract_x
  _atom_site_fract_y
  _atom_site_fract_z
  _atom_site_occupancy
  H   H1        1.0  0.00499997727718497  0.0008333497755461288  3.746697434595461e-05  1.0000
  Au  Au1       1.0  2.2385243613936024e-08  0.0008333174631561445  0.9993926484055725  1.0000
  Au  Au2       1.0  0.0033333556815719357  0.0024999842204820304  0.9990378870496108  1.0000
  Au  Au3       1.0  0.0016666907385547982  0.004166647186968868  0.9997417775432527  1.0000
  Pd  Pd1       1.0  0.0016666889840778504  0.004166650556603578  0.9992152677275916  1.0000
  Pd  Pd2       1.0  0.009999977060405207  0.0008333497755461288  0.9999176561224709  1.0000
  Pd  Pd3       1.0  0.0033333556815719357  0.0024999842204820304  0.9995700287937408  1.0000
  Zn  Zn1       1.0  0.0016666615979028362  0.004166682808821514  0.0  1.0000
  Zn  Zn2       1.0  2.2385243613936024e-08  0.0008333174631561445  0.9996587195674501  1.0000
  Zn  Zn3       1.0  0.0033333556815719357  0.0024999842204820304  0.9993039582114884  1.0000
  Zn  Zn4       1.0  0.003333346961566066  0.00249999095975145  0.9998523132323264  1.0000
  Zn  Zn5       1.0  0.0016666889840778504  0.004166650556603578  0.9994813385996566  1.0000
  Zn  Zn6       1.0  2.2385243613936024e-08  0.0008333174631561445  0.9991265775335075  1.0000
  Au  Au4       1.0  2.2595505535822177e-08  0.005833317614789706  0.9993926484055725  1.0000
  Au  Au5       1.0  0.0033333556973547448  0.007499984191599447  0.9990378870496108  1.0000
  Au  Au6       1.0  0.0016666910310132639  0.009166647398774479  0.9997417775432527  1.0000
  Pd  Pd4       1.0  0.0016666894130034702  0.009166651249785576  0.9992152677275916  1.0000
  Pd  Pd5       1.0  0.009999977006083766  0.005833349867007642  0.9999176561224709  1.0000
  Pd  Pd6       1.0  0.0033333556973547448  0.007499984191599447  0.9995700287937408  1.0000
  Zn  Zn7       1.0  0.0016666617340297422  0.009166683020627123  0.0  1.0000
  Zn  Zn8       1.0  2.2595505535822177e-08  0.005833317614789706  0.9996587195674501  1.0000
  Zn  Zn9       1.0  0.0033333556973547448  0.007499984191599447  0.9993039582114884  1.0000
  Zn  Zn10      1.0  0.0033333469512936155  0.007499990930868866  0.9998523132323264  1.0000
  Zn  Zn11      1.0  0.0016666894130034702  0.009166651249785576  0.9994813385996566  1.0000
  Zn  Zn12      1.0  2.2595505535822177e-08  0.005833317614789706  0.9991265775335075  1.0000
  Au  Au7       1.0  0.005000021986077033  0.0008333174631561445  0.9993926484055725  1.0000
  Au  Au8       1.0  0.008333355047908015  0.0024999842204820304  0.9990378870496108  1.0000
  Au  Au9       1.0  0.006666690599940815  0.004166647186968868  0.9997417775432527  1.0000
  Pd  Pd7       1.0  0.006666688532800749  0.004166650556603578  0.9992152677275916  1.0000
  Pd  Pd8       1.0  0.00499997727718497  0.0008333497755461288  0.9999176561224709  1.0000
  Pd  Pd9       1.0  0.008333355047908015  0.0024999842204820304  0.9995700287937408  1.0000
  Zn  Zn13      1.0  0.006666661302957295  0.004166682808821514  0.0  1.0000
  Zn  Zn14      1.0  0.005000021986077033  0.0008333174631561445  0.9996587195674501  1.0000
  Zn  Zn15      1.0  0.008333355047908015  0.0024999842204820304  0.9993039582114884  1.0000
  Zn  Zn16      1.0  0.008333346744786304  0.00249999095975145  0.9998523132323264  1.0000
  Zn  Zn17      1.0  0.006666688532800749  0.004166650556603578  0.9994813385996566  1.0000
  Zn  Zn18      1.0  0.005000021986077033  0.0008333174631561445  0.9991265775335075  1.0000
  Au  Au10      1.0  0.005000022378725773  0.005833317614789706  0.9993926484055725  1.0000
  Au  Au11      1.0  0.008333355350298683  0.007499984191599447  0.9990378870496108  1.0000
  Au  Au12      1.0  0.006666690814233502  0.009166647398774479  0.9997417775432527  1.0000
  Pd  Pd10      1.0  0.006666689196223708  0.009166651249785576  0.9992152677275916  1.0000
  Pd  Pd11      1.0  0.004999977639747686  0.005833349867007642  0.9999176561224709  1.0000
  Pd  Pd12      1.0  0.008333355350298683  0.007499984191599447  0.9995700287937408  1.0000
  Zn  Zn19      1.0  0.00666666151724998  0.009166683020627123  0.0  1.0000
  Zn  Zn20      1.0  0.005000022378725773  0.005833317614789706  0.9996587195674501  1.0000
  Zn  Zn21      1.0  0.008333355350298683  0.007499984191599447  0.9993039582114884  1.0000
  Zn  Zn22      1.0  0.008333346630292813  0.007499990930868866  0.9998523132323264  1.0000
  Zn  Zn23      1.0  0.006666689196223708  0.009166651249785576  0.9994813385996566  1.0000
  Zn  Zn24      1.0  0.005000022378725773  0.005833317614789706  0.9991265775335075  1.0000
