data_image0
_chemical_formula_structural       HCu24Ge8
_chemical_formula_sum              "H1 Cu24 Ge8"
_cell_length_a       6.306608768861134
_cell_length_b       10.137278522578436
_cell_length_c       103.1928482055664
_cell_angle_alpha    95.28725741820521
_cell_angle_beta     86.78545326609961
_cell_angle_gamma    54.814996770382905

_space_group_name_H-M_alt    "P 1"
_space_group_IT_number       1

loop_
  _space_group_symop_operation_xyz
  'x, y, z'

loop_
  _atom_site_type_symbol
  _atom_site_label
  _atom_site_symmetry_multiplicity
  _atom_site_fract_x
  _atom_site_fract_y
  _atom_site_fract_z
  _atom_site_occupancy
  H   H1        1.0  0.003963886721375654  0.0006770942166735015  1.4297443870629695e-06  1.0000
  Cu  Cu1       1.0  0.006311541274895242  0.009309636628915924  0.99965975291034  1.0000
  Cu  Cu2       1.0  0.003723975183999961  0.006791999075555604  0.9998628936419727  1.0000
  Cu  Cu3       1.0  0.008811542196445732  0.001809636201255933  0.9994587162063716  1.0000
  Cu  Cu4       1.0  0.001402704665761376  0.004279390621709748  3.393160942615605e-05  1.0000
  Cu  Cu5       1.0  0.0025364239413455105  0.003901342374121357  0.9996925856493191  1.0000
  Cu  Cu6       1.0  0.0001600493317644336  0.001410932089828136  0.9998964389621885  1.0000
  Cu  Cu7       1.0  0.005036424589101818  0.00640134213754349  0.9994915489075863  1.0000
  Cu  Cu8       1.0  0.007536423627094665  0.00890134235592306  0.9992905124642908  1.0000
  Cu  Cu9       1.0  0.0075662204134651235  0.006388072393963034  0.9996928474454381  1.0000
  Cu  Cu10      1.0  0.005204445133982657  0.0038794507321422583  0.9998953872662271  1.0000
  Cu  Cu11      1.0  6.621959291091455e-05  0.008888073067300042  0.9994918109826721  1.0000
  Cu  Cu12      1.0  0.002566220136088806  0.001388072412161331  0.999290774277941  1.0000
  Cu  Cu13      1.0  0.005010550531313892  0.008940324929000435  0.999889402653874  1.0000
  Cu  Cu14      1.0  0.002556206698263282  0.006398086007163083  0.9992915796388148  1.0000
  Cu  Cu15      1.0  0.0075562066578066175  0.0013980857978826615  0.9996936525573014  1.0000
  Cu  Cu16      1.0  5.620677282968984e-05  0.003898085788783513  0.9994926160851515  1.0000
  Cu  Cu17      1.0  0.0012817464125390898  0.006822906154116811  0.999659491104586  1.0000
  Cu  Cu18      1.0  0.008772548361254797  0.004280098990439983  0.9998553465726464  1.0000
  Cu  Cu19      1.0  0.0037817458770410682  0.009322905917538944  0.9994584543669083  1.0000
  Cu  Cu20      1.0  0.00656367997605973  0.0016833120367150216  4.0046520083218715e-05  1.0000
  Cu  Cu21      1.0  0.008860018851287416  0.00925017187200092  0.9998570836966951  1.0000
  Cu  Cu22      1.0  0.006281313178547088  0.006778221144517427  3.657582902800972e-05  1.0000
  Cu  Cu23      1.0  0.0012917598503646142  0.0018128925591150585  0.99965868545491  1.0000
  Cu  Cu24      1.0  0.003791759479984625  0.004312892777494628  0.999457649009587  1.0000
  Ge  Ge1       1.0  0.009943792409933542  0.006552575904225359  0.9999068150318815  1.0000
  Ge  Ge2       1.0  0.007497758088419911  0.003914230863369162  0.9992894759160568  1.0000
  Ge  Ge3       1.0  0.002497757915622008  0.008914231300128302  0.9996915487773086  1.0000
  Ge  Ge4       1.0  0.004997759050427064  0.0014142306449895924  0.9994905126481544  1.0000
  Ge  Ge5       1.0  0.008850207521865917  0.0067967479212885495  0.9994597527573957  1.0000
  Ge  Ge6       1.0  0.006350207300618745  0.004296747702908979  0.9996607892047462  1.0000
  Ge  Ge7       1.0  0.0014170851377610471  0.009297507463631357  5.254726604104909e-05  1.0000
  Ge  Ge8       1.0  0.0038270246408953885  0.0017685991541300293  0.9998701607124926  1.0000
