data_image0
_chemical_formula_structural       CORu6W2Ru6W2
_chemical_formula_sum              "C1 O1 Ru12 W4"
_cell_length_a       5.510695934295654
_cell_length_b       5.51069601374053
_cell_length_c       100.63604736328125
_cell_angle_alpha    90.0
_cell_angle_beta     90.0
_cell_angle_gamma    119.99999952310648

_space_group_name_H-M_alt    "P 1"
_space_group_IT_number       1

loop_
  _space_group_symop_operation_xyz
  'x, y, z'

loop_
  _atom_site_type_symbol
  _atom_site_label
  _atom_site_symmetry_multiplicity
  _atom_site_fract_x
  _atom_site_fract_y
  _atom_site_fract_z
  _atom_site_occupancy
  C   C1        1.0  0.0012489697877992537  0.004169491518120581  0.00016637953915252173  1.0000
  O   O1        1.0  0.0012489697877992537  0.004169491518120581  0.0002856213479586323  1.0000
  Ru  Ru1       1.0  0.0020858877512803125  0.0033348576644554695  0.9993511838226944  1.0000
  Ru  Ru2       1.0  0.0070836013753718795  0.008332571269248978  0.9993511838226944  1.0000
  Ru  Ru3       1.0  0.0020858877319822533  0.008332571269248978  0.9993511838226944  1.0000
  Ru  Ru4       1.0  0.008751030231756905  0.006665142632168765  0.9995686296805983  1.0000
  Ru  Ru5       1.0  0.0037533167635956503  0.0016674288322277347  0.9995686296805983  1.0000
  Ru  Ru6       1.0  0.008751030575987992  0.0016674288322277347  0.9995686296805983  1.0000
  W   W1        1.0  0.0037517920910639596  0.006666666344022763  0.9995686296805983  1.0000
  W   W2        1.0  0.007085125501678215  0.0033333331720113817  0.9993511838226944  1.0000
  Ru  Ru7       1.0  0.0020959296480742933  0.0033549559077755667  0.9997900867498655  1.0000
  Ru  Ru8       1.0  0.00706348263439561  0.00832250009591891  0.9997900885267034  1.0000
  Ru  Ru9       1.0  0.0020959121742783675  0.008322505560049534  0.9997900861575862  1.0000
  Ru  Ru10      1.0  0.008746135461291476  0.006655347007140164  0.9999999976308829  1.0000
  Ru  Ru11      1.0  0.003763089334331127  0.0016723180582510547  0.0  1.0000
  Ru  Ru12      1.0  0.00874616321135068  0.001672308105727418  0.9999999976308829  1.0000
  W   W3        1.0  0.0037517765264904334  0.006666674930513744  0.9999885411729427  1.0000
  W   W4        1.0  0.007085107845084365  0.0033333269272906685  0.9997945785958573  1.0000
