data_image0
_chemical_formula_structural       COAl8Pt4Ru4Al8Pt4Ru4Al8Pt4Ru4Al8Pt4Ru4
_chemical_formula_sum              "C1 O1 Al32 Pt16 Ru16"
_cell_length_a       8.607277870178223
_cell_length_b       8.607277870178223
_cell_length_c       106.51758575439453
_cell_angle_alpha    90.0
_cell_angle_beta     90.0
_cell_angle_gamma    90.0

_space_group_name_H-M_alt    "P 1"
_space_group_IT_number       1

loop_
  _space_group_symop_operation_xyz
  'x, y, z'

loop_
  _atom_site_type_symbol
  _atom_site_label
  _atom_site_symmetry_multiplicity
  _atom_site_fract_x
  _atom_site_fract_y
  _atom_site_fract_z
  _atom_site_occupancy
  C   C1        1.0  0.002499998095649105  0.0037500157541755833  0.00016260708128719656  1.0000
  O   O1        1.0  0.002499998095649105  0.0037500157541755833  0.00027526420385585385  1.0000
  Al  Al1       1.0  5.000000205242233e-11  0.0037500001731228085  0.9997126903712094  1.0000
  Al  Al2       1.0  0.002500000043280702  0.0012499999134385957  0.9997126903712094  1.0000
  Al  Al3       1.0  0.002499998095649105  0.0012500154944913707  0.0  1.0000
  Al  Al4       1.0  2.5499999950349763e-09  0.0037500001731228085  0.0  1.0000
  Al  Al5       1.0  5.000000205242233e-11  0.0037500001731228085  0.9991413043415978  1.0000
  Al  Al6       1.0  0.002500000043280702  0.0012499999134385957  0.9991413043415978  1.0000
  Al  Al7       1.0  0.002500000043280702  0.0012499999134385957  0.9994269973564036  1.0000
  Al  Al8       1.0  5.000000205242233e-11  0.0037500001731228085  0.9994269973564036  1.0000
  Pt  Pt1       1.0  0.002500000043280702  0.0037500001731228085  0.9995698435840187  1.0000
  Pt  Pt2       1.0  0.010000000173122808  0.0012500056481316308  0.9998488306445172  1.0000
  Pt  Pt3       1.0  0.002500000043280702  0.0037500001731228085  0.9989984578341948  1.0000
  Pt  Pt4       1.0  5.000000205242233e-11  0.0012499999134385957  0.9992841508490007  1.0000
  Ru  Ru1       1.0  5.000000205242233e-11  0.0012499999134385957  0.9995698435840187  1.0000
  Ru  Ru2       1.0  0.0025000024237193203  0.003749985890491098  0.9998934489666671  1.0000
  Ru  Ru3       1.0  5.000000205242233e-11  0.0012499999134385957  0.9989984578341948  1.0000
  Ru  Ru4       1.0  0.002500000043280702  0.0037500001731228085  0.9992841508490007  1.0000
  Al  Al9       1.0  5.000000205242233e-11  0.008749999826877191  0.9997126903712094  1.0000
  Al  Al10      1.0  0.002500000043280702  0.0062499999999999995  0.9997126903712094  1.0000
  Al  Al11      1.0  0.002499998095649105  0.006250015581052775  0.0  1.0000
  Al  Al12      1.0  2.5499999950349763e-09  0.008749999826877191  0.0  1.0000
  Al  Al13      1.0  5.000000205242233e-11  0.008749999826877191  0.9991413043415978  1.0000
  Al  Al14      1.0  0.002500000043280702  0.0062499999999999995  0.9991413043415978  1.0000
  Al  Al15      1.0  0.002500000043280702  0.0062499999999999995  0.9994269973564036  1.0000
  Al  Al16      1.0  5.000000205242233e-11  0.008749999826877191  0.9994269973564036  1.0000
  Pt  Pt5       1.0  0.002500000043280702  0.008749999826877191  0.9995698435840187  1.0000
  Pt  Pt6       1.0  0.010000000173122808  0.006250005626491279  0.9998488306445172  1.0000
  Pt  Pt7       1.0  0.002500000043280702  0.008749999826877191  0.9989984578341948  1.0000
  Pt  Pt8       1.0  5.000000205242233e-11  0.0062499999999999995  0.9992841508490007  1.0000
  Ru  Ru5       1.0  5.000000205242233e-11  0.0062499999999999995  0.9995698435840187  1.0000
  Ru  Ru6       1.0  0.0025000024237193203  0.008749985977052501  0.9998934489666671  1.0000
  Ru  Ru7       1.0  5.000000205242233e-11  0.0062499999999999995  0.9989984578341948  1.0000
  Ru  Ru8       1.0  0.002500000043280702  0.008749999826877191  0.9992841508490007  1.0000
  Al  Al17      1.0  0.005000000086561404  0.0037500001731228085  0.9997126903712094  1.0000
  Al  Al18      1.0  0.007500000346245617  0.0012499999134385957  0.9997126903712094  1.0000
  Al  Al19      1.0  0.007499998615017531  0.0012500154944913707  0.0  1.0000
  Al  Al20      1.0  0.005000002683403533  0.0037500001731228085  0.0  1.0000
  Al  Al21      1.0  0.005000000086561404  0.0037500001731228085  0.9991413043415978  1.0000
  Al  Al22      1.0  0.007500000346245617  0.0012499999134385957  0.9991413043415978  1.0000
  Al  Al23      1.0  0.007500000346245617  0.0012499999134385957  0.9994269973564036  1.0000
  Al  Al24      1.0  0.005000000086561404  0.0037500001731228085  0.9994269973564036  1.0000
  Pt  Pt9       1.0  0.007500000346245617  0.0037500001731228085  0.9995698435840187  1.0000
  Pt  Pt10      1.0  0.005000000086561404  0.0012500056481316308  0.9998488306445172  1.0000
  Pt  Pt11      1.0  0.007500000346245617  0.0037500001731228085  0.9989984578341948  1.0000
  Pt  Pt12      1.0  0.005000000086561404  0.0012499999134385957  0.9992841508490007  1.0000
  Ru  Ru9       1.0  0.005000000086561404  0.0012499999134385957  0.9995698435840187  1.0000
  Ru  Ru10      1.0  0.007500002077473703  0.003749985890491098  0.9998934489666671  1.0000
  Ru  Ru11      1.0  0.005000000086561404  0.0012499999134385957  0.9989984578341948  1.0000
  Ru  Ru12      1.0  0.007500000346245617  0.0037500001731228085  0.9992841508490007  1.0000
  Al  Al25      1.0  0.005000000086561404  0.008749999826877191  0.9997126903712094  1.0000
  Al  Al26      1.0  0.007500000346245617  0.0062499999999999995  0.9997126903712094  1.0000
  Al  Al27      1.0  0.007499998615017531  0.006250015581052775  0.0  1.0000
  Al  Al28      1.0  0.005000002683403533  0.008749999826877191  0.0  1.0000
  Al  Al29      1.0  0.005000000086561404  0.008749999826877191  0.9991413043415978  1.0000
  Al  Al30      1.0  0.007500000346245617  0.0062499999999999995  0.9991413043415978  1.0000
  Al  Al31      1.0  0.007500000346245617  0.0062499999999999995  0.9994269973564036  1.0000
  Al  Al32      1.0  0.005000000086561404  0.008749999826877191  0.9994269973564036  1.0000
  Pt  Pt13      1.0  0.007500000346245617  0.008749999826877191  0.9995698435840187  1.0000
  Pt  Pt14      1.0  0.005000000086561404  0.006250005626491279  0.9998488306445172  1.0000
  Pt  Pt15      1.0  0.007500000346245617  0.008749999826877191  0.9989984578341948  1.0000
  Pt  Pt16      1.0  0.005000000086561404  0.0062499999999999995  0.9992841508490007  1.0000
  Ru  Ru13      1.0  0.005000000086561404  0.0062499999999999995  0.9995698435840187  1.0000
  Ru  Ru14      1.0  0.007500002077473703  0.008749985977052501  0.9998934489666671  1.0000
  Ru  Ru15      1.0  0.005000000086561404  0.0062499999999999995  0.9989984578341948  1.0000
  Ru  Ru16      1.0  0.007500000346245617  0.008749999826877191  0.9992841508490007  1.0000
