data_image0
_chemical_formula_structural       HCu12Ru4Cu12Ru4
_chemical_formula_sum              "H1 Cu24 Ru8"
_cell_length_a       5.301018238067627
_cell_length_b       11.420690480862834
_cell_length_c       103.96845245361328
_cell_angle_alpha    68.17417567619654
_cell_angle_beta     90.0
_cell_angle_gamma    62.34418132546631

_space_group_name_H-M_alt    "P 1"
_space_group_IT_number       1

loop_
  _space_group_symop_operation_xyz
  'x, y, z'

loop_
  _atom_site_type_symbol
  _atom_site_label
  _atom_site_symmetry_multiplicity
  _atom_site_fract_x
  _atom_site_fract_y
  _atom_site_fract_z
  _atom_site_occupancy
  H   H1        1.0  0.0025583028803765227  0.00744169748505345  0.9998225907276901  1.0000
  Cu  Cu1       1.0  0.003287995132616806  0.004178001355342535  0.9992167732871581  1.0000
  Cu  Cu2       1.0  0.0032879957478533415  0.009178001274195961  0.9990125740367726  1.0000
  Cu  Cu3       1.0  0.00835600283267532  0.0016439975327546521  0.9989118631176479  1.0000
  Cu  Cu4       1.0  0.008356003042178988  0.006643997857340947  0.9991160623580914  1.0000
  Cu  Cu5       1.0  0.008356003590308022  0.004178001355342535  0.9992167732871581  1.0000
  Cu  Cu6       1.0  0.008356003502794607  0.009178001274195961  0.9990125740367726  1.0000
  Cu  Cu7       1.0  0.00671200489171671  0.0008219988170939347  0.9991496326762034  1.0000
  Cu  Cu8       1.0  0.006712006057553368  0.005821998888097187  0.9989454334196041  1.0000
  Cu  Cu9       1.0  0.0016439975937497782  0.0033560025889652085  0.9990461443403859  1.0000
  Cu  Cu10      1.0  0.001643997654744904  0.00835600271068507  0.9992503435891144  1.0000
  Cu  Cu11      1.0  0.0016439976638379069  0.0008219988170939347  0.9991496326762034  1.0000
  Cu  Cu12      1.0  0.0016439975998621538  0.005821998888097187  0.9989454334196041  1.0000
  Ru  Ru1       1.0  0.006666666883327922  0.003333333482102052  0.9990470701433265  1.0000
  Ru  Ru2       1.0  0.006666667295698022  0.008333333603821913  0.999251269392055  1.0000
  Ru  Ru3       1.0  0.003333333441663961  0.001666666741051026  0.9989109373105647  1.0000
  Ru  Ru4       1.0  0.0033333334012258698  0.006666666964204104  0.9991151365551507  1.0000
  Cu  Cu13      1.0  0.003287995132616806  0.004178001355342535  0.9996251717945571  1.0000
  Cu  Cu14      1.0  0.0032879957478533415  0.009178001274195961  0.9994209725441716  1.0000
  Cu  Cu15      1.0  0.00835600283267532  0.0016439975327546521  0.999320261625047  1.0000
  Cu  Cu16      1.0  0.008356003042178988  0.006643997857340947  0.9995244608654904  1.0000
  Cu  Cu17      1.0  0.008356003590308022  0.004178001355342535  0.9996251717945571  1.0000
  Cu  Cu18      1.0  0.008356003502794607  0.009178001274195961  0.9994209725441716  1.0000
  Cu  Cu19      1.0  0.00671200489171671  0.0008219988170939347  0.9995580311836024  1.0000
  Cu  Cu20      1.0  0.006712006057553368  0.005821998888097187  0.9993538319270031  1.0000
  Cu  Cu21      1.0  0.0016439975937497782  0.0033560025889652085  0.9994545428477849  1.0000
  Cu  Cu22      1.0  0.001643997654744904  0.00835600271068507  0.9996587420965134  1.0000
  Cu  Cu23      1.0  0.0016439976638379069  0.0008219988170939347  0.9995580311836024  1.0000
  Cu  Cu24      1.0  0.0016439975998621538  0.005821998888097187  0.9993538319270031  1.0000
  Ru  Ru5       1.0  0.006666666883327922  0.003333333482102052  0.9994554686507255  1.0000
  Ru  Ru6       1.0  0.006666667295698022  0.008333333603821913  0.999659667899454  1.0000
  Ru  Ru7       1.0  0.003333333441663961  0.001666666741051026  0.9993193358179637  1.0000
  Ru  Ru8       1.0  0.0033333334012258698  0.006666666964204104  0.9995235350625498  1.0000
