data_image0
_chemical_formula_structural       HMn12Al36Si4
_chemical_formula_sum              "H1 Mn12 Al36 Si4"
_cell_length_a       7.668141841888428
_cell_length_b       13.021371841430664
_cell_length_c       100.07157135009766
_cell_angle_alpha    90.0
_cell_angle_beta     90.0
_cell_angle_gamma    90.0

_space_group_name_H-M_alt    "P 1"
_space_group_IT_number       1

loop_
  _space_group_symop_operation_xyz
  'x, y, z'

loop_
  _atom_site_type_symbol
  _atom_site_label
  _atom_site_symmetry_multiplicity
  _atom_site_fract_x
  _atom_site_fract_y
  _atom_site_fract_z
  _atom_site_occupancy
  H   H1        1.0  0.006490727032006635  0.002205542043286833  2.760222919372053e-05  1.0000
  Mn  Mn1       1.0  0.007500744927682589  0.004617371617522703  0.9996116377907475  1.0000
  Mn  Mn2       1.0  0.0075007468709384  0.009536443938024147  0.9999406136925088  1.0000
  Mn  Mn3       1.0  0.007500744927682589  0.001414748237096835  0.9998495213329601  1.0000
  Mn  Mn4       1.0  0.007500744927682589  0.006404015427499166  0.9994774156823909  1.0000
  Mn  Mn5       1.0  0.0025007450539942175  0.005808467776930808  0.9996116377907475  1.0000
  Mn  Mn6       1.0  0.0025007472401570047  0.0008879869615576081  0.9999408406237875  1.0000
  Mn  Mn7       1.0  0.0025007450539942175  0.005808467776930808  0.9993431938718443  1.0000
  Mn  Mn8       1.0  0.0025007457827151466  0.0008591652070026084  0.9997311174068532  1.0000
  Mn  Mn9       1.0  0.0025007455398081704  0.00901157035888213  0.9998496219927663  1.0000
  Mn  Mn10      1.0  0.0025007450539942175  0.0040218236808638825  0.9994774156823909  1.0000
  Mn  Mn11      1.0  0.007500744927682589  0.004617371617522703  0.9993431938718443  1.0000
  Mn  Mn12      1.0  0.007500745899310495  0.009566670539797501  0.9997310977513881  1.0000
  Al  Al1       1.0  0.005530061518348781  0.008141937173362509  0.999863908537789  1.0000
  Al  Al2       1.0  0.005643907645850365  0.003209680659966114  0.9994774156823909  1.0000
  Al  Al3       1.0  0.009471432709341972  0.008141936029000657  0.9998639079421687  1.0000
  Al  Al4       1.0  0.009357582209514813  0.003209680659966114  0.9994774156823909  1.0000
  Al  Al5       1.0  0.004470691726468679  0.0022836590441974885  0.9998639335538354  1.0000
  Al  Al6       1.0  0.004357582578733418  0.007216158734487397  0.9994774156823909  1.0000
  Al  Al7       1.0  0.004351554113393733  0.004147317262440367  0.9999921616387685  1.0000
  Al  Al8       1.0  0.004357582578733418  0.00921130041032971  0.9996273011117569  1.0000
  Al  Al9       1.0  0.004357351817105862  0.004223920844801976  0.9997030970523111  1.0000
  Al  Al10      1.0  0.004357582578733418  0.00921130041032971  0.9993275305508349  1.0000
  Al  Al11      1.0  0.009351042182082882  0.006277875853657322  0.9999921818898537  1.0000
  Al  Al12      1.0  0.009357582209514813  0.0012145391271690326  0.9996273011117569  1.0000
  Al  Al13      1.0  0.007500744927682589  0.0029471154157772383  0.9997170959127992  1.0000
  Al  Al14      1.0  0.007500744927682589  0.007926033283682066  0.9993376334598932  1.0000
  Al  Al15      1.0  0.0025007435965523593  0.0056391050837643585  0.999860216288452  1.0000
  Al  Al16      1.0  0.0025007450539942175  0.000639147407987448  0.9994774156823909  1.0000
  Al  Al17      1.0  0.002500758899691871  0.007478436743851464  0.9997170732792333  1.0000
  Al  Al18      1.0  0.0025007450539942175  0.0024998058246809814  0.9993376334598932  1.0000
  Al  Al19      1.0  0.009357584152770625  0.006201871916906074  0.999703085139908  1.0000
  Al  Al20      1.0  0.009357582209514813  0.0012145391271690326  0.9993275305508349  1.0000
  Al  Al21      1.0  0.007500744927682589  0.004786263691877587  0.9998601710213203  1.0000
  Al  Al22      1.0  0.007500744927682589  0.009786692415601757  0.9994774156823909  1.0000
  Al  Al23      1.0  0.0025007438394593355  0.007507770171199463  6.313573636300497e-08  1.0000
  Al  Al24      1.0  0.0025007450539942175  0.0024998058246809814  0.9996171979048885  1.0000
  Al  Al25      1.0  0.000649934901513308  0.00414731754853083  0.9999921616387685  1.0000
  Al  Al26      1.0  0.0006439074078015284  0.00921130041032971  0.9996273011117569  1.0000
  Al  Al27      1.0  0.0075007444418686365  0.0029182188485661754  0.0  1.0000
  Al  Al28      1.0  0.007500744927682589  0.007926033283682066  0.9996171979048885  1.0000
  Al  Al29      1.0  0.005650446701654391  0.006277875853657322  0.9999921818898537  1.0000
  Al  Al30      1.0  0.005643907645850365  0.0012145391271690326  0.9996273011117569  1.0000
  Al  Al31      1.0  0.0006441375014349  0.004223920844801976  0.9997030970523111  1.0000
  Al  Al32      1.0  0.0006439074078015284  0.00921130041032971  0.9993275305508349  1.0000
  Al  Al33      1.0  0.0005307975920720821  0.0022836590441974885  0.9998639335538354  1.0000
  Al  Al34      1.0  0.0006439074078015284  0.007216158734487397  0.9994774156823909  1.0000
  Al  Al35      1.0  0.005643909589106176  0.006201870200363296  0.999703085139908  1.0000
  Al  Al36      1.0  0.005643907645850365  0.0012145391271690326  0.9993275305508349  1.0000
  Si  Si1       1.0  7.450000256960662e-07  0.005212919554181524  0.9994774156823909  1.0000
  Si  Si2       1.0  0.009999254994587177  0.0002133079942228311  0.9998585938191515  1.0000
  Si  Si3       1.0  0.005000744869384915  0.005212919554181524  0.9994774156823909  1.0000
  Si  Si4       1.0  0.005002228059382664  0.00021330910282337507  0.9998585938191515  1.0000
