data_image0
_chemical_formula_structural       CONb4Re8Ti4Nb4Re8Ti4
_chemical_formula_sum              "C1 O1 Nb8 Re16 Ti8"
_cell_length_a       8.983468055725098
_cell_length_b       6.35227108001709
_cell_length_c       105.93387603759766
_cell_angle_alpha    90.0
_cell_angle_beta     90.0
_cell_angle_gamma    90.0

_space_group_name_H-M_alt    "P 1"
_space_group_IT_number       1

loop_
  _space_group_symop_operation_xyz
  'x, y, z'

loop_
  _atom_site_type_symbol
  _atom_site_label
  _atom_site_symmetry_multiplicity
  _atom_site_fract_x
  _atom_site_fract_y
  _atom_site_fract_z
  _atom_site_occupancy
  C   C1        1.0  0.0037500053742899704  0.002500014391486568  0.00015951550382013927  1.0000
  O   O1        1.0  0.0037500053742899704  0.002500014391486568  0.00027279394474526944  1.0000
  Nb  Nb1       1.0  1.9349999491748803e-08  0.006245875847997527  0.9997907325027466  1.0000
  Nb  Nb2       1.0  2.149999943527645e-09  0.006245871742846509  0.9993661221980934  1.0000
  Nb  Nb3       1.0  0.0024999988140069975  0.0012458837181584781  0.0  1.0000
  Nb  Nb4       1.0  0.002500002131469942  0.001245871402705425  0.9995781290005052  1.0000
  Re  Re1       1.0  2.149999943527645e-09  0.008745871766304515  0.9995781290005052  1.0000
  Re  Re2       1.0  0.009999986133004892  0.008737611029556487  0.9999920259971847  1.0000
  Re  Re3       1.0  0.002500002131469942  0.008745871766304515  0.9993661221980934  1.0000
  Re  Re4       1.0  0.0025000363428065568  0.008754128984351671  0.9997903048819352  1.0000
  Re  Re5       1.0  0.002500002131469942  0.003745871426163431  0.9993661221980934  1.0000
  Re  Re6       1.0  0.0025000398676109353  0.0037376253506690373  0.9997903060072532  1.0000
  Re  Re7       1.0  1.1949999814877227e-08  0.003754145064814658  0.9999920254345258  1.0000
  Re  Re8       1.0  2.149999943527645e-09  0.003745871426163431  0.9995781290005052  1.0000
  Ti  Ti1       1.0  0.009999997744125197  0.0012458850376713053  0.9997923675896915  1.0000
  Ti  Ti2       1.0  2.149999943527645e-09  0.001245871402705425  0.9993661221980934  1.0000
  Ti  Ti3       1.0  0.002500005241591452  0.006245873502196945  0.9999977735584857  1.0000
  Ti  Ti4       1.0  0.002500002131469942  0.006245871742846509  0.9995781290005052  1.0000
  Nb  Nb5       1.0  0.005000019191523134  0.006245875847997527  0.9997907325027466  1.0000
  Nb  Nb6       1.0  0.005000002189525544  0.006245871742846509  0.9993661221980934  1.0000
  Nb  Nb7       1.0  0.007499998308093898  0.0012458837181584781  0.0  1.0000
  Nb  Nb8       1.0  0.007500002454922579  0.001245871402705425  0.9995781290005052  1.0000
  Re  Re9       1.0  0.005000002189525544  0.008745871766304515  0.9995781290005052  1.0000
  Re  Re10      1.0  0.004999986431576557  0.008737611029556487  0.9999920259971847  1.0000
  Re  Re11      1.0  0.007500002454922579  0.008745871766304515  0.9993661221980934  1.0000
  Re  Re12      1.0  0.00750003645891776  0.008754128984351671  0.9997903048819352  1.0000
  Re  Re13      1.0  0.007500002454922579  0.003745871426163431  0.9993661221980934  1.0000
  Re  Re14      1.0  0.0075000397763807045  0.0037376253506690373  0.9997903060072532  1.0000
  Re  Re15      1.0  0.005000012141914377  0.003754145064814658  0.9999920254345258  1.0000
  Re  Re16      1.0  0.005000002189525544  0.003745871426163431  0.9995781290005052  1.0000
  Ti  Ti5       1.0  0.004999998042696863  0.0012458850376713053  0.9997923675896915  1.0000
  Ti  Ti6       1.0  0.005000002189525544  0.001245871402705425  0.9993661221980934  1.0000
  Ti  Ti7       1.0  0.0075000049430197875  0.006245873502196945  0.9999977735584857  1.0000
  Ti  Ti8       1.0  0.007500002454922579  0.006245871742846509  0.9995781290005052  1.0000
