data_image0
_chemical_formula_structural       HV5Pd15V5Pd15
_chemical_formula_sum              "H1 V10 Pd30"
_cell_length_a       8.75360857877354
_cell_length_b       5.53626823425293
_cell_length_c       110.68309783935547
_cell_angle_alpha    90.0
_cell_angle_beta     104.9632165792233
_cell_angle_gamma    71.56505095853746

_space_group_name_H-M_alt    "P 1"
_space_group_IT_number       1

loop_
  _space_group_symop_operation_xyz
  'x, y, z'

loop_
  _atom_site_type_symbol
  _atom_site_label
  _atom_site_symmetry_multiplicity
  _atom_site_fract_x
  _atom_site_fract_y
  _atom_site_fract_z
  _atom_site_occupancy
  H   H1        1.0  0.009089925496308873  0.0003525183810421905  8.682198229361357e-05  1.0000
  V   V1        1.0  0.00450000005221336  0.002647481103089947  9.189093748475935e-05  1.0000
  V   V2        1.0  0.008500000305821109  0.0006474809762860722  0.9999693696510241  1.0000
  V   V3        1.0  0.0004999999734271292  0.004647481142483063  0.9996018058554811  1.0000
  V   V4        1.0  0.0024999999254094853  0.008647481543309351  0.999846848394698  1.0000
  V   V5        1.0  0.0064999997128265185  0.006647481649600833  0.9997243270987176  1.0000
  Pd  Pd1       1.0  0.005500000115615297  0.004647481259797711  0.9999081090228611  1.0000
  Pd  Pd2       1.0  0.00949999990303233  0.0026474813660891943  0.9997855877268806  1.0000
  Pd  Pd3       1.0  0.001499999978555227  0.006647481328327746  3.06303117016105e-05  1.0000
  Pd  Pd4       1.0  0.0034999999888114227  0.0006474812828263487  0.9996630664800742  1.0000
  Pd  Pd5       1.0  0.007499999776228456  0.008647481806308598  0.00015315155612812467  1.0000
  Pd  Pd6       1.0  0.005500000115615297  0.009647481636615177  0.9999081090228611  1.0000
  Pd  Pd7       1.0  0.00949999990303233  0.007647481742906661  0.9997855877268806  1.0000
  Pd  Pd8       1.0  0.001499999978555227  0.0016474812879544469  3.06303117016105e-05  1.0000
  Pd  Pd9       1.0  0.0034999999888114227  0.005647481323199649  0.9996630664800742  1.0000
  Pd  Pd10      1.0  0.007499999776228456  0.003647481429491132  0.00015315155612812467  1.0000
  Pd  Pd11      1.0  0.0024999999254094853  0.0036474811664918842  0.999846848394698  1.0000
  Pd  Pd12      1.0  0.0064999997128265185  0.0016474812727833674  0.9997243270987176  1.0000
  Pd  Pd13      1.0  0.008500000305821109  0.005647481353103538  0.9999693696510241  1.0000
  Pd  Pd14      1.0  0.0004999999734271292  0.009647481519300529  0.9996018058554811  1.0000
  Pd  Pd15      1.0  0.00450000005221336  0.0076474814799074135  9.189093748475935e-05  1.0000
  V   V6        1.0  0.00450000005221336  0.002647481103089947  0.9994792845654505  1.0000
  V   V7        1.0  0.008500000305821109  0.0006474809762860722  0.9993567638175062  1.0000
  V   V8        1.0  0.0004999999734271292  0.004647481142483063  0.998989199752705  1.0000
  V   V9        1.0  0.0024999999254094853  0.008647481543309351  0.99923424256118  1.0000
  V   V10       1.0  0.0064999997128265185  0.006647481649600833  0.9991117209959415  1.0000
  Pd  Pd16      1.0  0.005500000115615297  0.004647481259797711  0.999295503189343  1.0000
  Pd  Pd17      1.0  0.00949999990303233  0.0026474813660891943  0.9991729816241045  1.0000
  Pd  Pd18      1.0  0.001499999978555227  0.006647481328327746  0.9994180239396674  1.0000
  Pd  Pd19      1.0  0.0034999999888114227  0.0006474812828263487  0.9990504603772982  1.0000
  Pd  Pd20      1.0  0.007499999776228456  0.008647481806308598  0.9995405457226101  1.0000
  Pd  Pd21      1.0  0.005500000115615297  0.009647481636615177  0.999295503189343  1.0000
  Pd  Pd22      1.0  0.00949999990303233  0.007647481742906661  0.9991729816241045  1.0000
  Pd  Pd23      1.0  0.001499999978555227  0.0016474812879544469  0.9994180239396674  1.0000
  Pd  Pd24      1.0  0.0034999999888114227  0.005647481323199649  0.9990504603772982  1.0000
  Pd  Pd25      1.0  0.007499999776228456  0.003647481429491132  0.9995405457226101  1.0000
  Pd  Pd26      1.0  0.0024999999254094853  0.0036474811664918842  0.99923424256118  1.0000
  Pd  Pd27      1.0  0.0064999997128265185  0.0016474812727833674  0.9991117209959415  1.0000
  Pd  Pd28      1.0  0.008500000305821109  0.005647481353103538  0.9993567638175062  1.0000
  Pd  Pd29      1.0  0.0004999999734271292  0.009647481519300529  0.998989199752705  1.0000
  Pd  Pd30      1.0  0.00450000005221336  0.0076474814799074135  0.9994792845654505  1.0000
