data_image0
_chemical_formula_structural       HCd12
_chemical_formula_sum              "H1 Cd12"
_cell_length_a       6.134872436939001
_cell_length_b       6.059682369232178
_cell_length_c       103.7417984008789
_cell_angle_alpha    90.0
_cell_angle_beta     119.99999999775925
_cell_angle_gamma    90.0

_space_group_name_H-M_alt    "P 1"
_space_group_IT_number       1

loop_
  _space_group_symop_operation_xyz
  'x, y, z'

loop_
  _atom_site_type_symbol
  _atom_site_label
  _atom_site_symmetry_multiplicity
  _atom_site_fract_x
  _atom_site_fract_y
  _atom_site_fract_z
  _atom_site_occupancy
  H   H1        1.0  0.003401405118660573  0.0075  0.0003401103920923863  1.0000
  Cd  Cd1       1.0  0.0031527236006309418  0.002500004149674518  0.9994707078302715  1.0000
  Cd  Cd2       1.0  0.0014860569339642752  0.007500004303366167  0.9995692676743352  1.0000
  Cd  Cd3       1.0  0.0031527236006309418  0.002500004149674518  0.9997663874773721  1.0000
  Cd  Cd4       1.0  0.0014860569339642752  0.007500004303366167  0.9998649473214358  1.0000
  Cd  Cd5       1.0  0.0035139430660357253  0.002499996004017131  0.00010390022532688515  1.0000
  Cd  Cd6       1.0  0.0017713791949659288  0.0075  0.0001955207353723403  1.0000
  Cd  Cd7       1.0  0.008152723600630941  0.002500004149674518  0.999470707657907  1.0000
  Cd  Cd8       1.0  0.006486056933964275  0.007500004303366167  0.9995692677892447  1.0000
  Cd  Cd9       1.0  0.008152723600630941  0.002500004149674518  0.9997663875922818  1.0000
  Cd  Cd10      1.0  0.006486056933964275  0.007500004303366167  0.9998649474363455  1.0000
  Cd  Cd11      1.0  0.008513943066035725  0.002499996004017131  0.00010390034023648898  1.0000
  Cd  Cd12      1.0  0.006771378844380423  0.0075  0.0001955208399158362  1.0000
