data_image0
_chemical_formula_structural       Co8Sb16CO
_chemical_formula_sum              "Co8 Sb16 C1 O1"
_cell_length_a       6.623195583759647
_cell_length_b       9.218398404185152
_cell_length_c       106.87358856201172
_cell_angle_alpha    91.09426223393055
_cell_angle_beta     109.0421614996621
_cell_angle_gamma    70.95784044255421

_space_group_name_H-M_alt    "P 1"
_space_group_IT_number       1

loop_
  _space_group_symop_operation_xyz
  'x, y, z'

loop_
  _atom_site_type_symbol
  _atom_site_label
  _atom_site_symmetry_multiplicity
  _atom_site_fract_x
  _atom_site_fract_y
  _atom_site_fract_z
  _atom_site_occupancy
  Co  Co1       1.0  0.007187192999423984  0.00583405788512122  0.9995566184621234  1.0000
  Co  Co2       1.0  0.00722465728828168  0.0010009617397891963  0.9999823793393839  1.0000
  Co  Co3       1.0  0.007716113818739306  0.005736105674906012  0.9999858978747604  1.0000
  Co  Co4       1.0  0.007840360668319077  0.000628572771063276  0.9995743426414622  1.0000
  Co  Co5       1.0  0.002840360330484906  0.0031360175939499956  0.9997906227762435  1.0000
  Co  Co6       1.0  0.0028403606427044427  0.008136017301845135  0.9993593468028908  1.0000
  Co  Co7       1.0  0.0021871929176245724  0.003341503053808547  0.9993416227726546  1.0000
  Co  Co8       1.0  0.002187193229844108  0.008341502761703687  0.9997728986084828  1.0000
  Sb  Sb1       1.0  0.008801755639402853  0.003067836238605986  8.985196373775838e-05  1.0000
  Sb  Sb2       1.0  0.00834995935094646  0.008006012597101155  0.9996766578095477  1.0000
  Sb  Sb3       1.0  0.006677594587760243  0.0070202527674770535  0.9993304089530335  1.0000
  Sb  Sb4       1.0  0.006677593787587988  0.002020252844798928  0.9997616846373105  1.0000
  Sb  Sb5       1.0  0.0013511815971191067  0.006252432803922943  0.00010096299062691367  1.0000
  Sb  Sb6       1.0  0.0016775937766726771  0.0009640629893615547  0.9996705831460501  1.0000
  Sb  Sb7       1.0  0.003494723302826708  0.0018303230426829945  2.3702093231974385e-05  1.0000
  Sb  Sb8       1.0  0.0033499594352521386  0.0069498228490552745  0.9995855563203895  1.0000
  Sb  Sb9       1.0  0.006311841812397813  0.0034215732917625276  0.9994550895854935  1.0000
  Sb  Sb10      1.0  0.006296307700888583  0.008542984666707942  0.9998983832219563  1.0000
  Sb  Sb11      1.0  0.008715711809771865  0.004451497228481591  0.999797529250256  1.0000
  Sb  Sb12      1.0  0.008715711526969917  0.00945149693637673  0.9993662532648724  1.0000
  Sb  Sb13      1.0  0.0036704340198019077  0.005504204055630622  0.9999030865210379  1.0000
  Sb  Sb14      1.0  0.0037157117467786446  0.000548502586805042  0.9994608755493148  1.0000
  Sb  Sb15      1.0  0.001311841520137026  0.004518578250589626  0.9995497117092551  1.0000
  Sb  Sb16      1.0  0.0011982449660958058  0.009341309828161516  0.9999817976660075  1.0000
  C   C1        1.0  0.008454534729285292  0.006843841191700956  0.00018221824013329695  1.0000
  O   O1        1.0  0.008454534729285292  0.006843841191700956  0.0002945006522816665  1.0000
