data_image0
_chemical_formula_structural       COCu4Sn4Cu4Sn4
_chemical_formula_sum              "C1 O1 Cu8 Sn8"
_cell_length_a       6.672399299590579
_cell_length_b       7.323907852172852
_cell_length_c       103.82768249511719
_cell_angle_alpha    90.0
_cell_angle_beta     71.52674112631875
_cell_angle_gamma    56.71382282080464

_space_group_name_H-M_alt    "P 1"
_space_group_IT_number       1

loop_
  _space_group_symop_operation_xyz
  'x, y, z'

loop_
  _atom_site_type_symbol
  _atom_site_label
  _atom_site_symmetry_multiplicity
  _atom_site_fract_x
  _atom_site_fract_y
  _atom_site_fract_z
  _atom_site_occupancy
  C   C1        1.0  0.007478019679030077  0.0007346618090145738  2.0976455746860683e-06  1.0000
  O   O1        1.0  0.007478019679030077  0.0007346618090145738  0.00011767341906471486  1.0000
  Cu  Cu1       1.0  0.0012499999566952234  0.0038486716701820007  0.9995672894308308  1.0000
  Cu  Cu2       1.0  0.0012499999566952234  0.00884867181260341  0.9997709182072376  1.0000
  Cu  Cu3       1.0  0.006250000144349256  0.0013486715763549842  0.99987273204051  1.0000
  Cu  Cu4       1.0  0.006250000144349256  0.006348671718776394  0.999669103838176  1.0000
  Sn  Sn1       1.0  0.00374999987008567  0.004265337918979354  0.9997200110263811  1.0000
  Sn  Sn2       1.0  0.00374999987008567  0.009265338061400764  0.9999236392287151  1.0000
  Sn  Sn3       1.0  0.008750000057739703  0.008432004173066325  0.9996181966573193  1.0000
  Sn  Sn4       1.0  0.008750000057739703  0.0034320045392928077  0.9998218248596534  1.0000
  Cu  Cu5       1.0  0.0012499999566952234  0.0038486716701820007  0.9991600315909809  1.0000
  Cu  Cu6       1.0  0.0012499999566952234  0.00884867181260341  0.9993636603673877  1.0000
  Cu  Cu7       1.0  0.006250000144349256  0.0013486715763549842  0.9994654750617692  1.0000
  Cu  Cu8       1.0  0.006250000144349256  0.006348671718776394  0.999261845998326  1.0000
  Sn  Sn5       1.0  0.00374999987008567  0.004265337918979354  0.999312753186531  1.0000
  Sn  Sn6       1.0  0.00374999987008567  0.009265338061400764  0.9995163822499742  1.0000
  Sn  Sn7       1.0  0.008750000057739703  0.008432004173066325  0.9992109388174694  1.0000
  Sn  Sn8       1.0  0.008750000057739703  0.0034320045392928077  0.9994145678809125  1.0000
