data_image0
_chemical_formula_structural       HV12Co4V12Co4
_chemical_formula_sum              "H1 V24 Co8"
_cell_length_a       4.655666828155518
_cell_length_b       6.584106922149658
_cell_length_c       30.495359420776367
_cell_angle_alpha    90.0
_cell_angle_beta     90.0
_cell_angle_gamma    90.0

_space_group_name_H-M_alt    "P 1"
_space_group_IT_number       1

loop_
  _space_group_symop_operation_xyz
  'x, y, z'

loop_
  _atom_site_type_symbol
  _atom_site_label
  _atom_site_symmetry_multiplicity
  _atom_site_fract_x
  _atom_site_fract_y
  _atom_site_fract_z
  _atom_site_occupancy
  H   H1        1.0  0.0025000045049152256  0.0075584414775541455  0.00018522616481837307  1.0000
  V   V1        1.0  2.999999896155856e-09  0.006308534087762829  0.9981806202020146  1.0000
  V   V2        1.0  3.379999735470664e-08  0.0012868559944478777  0.9992568539627695  1.0000
  V   V3        1.0  2.999999896155856e-09  0.003808534008550774  0.998720383300473  1.0000
  V   V4        1.0  0.00999999641527172  0.00879130243303947  0.99978121962046  1.0000
  V   V5        1.0  0.00500001181039942  0.006325581087869217  0.9997812078931717  1.0000
  V   V6        1.0  0.005000002608529953  0.0013085339293387186  0.998720383300473  1.0000
  V   V7        1.0  0.005000002608529953  0.008808533884074687  0.9981806202020146  1.0000
  V   V8        1.0  0.005000010210074295  0.003830414075632793  0.9992569028264704  1.0000
  V   V9        1.0  0.007499922096172934  0.002558554762109269  0.0  1.0000
  V   V10       1.0  0.0075000029125917266  0.00755853370301856  0.9989902648497021  1.0000
  V   V11       1.0  0.0025000801202773636  0.0025585440119017607  2.443185041409211e-09  1.0000
  V   V12       1.0  0.002500002904590101  0.00755853370301856  0.9989902648497021  1.0000
  Co  Co1       1.0  0.005000002608529953  0.005058533906706702  0.9984505017512437  1.0000
  Co  Co2       1.0  0.004999995006985611  0.009941466002765234  0.9995593989414543  1.0000
  Co  Co3       1.0  6.07999987093928e-08  0.005175465611177044  0.9995594023619133  1.0000
  Co  Co4       1.0  2.999999896155856e-09  5.853395161710913e-05  0.9984505017512437  1.0000
  V   V13       1.0  2.999999896155856e-09  0.006308534087762829  0.9960215680524996  1.0000
  V   V14       1.0  2.999999896155856e-09  0.0013085339293387186  0.9971010942494163  1.0000
  V   V15       1.0  2.999999896155856e-09  0.003808534008550774  0.996561331150958  1.0000
  V   V16       1.0  2.999999896155856e-09  0.008808533884074687  0.9976408571035562  1.0000
  V   V17       1.0  0.005000002608529953  0.006308534087762829  0.9976408571035562  1.0000
  V   V18       1.0  0.005000002608529953  0.0013085339293387186  0.996561331150958  1.0000
  V   V19       1.0  0.005000002608529953  0.008808533884074687  0.9960215680524996  1.0000
  V   V20       1.0  0.005000002608529953  0.003808534008550774  0.9971010942494163  1.0000
  V   V21       1.0  0.0075000029125917266  0.0025585338274946474  0.9979107386527853  1.0000
  V   V22       1.0  0.0075000029125917266  0.00755853370301856  0.9968312127001872  1.0000
  V   V23       1.0  0.002500002904590101  0.0025585338274946474  0.9979107386527853  1.0000
  V   V24       1.0  0.002500002904590101  0.00755853370301856  0.9968312127001872  1.0000
  Co  Co5       1.0  0.005000002608529953  0.005058533906706702  0.9962914496017288  1.0000
  Co  Co6       1.0  0.005000002608529953  5.853395161710913e-05  0.9973709755543271  1.0000
  Co  Co7       1.0  2.999999896155856e-09  0.005058533906706702  0.9973709755543271  1.0000
  Co  Co8       1.0  2.999999896155856e-09  5.853395161710913e-05  0.9962914496017288  1.0000
