data_image0
_chemical_formula_structural       HNi5Pt5Ni5Pt5
_chemical_formula_sum              "H1 Ni10 Pt10"
_cell_length_a       6.105352123614668
_cell_length_b       4.552844741577562
_cell_length_c       101.85285949707031
_cell_angle_alpha    76.0709165936778
_cell_angle_beta     76.70243774747853
_cell_angle_gamma    74.44284901417134

_space_group_name_H-M_alt    "P 1"
_space_group_IT_number       1

loop_
  _space_group_symop_operation_xyz
  'x, y, z'

loop_
  _atom_site_type_symbol
  _atom_site_label
  _atom_site_symmetry_multiplicity
  _atom_site_fract_x
  _atom_site_fract_y
  _atom_site_fract_z
  _atom_site_occupancy
  H   H1        1.0  0.009499139332220385  0.006951562332482957  0.999911232762597  1.0000
  Ni  Ni1       1.0  0.004020525446533609  0.008996119536895395  0.9991973916896273  1.0000
  Ni  Ni2       1.0  0.00802052482400038  0.006996120049137595  0.9993016361461683  1.0000
  Ni  Ni3       1.0  2.05250903011923e-05  0.0009961200716347184  0.9990931468139685  1.0000
  Ni  Ni4       1.0  0.002020524988722159  0.004996120128742802  0.998884657381132  1.0000
  Ni  Ni5       1.0  0.006020524788427955  0.0029961199920295117  0.998988902131436  1.0000
  Pt  Pt1       1.0  0.004020525446533609  0.008996119536895395  0.9989367798185965  1.0000
  Pt  Pt2       1.0  0.00802052482400038  0.006996120049137595  0.9990410242751375  1.0000
  Pt  Pt3       1.0  2.05250903011923e-05  0.0009961200716347184  0.9993537583923977  1.0000
  Pt  Pt4       1.0  0.002020524988722159  0.004996120128742802  0.999145268959561  1.0000
  Pt  Pt5       1.0  0.006020524788427955  0.0029961199920295117  0.9992495137098651  1.0000
  Ni  Ni6       1.0  0.004038009205361675  0.00900388017929474  0.9997243184657775  1.0000
  Ni  Ni7       1.0  0.008018762543031797  0.007088637307131121  0.9998131668026019  1.0000
  Ni  Ni8       1.0  8.152519677407204e-05  0.001038854980474158  0.999609347207442  1.0000
  Ni  Ni9       1.0  0.002020524988722159  0.004996120128742802  0.9994058808305918  1.0000
  Ni  Ni10      1.0  0.006020524788427955  0.0029961199920295117  0.9995101252882942  1.0000
  Pt  Pt6       1.0  0.004020525446533609  0.008996119536895395  0.9994580032680564  1.0000
  Pt  Pt7       1.0  0.00802052482400038  0.006996120049137595  0.9995622477245975  1.0000
  Pt  Pt8       1.0  0.009979474511746916  0.0010332513579679192  0.9998617313772693  1.0000
  Pt  Pt9       1.0  0.002087434435351188  0.00503753084390269  0.9996720256183562  1.0000
  Pt  Pt10      1.0  0.0060233990506649  0.0029296260655468443  0.9997702809473212  1.0000
