data_image0
_chemical_formula_structural       COSi12V20
_chemical_formula_sum              "C1 O1 Si12 V20"
_cell_length_a       4.744046688079834
_cell_length_b       7.079945706893938
_cell_length_c       110.02460479736328
_cell_angle_alpha    90.0
_cell_angle_beta     90.0
_cell_angle_gamma    109.5746124716462

_space_group_name_H-M_alt    "P 1"
_space_group_IT_number       1

loop_
  _space_group_symop_operation_xyz
  'x, y, z'

loop_
  _atom_site_type_symbol
  _atom_site_label
  _atom_site_symmetry_multiplicity
  _atom_site_fract_x
  _atom_site_fract_y
  _atom_site_fract_z
  _atom_site_occupancy
  C   C1        1.0  0.0003760863505534252  0.002500069716903534  0.00011132632845727577  1.0000
  O   O1        1.0  0.0003760863505534252  0.002500069716903534  0.00022039252084352526  1.0000
  Si  Si1       1.0  0.009534638883777386  0.008317877744366481  0.9996967717585878  1.0000
  Si  Si2       1.0  0.004534638534338544  0.008317877744366481  0.9990904737344884  1.0000
  Si  Si3       1.0  0.007876340710340244  0.009999969486289579  0.0  1.0000
  Si  Si4       1.0  0.002875704185953207  8.599999987670962e-09  0.9993936226111033  1.0000
  Si  Si5       1.0  0.007875704389842492  0.005000008756496695  0.9988893121437306  1.0000
  Si  Si6       1.0  0.0028757040404036502  0.005000008756496695  0.9994956098969603  1.0000
  Si  Si7       1.0  0.001216769476662502  0.001682139629014398  0.9990904737344884  1.0000
  Si  Si8       1.0  0.006216769826101344  0.001682139629014398  0.9996967717585878  1.0000
  Si  Si9       1.0  0.007875704044607159  8.599999987670962e-09  0.9993936226111033  1.0000
  Si  Si10      1.0  0.002874991172341513  0.009999991824291352  0.9999999902486938  1.0000
  Si  Si11      1.0  0.00287583271995148  0.005000170707009551  0.999907804109001  1.0000
  Si  Si12      1.0  0.007875704389842492  0.005000008756496695  0.9992916353252463  1.0000
  V   V1        1.0  0.0046049334254694325  0.00845858649288583  0.9998191127290863  1.0000
  V   V2        1.0  0.009624296363044325  0.00849719270290036  0.9992118620565495  1.0000
  V   V3        1.0  0.0003757040129196966  0.005000008756496695  0.9990904737344884  1.0000
  V   V4        1.0  0.005375704264201561  0.005000008756496695  0.9996967717585878  1.0000
  V   V5        1.0  0.0018746417577811122  0.002997884093094641  0.9988784402499766  1.0000
  V   V6        1.0  0.006874642058141466  0.002997884093094641  0.9994847377323368  1.0000
  V   V7        1.0  0.008858501665809124  0.006966127074065595  0.9999033976020975  1.0000
  V   V8        1.0  0.0038767661834136773  0.007002133140673728  0.9993025069481307  1.0000
  V   V9        1.0  0.005375704264201561  0.005000008756496695  0.9990904737344884  1.0000
  V   V10       1.0  0.0003757040129196966  0.005000008756496695  0.9996967717585878  1.0000
  V   V11       1.0  0.006892886299646837  0.003033982303960088  0.9999033878507914  1.0000
  V   V12       1.0  0.0018746417577811122  0.002997884093094641  0.9993025069481307  1.0000
  V   V13       1.0  0.006127112207221894  0.001502824391255498  0.9989690854124273  1.0000
  V   V14       1.0  0.001127111857783052  0.001502824391255498  0.9995753831656571  1.0000
  V   V15       1.0  0.004624296013605482  0.00849719270290036  0.9995753831656571  1.0000
  V   V16       1.0  0.009624296363044325  0.00849719270290036  0.9989690854124273  1.0000
  V   V17       1.0  0.0038767661834136773  0.007002133140673728  0.9988784402499766  1.0000
  V   V18       1.0  0.008876766581931008  0.007002133140673728  0.9994847377323368  1.0000
  V   V19       1.0  0.006127112207221894  0.001502824391255498  0.9992118620565495  1.0000
  V   V20       1.0  0.001146339892957273  0.0015412069420272742  0.9998191138125648  1.0000
