data_image0
_chemical_formula_structural       HFe16
_chemical_formula_sum              "H1 Fe16"
_cell_length_a       4.8077497482299805
_cell_length_b       4.807749509502081
_cell_length_c       101.40409088134766
_cell_angle_alpha    90.0
_cell_angle_beta     90.0
_cell_angle_gamma    70.52877936420602

_space_group_name_H-M_alt    "P 1"
_space_group_IT_number       1

loop_
  _space_group_symop_operation_xyz
  'x, y, z'

loop_
  _atom_site_type_symbol
  _atom_site_label
  _atom_site_symmetry_multiplicity
  _atom_site_fract_x
  _atom_site_fract_y
  _atom_site_fract_z
  _atom_site_occupancy
  H   H1        1.0  0.003749999695538575  0.0037499999835629246  0.00014792288520624528  1.0000
  Fe  Fe1       1.0  0.0012499999516691503  0.001250000028764882  0.9994193266445027  1.0000
  Fe  Fe2       1.0  0.003749999695538575  0.0037499999835629246  0.9996128843317029  1.0000
  Fe  Fe3       1.0  0.0012499999516691503  0.001250000028764882  0.9998064420189031  1.0000
  Fe  Fe4       1.0  0.003749999695538575  0.0037499999835629246  0.0  1.0000
  Fe  Fe5       1.0  0.001250000039293226  0.006249999835629246  0.9994193266445027  1.0000
  Fe  Fe6       1.0  0.0037499998741437157  0.008750000098622453  0.9996128843317029  1.0000
  Fe  Fe7       1.0  0.001250000039293226  0.006249999835629246  0.9998064420189031  1.0000
  Fe  Fe8       1.0  0.0037499998741437157  0.008750000098622453  0.0  1.0000
  Fe  Fe9       1.0  0.006249999773453392  0.001250000028764882  0.9994193266445027  1.0000
  Fe  Fe10      1.0  0.008749999323610036  0.0037499999835629246  0.9996128843317029  1.0000
  Fe  Fe11      1.0  0.006249999773453392  0.001250000028764882  0.9998064420189031  1.0000
  Fe  Fe12      1.0  0.008749999323610036  0.0037499999835629246  0.0  1.0000
  Fe  Fe13      1.0  0.006250000054790248  0.006249999835629246  0.9994193266445027  1.0000
  Fe  Fe14      1.0  0.008749999502215177  0.008750000098622453  0.9996128843317029  1.0000
  Fe  Fe15      1.0  0.006250000054790248  0.006249999835629246  0.9998064420189031  1.0000
  Fe  Fe16      1.0  0.008749999502215177  0.008750000098622453  0.0  1.0000
