data_image0
_chemical_formula_structural       HRh8V4Zn4Rh8V4Zn4Rh8V4Zn4Rh8V4Zn4
_chemical_formula_sum              "H1 Rh32 V16 Zn16"
_cell_length_a       8.576613426208496
_cell_length_b       8.576613426208496
_cell_length_c       106.38748931884766
_cell_angle_alpha    90.0
_cell_angle_beta     90.0
_cell_angle_gamma    90.0

_space_group_name_H-M_alt    "P 1"
_space_group_IT_number       1

loop_
  _space_group_symop_operation_xyz
  'x, y, z'

loop_
  _atom_site_type_symbol
  _atom_site_label
  _atom_site_symmetry_multiplicity
  _atom_site_fract_x
  _atom_site_fract_y
  _atom_site_fract_z
  _atom_site_occupancy
  H   H1        1.0  0.004999989280131912  0.0025000072363453134  0.00011580236103026436  1.0000
  Rh  Rh1       1.0  0.009999988984770879  0.0025000072363453134  0.9999999949576609  1.0000
  Rh  Rh2       1.0  0.0025000007210284046  2.7800001081033936e-08  0.0  1.0000
  Rh  Rh3       1.0  0.0025000111455354586  2.000000153764554e-09  0.9997228719195297  1.0000
  Rh  Rh4       1.0  1.11000004495164e-08  0.002500002024091786  0.9997228719195297  1.0000
  Rh  Rh5       1.0  1.11000004495164e-08  0.002500002024091786  0.9994378486564627  1.0000
  Rh  Rh6       1.0  0.0025000111455354586  2.000000153764554e-09  0.9994378486564627  1.0000
  Rh  Rh7       1.0  0.0025000111455354586  2.000000153764554e-09  0.9991528251132658  1.0000
  Rh  Rh8       1.0  1.11000004495164e-08  0.002500002024091786  0.9991528251132658  1.0000
  V   V1        1.0  1.11000004495164e-08  2.000000153764554e-09  0.9995803602879961  1.0000
  V   V2        1.0  0.0025000385098664763  0.002499998766433332  0.9998836765972571  1.0000
  V   V3        1.0  1.11000004495164e-08  2.000000153764554e-09  0.9990103134817322  1.0000
  V   V4        1.0  0.0025000111455354586  0.002500002024091786  0.9992953370249292  1.0000
  Zn  Zn1       1.0  0.0025000111455354586  0.002500002024091786  0.9995803602879961  1.0000
  Zn  Zn2       1.0  1.3300000225136351e-08  0.009999998540569013  0.9998682492804829  1.0000
  Zn  Zn3       1.0  0.0025000111455354586  0.002500002024091786  0.9990103134817322  1.0000
  Zn  Zn4       1.0  1.11000004495164e-08  2.000000153764554e-09  0.9992953370249292  1.0000
  Rh  Rh9       1.0  0.009999988984770879  0.00750000715816151  0.9999999949576609  1.0000
  Rh  Rh10      1.0  0.0025000007210284046  0.005000027937678905  0.0  1.0000
  Rh  Rh11      1.0  0.0025000111455354586  0.00500000231076573  0.9997228719195297  1.0000
  Rh  Rh12      1.0  1.11000004495164e-08  0.007500001945907983  0.9997228719195297  1.0000
  Rh  Rh13      1.0  1.11000004495164e-08  0.007500001945907983  0.9994378486564627  1.0000
  Rh  Rh14      1.0  0.0025000111455354586  0.00500000231076573  0.9994378486564627  1.0000
  Rh  Rh15      1.0  0.0025000111455354586  0.00500000231076573  0.9991528251132658  1.0000
  Rh  Rh16      1.0  1.11000004495164e-08  0.007500001945907983  0.9991528251132658  1.0000
  V   V5        1.0  1.11000004495164e-08  0.00500000231076573  0.9995803602879961  1.0000
  V   V6        1.0  0.0025000385098664763  0.00749999933978122  0.9998836765972571  1.0000
  V   V7        1.0  1.11000004495164e-08  0.00500000231076573  0.9990103134817322  1.0000
  V   V8        1.0  0.0025000111455354586  0.007500001945907983  0.9992953370249292  1.0000
  Zn  Zn5       1.0  0.0025000111455354586  0.007500001945907983  0.9995803602879961  1.0000
  Zn  Zn6       1.0  1.3300000225136351e-08  0.004999998401575585  0.9998682492804829  1.0000
  Zn  Zn7       1.0  0.0025000111455354586  0.007500001945907983  0.9990103134817322  1.0000
  Zn  Zn8       1.0  1.11000004495164e-08  0.00500000231076573  0.9992953370249292  1.0000
  Rh  Rh17      1.0  0.004999989280131912  0.0025000072363453134  0.9999999949576609  1.0000
  Rh  Rh18      1.0  0.0075000010771990614  2.7800001081033936e-08  0.0  1.0000
  Rh  Rh19      1.0  0.007500011501706116  2.000000153764554e-09  0.9997228719195297  1.0000
  Rh  Rh20      1.0  0.005000011432209402  0.002500002024091786  0.9997228719195297  1.0000
  Rh  Rh21      1.0  0.005000011432209402  0.002500002024091786  0.9994378486564627  1.0000
  Rh  Rh22      1.0  0.007500011501706116  2.000000153764554e-09  0.9994378486564627  1.0000
  Rh  Rh23      1.0  0.007500011501706116  2.000000153764554e-09  0.9991528251132658  1.0000
  Rh  Rh24      1.0  0.005000011432209402  0.002500002024091786  0.9991528251132658  1.0000
  V   V9        1.0  0.005000011432209402  2.000000153764554e-09  0.9995803602879961  1.0000
  V   V10       1.0  0.007500038431682673  0.002499998766433332  0.9998836765972571  1.0000
  V   V11       1.0  0.005000011432209402  2.000000153764554e-09  0.9990103134817322  1.0000
  V   V12       1.0  0.007500011501706116  0.002500002024091786  0.9992953370249292  1.0000
  Zn  Zn9       1.0  0.007500011501706116  0.002500002024091786  0.9995803602879961  1.0000
  Zn  Zn10      1.0  0.005000013603981705  0.009999998540569013  0.9998682492804829  1.0000
  Zn  Zn11      1.0  0.007500011501706116  0.002500002024091786  0.9990103134817322  1.0000
  Zn  Zn12      1.0  0.005000011432209402  2.000000153764554e-09  0.9992953370249292  1.0000
  Rh  Rh25      1.0  0.004999989280131912  0.00750000715816151  0.9999999949576609  1.0000
  Rh  Rh26      1.0  0.0075000010771990614  0.005000027937678905  0.0  1.0000
  Rh  Rh27      1.0  0.007500011501706116  0.00500000231076573  0.9997228719195297  1.0000
  Rh  Rh28      1.0  0.005000011432209402  0.007500001945907983  0.9997228719195297  1.0000
  Rh  Rh29      1.0  0.005000011432209402  0.007500001945907983  0.9994378486564627  1.0000
  Rh  Rh30      1.0  0.007500011501706116  0.00500000231076573  0.9994378486564627  1.0000
  Rh  Rh31      1.0  0.007500011501706116  0.00500000231076573  0.9991528251132658  1.0000
  Rh  Rh32      1.0  0.005000011432209402  0.007500001945907983  0.9991528251132658  1.0000
  V   V13       1.0  0.005000011432209402  0.00500000231076573  0.9995803602879961  1.0000
  V   V14       1.0  0.007500038431682673  0.00749999933978122  0.9998836765972571  1.0000
  V   V15       1.0  0.005000011432209402  0.00500000231076573  0.9990103134817322  1.0000
  V   V16       1.0  0.007500011501706116  0.007500001945907983  0.9992953370249292  1.0000
  Zn  Zn13      1.0  0.007500011501706116  0.007500001945907983  0.9995803602879961  1.0000
  Zn  Zn14      1.0  0.005000013603981705  0.004999998401575585  0.9998682492804829  1.0000
  Zn  Zn15      1.0  0.007500011501706116  0.007500001945907983  0.9990103134817322  1.0000
  Zn  Zn16      1.0  0.005000011432209402  0.00500000231076573  0.9992953370249292  1.0000
