data_image0
_chemical_formula_structural       COV3Ir3V3Ir3V3Ir3V3Ir3
_chemical_formula_sum              "C1 O1 V12 Ir12"
_cell_length_a       6.15928841475607
_cell_length_b       7.385311603546143
_cell_length_c       101.16381072998047
_cell_angle_alpha    90.0
_cell_angle_beta     108.4349491735949
_cell_angle_gamma    90.0

_space_group_name_H-M_alt    "P 1"
_space_group_IT_number       1

loop_
  _space_group_symop_operation_xyz
  'x, y, z'

loop_
  _atom_site_type_symbol
  _atom_site_label
  _atom_site_symmetry_multiplicity
  _atom_site_fract_x
  _atom_site_fract_y
  _atom_site_fract_z
  _atom_site_occupancy
  C   C1        1.0  0.008802015745454505  0.003749999959646493  0.00013936093501680855  1.0000
  O   O1        1.0  0.008802015745454505  0.003749999959646493  0.0002579806690116529  1.0000
  V   V1        1.0  0.00119798402184292  0.003749999959646493  2.30651558842328e-05  1.0000
  V   V2        1.0  0.00786465087870941  0.003749999959646493  0.9997663543449337  1.0000
  V   V3        1.0  0.004531317490122496  0.003749999959646493  0.9998947098984735  1.0000
  Ir  Ir1       1.0  0.00119798402184292  0.001249999944513928  0.99983053220106  1.0000
  Ir  Ir2       1.0  0.00786465087870941  0.001249999944513928  0.9999588875943526  1.0000
  Ir  Ir3       1.0  0.004531317490122496  0.001249999944513928  0.9997021766490545  1.0000
  V   V4        1.0  0.00119798402184292  0.003749999959646493  0.9996379989516411  1.0000
  V   V5        1.0  0.00786465087870941  0.003749999959646493  0.9993812881406905  1.0000
  V   V6        1.0  0.004531317490122496  0.003749999959646493  0.9995096433996356  1.0000
  Ir  Ir4       1.0  0.00119798402184292  0.001249999944513928  0.9994454657022221  1.0000
  Ir  Ir5       1.0  0.00786465087870941  0.001249999944513928  0.9995738210955147  1.0000
  Ir  Ir6       1.0  0.004531317490122496  0.001249999944513928  0.9993171104448113  1.0000
  V   V7        1.0  0.00119798402184292  0.008750000242121043  2.30651558842328e-05  1.0000
  V   V8        1.0  0.00786465087870941  0.008750000242121043  0.9997663543449337  1.0000
  V   V9        1.0  0.004531317490122496  0.008750000242121043  0.9998947098984735  1.0000
  Ir  Ir7       1.0  0.00119798402184292  0.006250000100883768  0.99983053220106  1.0000
  Ir  Ir8       1.0  0.00786465087870941  0.006250000100883768  0.9999588875943526  1.0000
  Ir  Ir9       1.0  0.004531317490122496  0.006250000100883768  0.9997021766490545  1.0000
  V   V10       1.0  0.00119798402184292  0.008750000242121043  0.9996379989516411  1.0000
  V   V11       1.0  0.00786465087870941  0.008750000242121043  0.9993812881406905  1.0000
  V   V12       1.0  0.004531317490122496  0.008750000242121043  0.9995096433996356  1.0000
  Ir  Ir10      1.0  0.00119798402184292  0.006250000100883768  0.9994454657022221  1.0000
  Ir  Ir11      1.0  0.00786465087870941  0.006250000100883768  0.9995738210955147  1.0000
  Ir  Ir12      1.0  0.004531317490122496  0.006250000100883768  0.9993171104448113  1.0000
