data_image0
_chemical_formula_structural       HPd12V4
_chemical_formula_sum              "H1 Pd12 V4"
_cell_length_a       4.8047277102712895
_cell_length_b       4.804727554321289
_cell_length_c       103.05157470703125
_cell_angle_alpha    90.0
_cell_angle_beta     90.0
_cell_angle_gamma    110.04600893054712

_space_group_name_H-M_alt    "P 1"
_space_group_IT_number       1

loop_
  _space_group_symop_operation_xyz
  'x, y, z'

loop_
  _atom_site_type_symbol
  _atom_site_label
  _atom_site_symmetry_multiplicity
  _atom_site_fract_x
  _atom_site_fract_y
  _atom_site_fract_z
  _atom_site_occupancy
  H   H1        1.0  0.002499999884452474  0.002499999968146625  0.0  1.0000
  Pd  Pd1       1.0  0.002499999884452474  0.007499999650257836  1.407990001018718e-05  1.0000
  Pd  Pd2       1.0  0.007500000066027157  0.002500000030628112  0.9997468064614321  1.0000
  Pd  Pd3       1.0  0.007500000066027157  0.002500000030628112  1.407990001018718e-05  1.0000
  Pd  Pd4       1.0  0.002499999884452474  0.007499999650257836  0.9997468064614321  1.0000
  Pd  Pd5       1.0  0.002499999884452474  0.002499999968146625  0.9996131691637468  1.0000
  Pd  Pd6       1.0  0.007500000066027157  0.007500000239727216  0.9998804431807211  1.0000
  Pd  Pd7       1.0  0.002499999884452474  0.007499999650257836  0.9994795324444576  1.0000
  Pd  Pd8       1.0  0.007500000066027157  0.002500000030628112  0.9992122587166814  1.0000
  Pd  Pd9       1.0  0.007500000066027157  0.002500000030628112  0.9994795324444576  1.0000
  Pd  Pd10      1.0  0.002499999884452474  0.007499999650257836  0.9992122587166814  1.0000
  Pd  Pd11      1.0  0.002499999884452474  0.002499999968146625  0.9990786219973924  1.0000
  Pd  Pd12      1.0  0.007500000066027157  0.007500000239727216  0.9993458957251686  1.0000
  V   V1        1.0  0.002499999884452474  0.002499999968146625  0.9998804431807211  1.0000
  V   V2        1.0  0.007500000066027157  0.007500000239727216  0.9996131691637468  1.0000
  V   V3        1.0  0.002499999884452474  0.002499999968146625  0.9993458957251686  1.0000
  V   V4        1.0  0.007500000066027157  0.007500000239727216  0.9990786219973924  1.0000
