data_image0
_chemical_formula_structural       Fe10Sb20CO
_chemical_formula_sum              "Fe10 Sb20 C1 O1"
_cell_length_a       8.757413230821278
_cell_length_b       9.265057242135926
_cell_length_c       107.31979370117188
_cell_angle_alpha    75.84490141950992
_cell_angle_beta     81.5614264709281
_cell_angle_gamma    57.884935063931955

_space_group_name_H-M_alt    "P 1"
_space_group_IT_number       1

loop_
  _space_group_symop_operation_xyz
  'x, y, z'

loop_
  _atom_site_type_symbol
  _atom_site_label
  _atom_site_symmetry_multiplicity
  _atom_site_fract_x
  _atom_site_fract_y
  _atom_site_fract_z
  _atom_site_occupancy
  Fe  Fe1       1.0  0.008120938278641228  0.0083274005130737  0.9990443181758927  1.0000
  Fe  Fe2       1.0  0.0061209377435091535  0.00632740066420203  0.9992181900518486  1.0000
  Fe  Fe3       1.0  0.004120937638419889  0.004327400815330358  0.999392061922655  1.0000
  Fe  Fe4       1.0  0.0002465476886617732  0.00035305254781979324  0.9997274229690891  1.0000
  Fe  Fe5       1.0  0.002120937878170727  0.0023274007242658525  0.9995659337944449  1.0000
  Fe  Fe6       1.0  0.008120938278641228  0.0083274005130737  0.9994789980465724  1.0000
  Fe  Fe7       1.0  0.006127953477035628  0.006432912456954777  0.9996439797052005  1.0000
  Fe  Fe8       1.0  0.0039040241619474588  0.004395555816512414  0.9998147120520771  1.0000
  Fe  Fe9       1.0  0.00012093790290015945  0.00032740063320134687  0.9993051257981301  1.0000
  Fe  Fe10      1.0  0.002120937878170727  0.0023274007242658525  0.9991312539237652  1.0000
  Sb  Sb1       1.0  0.00787906222196319  0.009672599579928347  0.9992361548348985  1.0000
  Sb  Sb2       1.0  0.005879061946468509  0.007672599246671007  0.9994100267179717  1.0000
  Sb  Sb3       1.0  0.003879061841379246  0.0056725993977993355  0.9995838985887779  1.0000
  Sb  Sb4       1.0  0.0098790618775339  0.0016725993367667415  0.9990622831491439  1.0000
  Sb  Sb5       1.0  0.0019161044823048107  0.0035225133759421183  0.9997633618953826  1.0000
  Sb  Sb6       1.0  0.0003628136991231893  0.008982201779476394  0.9995479688306976  1.0000
  Sb  Sb7       1.0  0.008442239314030368  0.0068213335748183185  0.9997276232140107  1.0000
  Sb  Sb8       1.0  0.006362813540549798  0.0049822020817330516  0.9990263533857257  1.0000
  Sb  Sb9       1.0  0.0023628137725753935  0.0009822019601522492  0.9993740971309909  1.0000
  Sb  Sb10      1.0  0.00436281356527923  0.002982201990668546  0.9992002252600906  1.0000
  Sb  Sb11      1.0  0.005521337837225613  0.001244415362617777  0.9995341875872404  1.0000
  Sb  Sb12      1.0  0.003517180474981391  0.009146469553888393  0.9996947303232697  1.0000
  Sb  Sb13      1.0  0.0012267073466681482  0.00730451312358106  0.9998532279340471  1.0000
  Sb  Sb14      1.0  0.007521338372357687  0.003244415211489448  0.9993603157112845  1.0000
  Sb  Sb15      1.0  0.009521338047404142  0.005244415060361119  0.999186443845628  1.0000
  Sb  Sb16      1.0  0.0007205375941622953  0.005410385934785599  0.9994238081359929  1.0000
  Sb  Sb17      1.0  0.008720537240454055  0.0034103858437210936  0.9995976800148895  1.0000
  Sb  Sb18      1.0  0.006764740081449015  0.0015969697803251313  0.999772407379005  1.0000
  Sb  Sb19      1.0  0.0027205376992515593  0.00741038578365727  0.9992499362651867  1.0000
  Sb  Sb20      1.0  0.00472053711466062  0.009410386116914611  0.9990760643924128  1.0000
  C   C1        1.0  0.007424245423654191  0.004921649029241517  0.9998071891515826  1.0000
  O   O1        1.0  0.007424245423654191  0.004921649029241517  0.9999190041700448  1.0000
