data_image0
_chemical_formula_structural       FeSi2FeSi2FeSi2FeSi2FeSi2FeSi2H
_chemical_formula_sum              "Fe6 Si12 H1"
_cell_length_a       5.433845520019531
_cell_length_b       5.161032676696777
_cell_length_c       40.11384963989258
_cell_angle_alpha    90.0
_cell_angle_beta     90.0
_cell_angle_gamma    90.0

_space_group_name_H-M_alt    "P 1"
_space_group_IT_number       1

loop_
  _space_group_symop_operation_xyz
  'x, y, z'

loop_
  _atom_site_type_symbol
  _atom_site_label
  _atom_site_symmetry_multiplicity
  _atom_site_fract_x
  _atom_site_fract_y
  _atom_site_fract_z
  _atom_site_occupancy
  Fe  Fe1       1.0  0.01  0.009999989461559  0.9997088638593548  1.0000
  Si  Si1       1.0  0.00250000085696453  0.0071621713623265  1.485886927095493e-08  1.0000
  Si  Si2       1.0  0.0024999991430354695  0.00283779139222449  0.0  1.0000
  Fe  Fe2       1.0  1.0000000139282888e-10  1.0700000267436272e-08  0.9990175798551296  1.0000
  Si  Si3       1.0  0.0024999991430354695  0.007268388020431525  0.9993488211983523  1.0000
  Si  Si4       1.0  0.00250000085696453  0.0027315985538833663  0.9993488219412958  1.0000
  Fe  Fe3       1.0  1.0000000139282888e-10  1.0700000267436272e-08  0.9983402769324732  1.0000
  Si  Si5       1.0  0.002500000171392906  0.007272832932737837  0.9986789283938015  1.0000
  Si  Si6       1.0  0.002500000171392906  0.00272718864941188  0.9986789283938015  1.0000
  Fe  Fe4       1.0  0.005  0.009999989461559  0.9997088638593548  1.0000
  Si  Si7       1.0  0.0075000006855716235  0.0071621713623265  1.485886927095493e-08  1.0000
  Si  Si8       1.0  0.007499999314428375  0.00283779139222449  0.0  1.0000
  Fe  Fe5       1.0  0.005000000342785812  1.0700000267436272e-08  0.9990175798551296  1.0000
  Si  Si9       1.0  0.007499999314428375  0.007268388020431525  0.9993488211983523  1.0000
  Si  Si10      1.0  0.0075000006855716235  0.0027315985538833663  0.9993488219412958  1.0000
  Fe  Fe6       1.0  0.005000000342785812  1.0700000267436272e-08  0.9983402769324732  1.0000
  Si  Si11      1.0  0.0075  0.007272832932737837  0.9986789283938015  1.0000
  Si  Si12      1.0  0.0075  0.00272718864941188  0.9986789283938015  1.0000
  H   H1        1.0  0.0049999993144283755  0.007268388020431525  0.9997227569021231  1.0000
