data_image0
_chemical_formula_structural       HMn8Al22Mn8Al22
_chemical_formula_sum              "H1 Mn16 Al44"
_cell_length_a       10.170469014261931
_cell_length_b       7.780001800639961
_cell_length_c       108.88235473632812
_cell_angle_alpha    90.23422796593918
_cell_angle_beta     60.19113146525803
_cell_angle_gamma    76.5376109575195

_space_group_name_H-M_alt    "P 1"
_space_group_IT_number       1

loop_
  _space_group_symop_operation_xyz
  'x, y, z'

loop_
  _atom_site_type_symbol
  _atom_site_label
  _atom_site_symmetry_multiplicity
  _atom_site_fract_x
  _atom_site_fract_y
  _atom_site_fract_z
  _atom_site_occupancy
  H   H1        1.0  0.007437262533776809  0.007338648315161539  0.9997198464528498  1.0000
  Mn  Mn1       1.0  0.006578145804429425  0.00933789902367275  0.9994261993970236  1.0000
  Mn  Mn2       1.0  0.006587378087902831  0.004255710303866929  0.9991242297057901  1.0000
  Mn  Mn3       1.0  0.004615009516890734  0.0016029985379454196  0.9991445621020321  1.0000
  Mn  Mn4       1.0  0.0045292423313410286  0.006652065824949777  0.9994422910320924  1.0000
  Mn  Mn5       1.0  0.009269154724644704  0.008327268237899298  0.999092022741052  1.0000
  Mn  Mn6       1.0  0.009202419531462851  0.003370506483103139  0.9993906815019324  1.0000
  Mn  Mn7       1.0  0.0018617675339401437  0.002556409171218177  0.9994830186386526  1.0000
  Mn  Mn8       1.0  0.0019332324416439  0.007531440834300913  0.9991767690783033  1.0000
  Al  Al1       1.0  0.0006011934822881601  0.002929354509603039  0.9991343955246568  1.0000
  Al  Al2       1.0  0.0007191221565303591  0.007883418827206789  0.9994353834152988  1.0000
  Al  Al3       1.0  0.0075985788622478685  0.008794257049332396  0.9995944081202127  1.0000
  Al  Al4       1.0  0.007352339470279271  0.003907094105310471  0.9993000688691281  1.0000
  Al  Al5       1.0  0.003907394497951249  0.0017924390495472188  0.9995628447837395  1.0000
  Al  Al6       1.0  0.0038500476960093327  0.006951614679589953  0.9992663100066717  1.0000
  Al  Al7       1.0  0.006926160005591535  0.007110305298443793  0.9992227853572831  1.0000
  Al  Al8       1.0  0.006900035195460675  0.0020540286077547817  0.9995204709206367  1.0000
  Al  Al9       1.0  0.0018686634629751387  0.000727381265239025  0.9992823900112702  1.0000
  Al  Al10      1.0  0.0021006499089060316  0.0055227687731936575  0.9995731047791802  1.0000
  Al  Al11      1.0  0.009333723703313465  0.00013132766331129197  0.9992839883260448  1.0000
  Al  Al12      1.0  0.009364234001570928  0.005226299217382715  0.9995667094121944  1.0000
  Al  Al13      1.0  0.0018527352087294845  0.00429814761435256  0.9992799213725063  1.0000
  Al  Al14      1.0  0.0020299510693711762  0.009349413311170186  0.9995678357038448  1.0000
  Al  Al15      1.0  0.00934965195755912  0.0065605611705478635  0.999286456955871  1.0000
  Al  Al16      1.0  0.009398806609797881  0.0014299605409676854  0.9995691195705566  1.0000
  Al  Al17      1.0  0.004386046781926445  0.009868671776803561  0.9993449081936213  1.0000
  Al  Al18      1.0  0.004340513303665233  0.004866626146937246  0.9990542784358323  1.0000
  Al  Al19      1.0  0.0068618738626233695  0.0009920823506633914  0.9992145133922508  1.0000
  Al  Al20      1.0  0.006649127918169838  0.006218156750370393  0.9995116550071641  1.0000
  Al  Al21      1.0  0.004327844895308308  0.003697518210231339  0.999339031023063  1.0000
  Al  Al22      1.0  0.0042762275992020305  0.008748402681469198  0.9990460058939693  1.0000
  Mn  Mn9       1.0  0.006587378087902831  0.009255710591166717  0.9988266426493456  1.0000
  Mn  Mn10      1.0  0.006587378087902831  0.004255710303866929  0.998529055601629  1.0000
  Mn  Mn11      1.0  0.004615009516890734  0.0016029985379454196  0.998549387997871  1.0000
  Mn  Mn12      1.0  0.004615009516890734  0.0066029983464122284  0.9988469750454478  1.0000
  Mn  Mn13      1.0  0.009269154724644704  0.008327268237899298  0.9984968486368908  1.0000
  Mn  Mn14      1.0  0.009269154724644704  0.0033272679505995115  0.9987944356933353  1.0000
  Mn  Mn15      1.0  0.0019332324416439  0.0025314407864176144  0.9988791820306566  1.0000
  Mn  Mn16      1.0  0.0019332324416439  0.007531440834300913  0.9985815949741422  1.0000
  Al  Al23      1.0  0.0006011934822881601  0.002929354509603039  0.998539221967918  1.0000
  Al  Al24      1.0  0.0006011934822881601  0.007929354796902826  0.9988368090156348  1.0000
  Al  Al25      1.0  0.007352339470279271  0.008907094392610258  0.9990024818126837  1.0000
  Al  Al26      1.0  0.007352339470279271  0.003907094105310471  0.998704894764967  1.0000
  Al  Al27      1.0  0.0038500476960093327  0.0019516146317066546  0.998968722959025  1.0000
  Al  Al28      1.0  0.0038500476960093327  0.006951614679589953  0.9986711359025106  1.0000
  Al  Al29      1.0  0.006926160005591535  0.007110305298443793  0.9986276118005444  1.0000
  Al  Al30      1.0  0.006926160005591535  0.002110305489976984  0.9989251988571287  1.0000
  Al  Al31      1.0  0.0018686634629751387  0.000727381265239025  0.9986872164545315  1.0000
  Al  Al32      1.0  0.0018686634629751387  0.005727381073705834  0.9989848029546858  1.0000
  Al  Al33      1.0  0.009333723703313465  0.00013132766331129197  0.9986888142218836  1.0000
  Al  Al34      1.0  0.009333723703313465  0.00513132771119459  0.9989864012695304  1.0000
  Al  Al35      1.0  0.0018527352087294845  0.00429814761435256  0.9986847478157677  1.0000
  Al  Al36      1.0  0.0018527352087294845  0.009298147901652348  0.9989823343160619  1.0000
  Al  Al37      1.0  0.00934965195755912  0.0065605611705478635  0.9986912828517098  1.0000
  Al  Al38      1.0  0.00934965195755912  0.0015605608832480774  0.9989888699081543  1.0000
  Al  Al39      1.0  0.004340513303665233  0.009866625955404055  0.998756691379248  1.0000
  Al  Al40      1.0  0.004340513303665233  0.004866626146937246  0.9984591046053825  1.0000
  Al  Al41      1.0  0.0068618738626233695  0.0009920823506633914  0.9986193392880897  1.0000
  Al  Al42      1.0  0.0068618738626233695  0.005992082159130201  0.9989169263356664  1.0000
  Al  Al43      1.0  0.0042762275992020305  0.003748402873002387  0.9987484188463924  1.0000
  Al  Al44      1.0  0.0042762275992020305  0.008748402681469198  0.9984508320635194  1.0000
