data_image0
_chemical_formula_structural       COV18Sb6V18Sb6
_chemical_formula_sum              "C1 O1 V36 Sb12"
_cell_length_a       4.950314044952393
_cell_length_b       11.069238439443383
_cell_length_c       112.00480651855469
_cell_angle_alpha    71.56505117707799
_cell_angle_beta     90.0
_cell_angle_gamma    90.0

_space_group_name_H-M_alt    "P 1"
_space_group_IT_number       1

loop_
  _space_group_symop_operation_xyz
  'x, y, z'

loop_
  _atom_site_type_symbol
  _atom_site_label
  _atom_site_symmetry_multiplicity
  _atom_site_fract_x
  _atom_site_fract_y
  _atom_site_fract_z
  _atom_site_occupancy
  C   C1        1.0  0.0050001531110061385  0.00142276396114794  0.9999158617427887  1.0000
  O   O1        1.0  0.0050001531110061385  0.00142276396114794  2.2999687016669646e-05  1.0000
  V   V1        1.0  3.7999998450175306e-09  0.007546898038816097  0.9987492478110197  1.0000
  V   V2        1.0  3.7999998450175306e-09  0.004213565116991551  0.999165944393588  1.0000
  V   V3        1.0  3.7999998450175306e-09  0.0008802315743563344  0.9989575960385554  1.0000
  V   V4        1.0  3.7999998450175306e-09  0.005880231400529346  0.9986450736293458  1.0000
  V   V5        1.0  3.7999998450175306e-09  0.0025468983013303232  0.9990617702174576  1.0000
  V   V6        1.0  3.7999998450175306e-09  0.009213564677102846  0.9988534219926936  1.0000
  V   V7        1.0  0.00500000373257933  0.007546898038816097  0.9989055090502704  1.0000
  V   V8        1.0  0.00500000373257933  0.004213565116991551  0.998697160675836  1.0000
  V   V9        1.0  0.00500000373257933  0.0008802315743563344  0.999113857277806  1.0000
  V   V10       1.0  0.00500000373257933  0.009213564677102846  0.9986971607534428  1.0000
  V   V11       1.0  0.00500000373257933  0.005880231400529346  0.9991138573470979  1.0000
  V   V12       1.0  0.00500000373257933  0.0025468983013303232  0.9989055089782068  1.0000
  V   V13       1.0  0.007500003341260528  0.005046898081385971  0.9989055087509295  1.0000
  V   V14       1.0  0.007500003341260528  0.0017135649821869482  0.9986971606481192  1.0000
  V   V15       1.0  0.007500003341260528  0.008380231712708427  0.9991138571031906  1.0000
  V   V16       1.0  0.0025000037476300527  0.005046898081385971  0.9989055087509295  1.0000
  V   V17       1.0  0.0025000037476300527  0.0017135649821869482  0.9986971606481192  1.0000
  V   V18       1.0  0.0025000037476300527  0.008380231712708427  0.9991138571031906  1.0000
  Sb  Sb1       1.0  0.00500000373257933  0.006713565074421676  0.9986971604430154  1.0000
  Sb  Sb2       1.0  0.00500000373257933  0.003380231443099221  0.999113857047757  1.0000
  Sb  Sb3       1.0  0.00500000373257933  4.689829955657856e-05  0.9989055086802519  1.0000
  Sb  Sb4       1.0  3.7999998450175306e-09  0.006713565074421676  0.9990096829215167  1.0000
  Sb  Sb5       1.0  3.7999998450175306e-09  0.003380231443099221  0.9988013345692557  1.0000
  Sb  Sb6       1.0  3.7999998450175306e-09  4.689829955657856e-05  0.9992180311587532  1.0000
  V   V19       1.0  3.7999998450175306e-09  0.007546898038816097  0.9993742922358609  1.0000
  V   V20       1.0  1.0459999936004794e-07  0.004345353998816489  0.9997440066419033  1.0000
  V   V21       1.0  2.7499999936041774e-08  0.0008845709522542644  0.9995876652181114  1.0000
  V   V22       1.0  3.7999998450175306e-09  0.005880231400529346  0.9992701185863485  1.0000
  V   V23       1.0  1.0009999712615025e-07  0.002545011391641665  0.9996832235167809  1.0000
  V   V24       1.0  3.7999998450175306e-09  0.009213564677102846  0.9994784664175348  1.0000
  V   V25       1.0  0.00500000373257933  0.007546898038816097  0.9995305534751115  1.0000
  V   V26       1.0  0.00500000373257933  0.004213565116991551  0.9993222056328387  1.0000
  V   V27       1.0  0.004999989058124303  0.0006428415115539634  0.999742203871405  1.0000
  V   V28       1.0  0.00500000373257933  0.009213564677102846  0.9993222051782841  1.0000
  V   V29       1.0  0.0049999792751542855  0.00591180795971287  0.9997186230155365  1.0000
  V   V30       1.0  0.00500000373257933  0.0025468983013303232  0.9995305534030481  1.0000
  V   V31       1.0  0.007500003341260528  0.005046898081385971  0.9995305537079322  1.0000
  V   V32       1.0  0.007500003341260528  0.0017135649821869482  0.9993222053390413  1.0000
  V   V33       1.0  0.007212776846612951  0.008448563456312366  0.9997359635087897  1.0000
  V   V34       1.0  0.0025000037476300527  0.005046898081385971  0.9995305537079322  1.0000
  V   V35       1.0  0.0025000037476300527  0.0017135649821869482  0.9993222053390413  1.0000
  V   V36       1.0  0.0027871892290571715  0.00844855990882282  0.9997359630874952  1.0000
  Sb  Sb7       1.0  0.00500000373257933  0.006713565074421676  0.999322205400018  1.0000
  Sb  Sb8       1.0  0.005000317163887974  0.00324584792742152  0.9997635080544954  1.0000
  Sb  Sb9       1.0  0.00500000373257933  4.689829955657856e-05  0.9995305536372545  1.0000
  Sb  Sb10      1.0  7.159999828851877e-08  0.006802025983198363  0.9996377260541832  1.0000
  Sb  Sb11      1.0  3.7999998450175306e-09  0.003380231443099221  0.9994263795262585  1.0000
  Sb  Sb12      1.0  0.00999999617711633  0.009953101308445827  0.9998568828613095  1.0000
