data_image0
_chemical_formula_structural       HIn48Rh16
_chemical_formula_sum              "H1 In48 Rh16"
_cell_length_a       10.222073501448378
_cell_length_b       12.475131786389053
_cell_length_c       105.15925598144531
_cell_angle_alpha    89.42142669550958
_cell_angle_beta     89.29389685395459
_cell_angle_gamma    89.00495320401217

_space_group_name_H-M_alt    "P 1"
_space_group_IT_number       1

loop_
  _space_group_symop_operation_xyz
  'x, y, z'

loop_
  _atom_site_type_symbol
  _atom_site_label
  _atom_site_symmetry_multiplicity
  _atom_site_fract_x
  _atom_site_fract_y
  _atom_site_fract_z
  _atom_site_occupancy
  H   H1        1.0  0.009837538117211771  0.007375434677698809  5.584785100874234e-06  1.0000
  In  In1       1.0  0.0001624614395772388  0.006182404867617968  0.9990035699840663  1.0000
  In  In2       1.0  0.005063127983809816  0.00620933597033057  0.9998606094665824  1.0000
  In  In3       1.0  0.0001624614426244793  0.002849071605967101  0.9995608084077583  1.0000
  In  In4       1.0  0.005162461382771624  0.009515738129268834  0.9992821892981356  1.0000
  In  In5       1.0  0.0076165862187475095  0.007723669295291391  0.9999816236772902  1.0000
  In  In6       1.0  0.0026624613003268125  0.004515738236792534  0.9997001179232285  1.0000
  In  In7       1.0  0.0076624610202545495  0.0011824050498109035  0.999421498569797  1.0000
  In  In8       1.0  0.0026624614048887905  0.007849071797120346  0.9991428794990498  1.0000
  In  In9       1.0  0.0001624614425766893  0.0011824050498109035  0.9990035698619816  1.0000
  In  In10      1.0  0.00501013844201386  0.001406450017976051  0.9998658709253142  1.0000
  In  In11      1.0  0.00016246144315746336  0.007849071797120346  0.9995608082459897  1.0000
  In  In12      1.0  0.005162461489847859  0.004515738236792534  0.999282188892614  1.0000
  In  In13      1.0  0.0026624613360188903  0.002849071605967101  0.9991428796609003  1.0000
  In  In14      1.0  0.00758703944066462  0.0027700569190325323  1.2248468319222198e-05  1.0000
  In  In15      1.0  0.0026624613754823536  0.009515738129268834  0.9997001177617283  1.0000
  In  In16      1.0  0.007662461279213277  0.006182404867617968  0.9994214984081661  1.0000
  In  In17      1.0  0.0020996760258615087  0.007054657431594665  0.9997951842213915  1.0000
  In  In18      1.0  0.007138853490840292  0.0036607399412104374  0.9995017873015987  1.0000
  In  In19      1.0  0.0021388537251634506  0.0003274069035672789  0.9992231682704501  1.0000
  In  In20      1.0  0.007138853419456135  0.006994073202861304  0.9989445491613903  1.0000
  In  In21      1.0  0.0071388532599208545  0.007648887159334334  0.9996709403264097  1.0000
  In  In22      1.0  0.0021388536811900206  0.004315553897683467  0.9993923212953054  1.0000
  In  In23      1.0  0.007138853404260579  0.0009822205613633647  0.9991137022254508  1.0000
  In  In24      1.0  0.0020869703229568063  0.0010327833572542503  0.999955878043723  1.0000
  In  In25      1.0  0.0004969138450742457  0.0031639434115287735  0.9998872927682183  1.0000
  In  In26      1.0  0.0056210742058340505  0.009672592508039141  0.9995863640168902  1.0000
  In  In27      1.0  0.0006210743411842702  0.006339259843742163  0.9993077449854129  1.0000
  In  In28      1.0  0.005621074342316722  0.003005926283414352  0.9990291256320918  1.0000
  In  In29      1.0  0.00318606898456212  0.0013825896129276787  0.998893437742743  1.0000
  In  In30      1.0  0.008131016856329474  0.0014406889988230313  0.9997346829825178  1.0000
  In  In31      1.0  0.0031860692125429994  0.008049255837552468  0.9994506758437031  1.0000
  In  In32      1.0  0.008186068563292953  0.004715922874578546  0.999172057057249  1.0000
  In  In33      1.0  0.009760160319070312  0.00933961132199137  0.9998348013806866  1.0000
  In  In34      1.0  0.004703848266629804  0.006025550488847661  0.9995352527200261  1.0000
  In  In35      1.0  0.009703848358878144  0.00269221692851985  0.9992566333665958  1.0000
  In  In36      1.0  0.004703848559709199  0.009358883750498528  0.9989780142959792  1.0000
  In  In37      1.0  0.0006210743567203168  0.0036607399412104374  0.9989196596263671  1.0000
  In  In38      1.0  0.005615028871900816  0.0036824552484449303  0.9997566905809173  1.0000
  In  In39      1.0  0.0006210743322743546  0.0003274069035672789  0.999476897766422  1.0000
  In  In40      1.0  0.005621074117682927  0.006994073202861304  0.999198278657253  1.0000
  In  In41      1.0  0.009703848440743625  0.0053707365323746314  0.9996447187258828  1.0000
  In  In42      1.0  0.004703848497549241  0.0020374032707237643  0.9993660996952152  1.0000
  In  In43      1.0  0.00970384836935947  0.008704069794025498  0.9990874805856743  1.0000
  In  In44      1.0  0.005302135579347495  0.009011475273333848  0.9998972055189064  1.0000
  In  In45      1.0  0.008375000160816423  0.00534065259583812  0.9999290552099942  1.0000
  In  In46      1.0  0.0031860691957760322  0.0020374032707237643  0.9996198291910778  1.0000
  In  In47      1.0  0.00818606906758626  0.008704069794025498  0.999341210081537  1.0000
  In  In48      1.0  0.003186069124391876  0.0053707365323746314  0.9990625907674676  1.0000
  Rh  Rh1       1.0  0.004387358964681106  0.007849071797120346  0.9996903834374608  1.0000
  Rh  Rh2       1.0  0.009387359056929447  0.004515738236792534  0.9994117640840304  1.0000
  Rh  Rh3       1.0  0.004387359112163649  0.0011824050498109035  0.9991331450532753  1.0000
  Rh  Rh4       1.0  0.009448198612642286  0.0013118620164893377  0.9999466978317861  1.0000
  Rh  Rh5       1.0  0.009397317000473112  0.007246594404241094  0.999791785156355  1.0000
  Rh  Rh6       1.0  0.004387359122837825  0.0038825413228393262  0.9995176166509319  1.0000
  Rh  Rh7       1.0  0.009387359204086293  0.0005492082851961676  0.9992389972968886  1.0000
  Rh  Rh8       1.0  0.004387359045168029  0.007215874883167137  0.9989603782269714  1.0000
  Rh  Rh9       1.0  0.0008860847011649683  0.005215607908988423  0.9998566804990331  1.0000
  Rh  Rh10      1.0  0.005937563563778498  0.0018156018890948757  0.9996039998417448  1.0000
  Rh  Rh11      1.0  0.000937563777180835  0.008482268113719665  0.9993253810552305  1.0000
  Rh  Rh12      1.0  0.005937563498679982  0.005148934852068798  0.9990467617018866  1.0000
  Rh  Rh13      1.0  0.0009375637405344967  0.004515738236792534  0.9991526139848176  1.0000
  Rh  Rh14      1.0  0.006108686310871109  0.004506291383721634  0.9999730840280614  1.0000
  Rh  Rh15      1.0  0.000934160663516482  0.0011734499683287748  0.9997023763360813  1.0000
  Rh  Rh16      1.0  0.0059375634952114655  0.007849071797120346  0.999431233298755  1.0000
