data_image0
_chemical_formula_structural       COGa5Ni15Ga5Ni15
_chemical_formula_sum              "C1 O1 Ga10 Ni30"
_cell_length_a       8.0837665624868
_cell_length_b       5.1126227378845215
_cell_length_c       107.56995391845703
_cell_angle_alpha    90.0
_cell_angle_beta     104.963216885199
_cell_angle_gamma    71.56505171585682

_space_group_name_H-M_alt    "P 1"
_space_group_IT_number       1

loop_
  _space_group_symop_operation_xyz
  'x, y, z'

loop_
  _atom_site_type_symbol
  _atom_site_label
  _atom_site_symmetry_multiplicity
  _atom_site_fract_x
  _atom_site_fract_y
  _atom_site_fract_z
  _atom_site_occupancy
  C   C1        1.0  0.0031388082540234757  0.0036805959575111576  0.0002158412423521074  1.0000
  O   O1        1.0  0.0031388082540234757  0.0036805959575111576  0.0003273967825524094  1.0000
  Ga  Ga1       1.0  0.005499999600182168  0.002500000284431811  0.00010671852008083632  1.0000
  Ga  Ga2       1.0  0.009499999814226058  0.0005000001774098668  0.9999902984893588  1.0000
  Ga  Ga3       1.0  0.0015000000171638969  0.004500000075940947  0.9996410374799448  1.0000
  Ga  Ga4       1.0  0.0034999999979807178  0.00850000039156371  0.9998738782807366  1.0000
  Ga  Ga5       1.0  0.0074999999596143604  0.006500000410746887  0.9997574576910158  1.0000
  Ni  Ni1       1.0  0.0065000000323085115  0.009500000345253985  0.9999320883874965  1.0000
  Ni  Ni2       1.0  0.0004999999952042053  0.007499999693452143  0.999815668174589  1.0000
  Ni  Ni3       1.0  0.002499999818264622  0.0015000000223749986  4.850841821856197e-05  1.0000
  Ni  Ni4       1.0  0.004499999672876319  0.0054999998546160864  0.9996992475793582  1.0000
  Ni  Ni5       1.0  0.008499999886920209  0.003499999747594142  0.00016492863173832886  1.0000
  Ni  Ni6       1.0  0.0065000000323085115  0.004499999674899991  0.9999320883874965  1.0000
  Ni  Ni7       1.0  0.0004999999952042053  0.002499999933905207  0.999815668174589  1.0000
  Ni  Ni8       1.0  0.002499999818264622  0.006499999781921935  4.850841821856197e-05  1.0000
  Ni  Ni9       1.0  0.004499999672876319  0.0005000000950691497  0.9996992475793582  1.0000
  Ni  Ni10      1.0  0.008499999886920209  0.008500000417948137  0.00016492863173832886  1.0000
  Ni  Ni11      1.0  0.0034999999979807178  0.0035000000855325364  0.9998738782807366  1.0000
  Ni  Ni12      1.0  0.0074999999596143604  0.0015000001047157149  0.9997574576910158  1.0000
  Ni  Ni13      1.0  0.009499999814226058  0.005500000483441039  0.9999902984893588  1.0000
  Ni  Ni14      1.0  0.0015000000171638969  0.009500000381972119  0.9996410374799448  1.0000
  Ni  Ni15      1.0  0.005499999600182168  0.007500000590462982  0.00010671852008083632  1.0000
  Ga  Ga6       1.0  0.005499999600182168  0.002500000284431811  0.9995246174369787  1.0000
  Ga  Ga7       1.0  0.009499999814226058  0.0005000001774098668  0.9994081974062566  1.0000
  Ga  Ga8       1.0  0.0015000000171638969  0.004500000075940947  0.9990589366738932  1.0000
  Ga  Ga9       1.0  0.0034999999979807178  0.00850000039156371  0.9992917771976345  1.0000
  Ga  Ga10      1.0  0.0074999999596143604  0.006500000410746887  0.9991753568849642  1.0000
  Ni  Ni16      1.0  0.0065000000323085115  0.009500000345253985  0.9993499873043944  1.0000
  Ni  Ni17      1.0  0.0004999999952042053  0.007499999693452143  0.9992335670914868  1.0000
  Ni  Ni18      1.0  0.002499999818264622  0.0015000000223749986  0.9994664073351164  1.0000
  Ni  Ni19      1.0  0.004499999672876319  0.0054999998546160864  0.9991171467733068  1.0000
  Ni  Ni20      1.0  0.008499999886920209  0.003499999747594142  0.9995828275486361  1.0000
  Ni  Ni21      1.0  0.0065000000323085115  0.004499999674899991  0.9993499873043944  1.0000
  Ni  Ni22      1.0  0.0004999999952042053  0.002499999933905207  0.9992335670914868  1.0000
  Ni  Ni23      1.0  0.002499999818264622  0.006499999781921935  0.9994664073351164  1.0000
  Ni  Ni24      1.0  0.004499999672876319  0.0005000000950691497  0.9991171467733068  1.0000
  Ni  Ni25      1.0  0.008499999886920209  0.008500000417948137  0.9995828275486361  1.0000
  Ni  Ni26      1.0  0.0034999999979807178  0.0035000000855325364  0.9992917771976345  1.0000
  Ni  Ni27      1.0  0.0074999999596143604  0.0015000001047157149  0.9991753568849642  1.0000
  Ni  Ni28      1.0  0.009499999814226058  0.005500000483441039  0.9994081974062566  1.0000
  Ni  Ni29      1.0  0.0015000000171638969  0.009500000381972119  0.9990589366738932  1.0000
  Ni  Ni30      1.0  0.005499999600182168  0.007500000590462982  0.9995246174369787  1.0000
