data_image0
_chemical_formula_structural       COSi4Sn4Pt20
_chemical_formula_sum              "C1 O1 Si4 Sn4 Pt20"
_cell_length_a       5.7002129554748535
_cell_length_b       10.766284620072296
_cell_length_c       106.53392028808594
_cell_angle_alpha    79.19424192663422
_cell_angle_beta     90.0
_cell_angle_gamma    58.031676573367236

_space_group_name_H-M_alt    "P 1"
_space_group_IT_number       1

loop_
  _space_group_symop_operation_xyz
  'x, y, z'

loop_
  _atom_site_type_symbol
  _atom_site_label
  _atom_site_symmetry_multiplicity
  _atom_site_fract_x
  _atom_site_fract_y
  _atom_site_fract_z
  _atom_site_occupancy
  C   C1        1.0  0.005255876250205647  0.0023119401390874006  0.9999758222099089  1.0000
  O   O1        1.0  0.005255876250205647  0.0023119401390874006  8.846205909117451e-05  1.0000
  Si  Si1       1.0  0.005011888183003116  8.793999611496383e-07  0.9993718810343369  1.0000
  Si  Si2       1.0  0.0024670975692518407  0.00754474537892049  0.9995859648063029  1.0000
  Si  Si3       1.0  0.007511888409072461  0.0025008792915281546  0.999157548601348  1.0000
  Si  Si4       1.0  0.009988113017486592  0.005025159656758044  0.9997944585480186  1.0000
  Sn  Sn1       1.0  1.1888500542300601e-05  0.005000879082421965  0.999371881051543  1.0000
  Sn  Sn2       1.0  0.007560613944851617  0.0024584982762958564  0.9995864748757164  1.0000
  Sn  Sn3       1.0  0.002511888618178651  0.007500879082421965  0.9991575486164996  1.0000
  Sn  Sn4       1.0  0.005041086846016519  0.009970145491068323  0.9998110989115521  1.0000
  Pt  Pt1       1.0  0.009781838692234668  0.007730929348204296  0.9993916042108676  1.0000
  Pt  Pt2       1.0  0.007222028834514429  0.005284655001552404  0.9996037471518135  1.0000
  Pt  Pt3       1.0  0.0022818380648345193  0.00023092929592774896  0.9991772714746903  1.0000
  Pt  Pt4       1.0  0.004826159684445263  0.002741656704847784  0.9998091182957622  1.0000
  Pt  Pt5       1.0  0.007678610293844  0.009815677075805511  0.9995653631173761  1.0000
  Pt  Pt6       1.0  0.005223898136053563  0.007301661106114867  0.9997769628024267  1.0000
  Pt  Pt7       1.0  0.00024193791680406562  0.002270829443958203  0.9993521584398226  1.0000
  Pt  Pt8       1.0  0.0027419385703142487  0.004770829234852014  0.9991378257289962  1.0000
  Pt  Pt9       1.0  0.0047818375942953895  0.007730929348204296  0.9993916042108676  1.0000
  Pt  Pt10      1.0  0.002236212169733262  0.005284209187155727  0.9996038204993333  1.0000
  Pt  Pt11      1.0  0.007281838509238513  0.00023092929592774896  0.9991772714746903  1.0000
  Pt  Pt12      1.0  0.00971771223208743  0.002742609810860942  0.9998091645789043  1.0000
  Pt  Pt13      1.0  0.002714852386223873  0.009815288138292463  0.9995653883901225  1.0000
  Pt  Pt14      1.0  0.00019223603664339617  0.0073032862794220775  0.9997769571878414  1.0000
  Pt  Pt15      1.0  0.005241938361208059  0.002270829443958203  0.9993521584398226  1.0000
  Pt  Pt16      1.0  0.007741937707647672  0.004770829234852014  0.9991378257289962  1.0000
  Pt  Pt17      1.0  0.007511889062582645  0.007500879082421965  0.9991575486164996  1.0000
  Pt  Pt18      1.0  0.005011888618178651  0.005000879082421965  0.999371881051543  1.0000
  Pt  Pt19      1.0  1.3454173002979085e-05  0.009999120081153275  0.9998036827613093  1.0000
  Pt  Pt20      1.0  0.002457614965064655  0.002557784404492337  0.9995824385790727  1.0000
