data_image0
_chemical_formula_structural       COAl2V6Al2V6
_chemical_formula_sum              "C1 O1 Al4 V12"
_cell_length_a       4.820557117462158
_cell_length_b       4.820557117462158
_cell_length_c       103.743896484375
_cell_angle_alpha    90.0
_cell_angle_beta     90.0
_cell_angle_gamma    90.0

_space_group_name_H-M_alt    "P 1"
_space_group_IT_number       1

loop_
  _space_group_symop_operation_xyz
  'x, y, z'

loop_
  _atom_site_type_symbol
  _atom_site_label
  _atom_site_symmetry_multiplicity
  _atom_site_fract_x
  _atom_site_fract_y
  _atom_site_fract_z
  _atom_site_occupancy
  C   C1        1.0  0.004999878099713921  2.3999998999988986e-09  0.00013392328569369433  1.0000
  O   O1        1.0  0.004999878099713921  2.3999998999988986e-09  0.0002495924008966077  1.0000
  Al  Al1       1.0  1.504999974524443e-08  2.3999998999988986e-09  0.9995207952760422  1.0000
  Al  Al2       1.0  0.0050000148839832  0.00500000213290725  0.9992884653958105  1.0000
  V   V1        1.0  1.504999974524443e-08  0.00500000213290725  0.9991723007429629  1.0000
  V   V2        1.0  1.504999974524443e-08  0.00500000213290725  0.9994046303359264  1.0000
  V   V3        1.0  0.0050000148839832  0.0025000022256423476  0.9995207952760422  1.0000
  V   V4        1.0  0.0050000148839832  0.0075000020401721525  0.9995207952760422  1.0000
  V   V5        1.0  0.007500014404851861  2.3999998999988986e-09  0.9992884653958105  1.0000
  V   V6        1.0  0.0025000149767182974  2.3999998999988986e-09  0.9992884653958105  1.0000
  Al  Al3       1.0  0.009999984173209974  2.8999998254263105e-09  0.0  1.0000
  Al  Al4       1.0  0.004999914420960566  0.005000008701643345  0.9997481226678419  1.0000
  V   V7        1.0  1.504999974524443e-08  0.00500000213290725  0.9996369602161581  1.0000
  V   V8        1.0  1.4114998786576582e-07  0.00500000213290725  0.9998743040755498  1.0000
  V   V9        1.0  0.004999878099713921  0.0023253750813224984  0.9999669687533094  1.0000
  V   V10       1.0  0.00499987771331768  0.007674629184492001  0.9999669687533094  1.0000
  V   V11       1.0  0.007534546636901091  0.0099999957650972  0.9997597690951998  1.0000
  V   V12       1.0  0.0024655532619830317  0.009999997310682164  0.9997597719678819  1.0000
