data_image0
_chemical_formula_structural       COPd9Pb3
_chemical_formula_sum              "C1 O1 Pd9 Pb3"
_cell_length_a       5.862190246582031
_cell_length_b       5.86219017403149
_cell_length_c       98.71875
_cell_angle_alpha    90.0
_cell_angle_beta     90.0
_cell_angle_gamma    59.99999959060479

_space_group_name_H-M_alt    "P 1"
_space_group_IT_number       1

loop_
  _space_group_symop_operation_xyz
  'x, y, z'

loop_
  _atom_site_type_symbol
  _atom_site_label
  _atom_site_symmetry_multiplicity
  _atom_site_fract_x
  _atom_site_fract_y
  _atom_site_fract_z
  _atom_site_occupancy
  C   C1        1.0  0.006686146287246183  0.0066861483304471855  0.00015512739944095738  1.0000
  O   O1        1.0  0.006686146287246183  0.0066861483304471855  0.00027668510067496883  1.0000
  Pd  Pd1       1.0  0.0033201991638932326  0.008369142935509555  0.9997468654322225  1.0000
  Pd  Pd2       1.0  0.006686154485743415  0.0016861513536466665  0.9995085491942394  1.0000
  Pd  Pd3       1.0  0.009980496143700876  0.005039002120395802  0.9999796754765186  1.0000
  Pd  Pd4       1.0  0.008369133691893503  0.00836912018813482  0.99974686482844  1.0000
  Pd  Pd5       1.0  0.001686154682741456  0.0016861513536466665  0.9995085491942394  1.0000
  Pd  Pd6       1.0  0.00503894238026279  0.005038946719531526  0.9999796736651714  1.0000
  Pd  Pd7       1.0  0.008369157099569374  0.0033201851697354508  0.9997468660360048  1.0000
  Pd  Pd8       1.0  0.0016861547077043062  0.0066861512655923125  0.9995085491942394  1.0000
  Pd  Pd9       1.0  0.005038999885743905  0.009980495784521086  0.9999796748727362  1.0000
  Pb  Pb1       1.0  0.006686154351836878  0.0066861512655923125  0.9995085491942394  1.0000
  Pb  Pb2       1.0  1.9503548221625143e-05  1.9503699707414607e-05  0.0  1.0000
  Pb  Pb3       1.0  0.0033528288472760128  0.0033528214152978636  0.9997449550646775  1.0000
