data_image0
_chemical_formula_structural       HIn12Se12
_chemical_formula_sum              "H1 In12 Se12"
_cell_length_a       10.984765165890703
_cell_length_b       9.398687004885929
_cell_length_c       99.06295776367188
_cell_angle_alpha    95.43176723080228
_cell_angle_beta     100.89339518071917
_cell_angle_gamma    75.49600063526387

_space_group_name_H-M_alt    "P 1"
_space_group_IT_number       1

loop_
  _space_group_symop_operation_xyz
  'x, y, z'

loop_
  _atom_site_type_symbol
  _atom_site_label
  _atom_site_symmetry_multiplicity
  _atom_site_fract_x
  _atom_site_fract_y
  _atom_site_fract_z
  _atom_site_occupancy
  H   H1        1.0  0.008906233004068329  0.0024136454751611095  0.00025342502176252786  1.0000
  In  In1       1.0  0.006752931663099275  0.008397308248257672  0.9994001204649096  1.0000
  In  In2       1.0  0.0005624553359004823  0.008397308968299447  0.9995398247078778  1.0000
  In  In3       1.0  0.004371979417599627  0.008397308779894898  0.9996795286624475  1.0000
  In  In4       1.0  0.00610115901729324  0.0015558997702465706  0.9994148294522833  1.0000
  In  In5       1.0  0.009910682610092677  0.0015558997159283796  0.9995545336986542  1.0000
  In  In6       1.0  0.0037202064162301677  0.0015558998021751203  0.9996942376378822  1.0000
  In  In7       1.0  0.008181503010399063  0.008397308725576706  0.9998192329088184  1.0000
  In  In8       1.0  0.0018779290248186684  0.008377285655367857  0.9999776538252595  1.0000
  In  In9       1.0  0.005262438589929898  0.008444100056954671  6.30730763894477e-05  1.0000
  In  In10      1.0  0.007529730364593029  0.0015558998494149203  0.9998339418926163  1.0000
  In  In11      1.0  0.001215798016451038  0.0015732562556068747  0.9999928111705534  1.0000
  In  In12      1.0  0.004606679722576332  0.0015899270123016886  7.817354251326246e-05  1.0000
  Se  Se1       1.0  0.007555441866916195  0.002969759181831157  0.9996076855457623  1.0000
  Se  Se2       1.0  0.0013649655841628295  0.002969759093381893  0.9997473897824009  1.0000
  Se  Se3       1.0  0.0037459179185533337  0.0029697593336667  0.9994679815936584  1.0000
  Se  Se4       1.0  0.008791021921139333  0.006981950713623251  0.9995798017665415  1.0000
  Se  Se5       1.0  0.0026005451939316872  0.006981950747070678  0.9997195056941188  1.0000
  Se  Se6       1.0  0.004981497617213048  0.006981950962976146  0.9994400975070201  1.0000
  Se  Se7       1.0  0.008883517479156588  0.002890192557904735  2.4110421146066288e-05  1.0000
  Se  Se8       1.0  0.00263879581818728  0.003047593100861965  0.0001730764785144289  1.0000
  Se  Se9       1.0  0.005171650447475147  0.003007455319180529  0.9998870863882848  1.0000
  Se  Se10      1.0  8.931750435430081e-05  0.0070615259646454485  0.9999968862131592  1.0000
  Se  Se11      1.0  0.0039330385039347505  0.006939706736559245  0.0001447446170630676  1.0000
  Se  Se12      1.0  0.0064100689645128365  0.006981950643993811  0.9998592099437773  1.0000
