data_image0
_chemical_formula_structural       CONb4Pt8
_chemical_formula_sum              "C1 O1 Nb4 Pt8"
_cell_length_a       4.92778774675181
_cell_length_b       4.960446555848331
_cell_length_c       102.52655029296875
_cell_angle_alpha    91.54326298937568
_cell_angle_beta     93.10813072513783
_cell_angle_gamma    60.21755389621171

_space_group_name_H-M_alt    "P 1"
_space_group_IT_number       1

loop_
  _space_group_symop_operation_xyz
  'x, y, z'

loop_
  _atom_site_type_symbol
  _atom_site_label
  _atom_site_symmetry_multiplicity
  _atom_site_fract_x
  _atom_site_fract_y
  _atom_site_fract_z
  _atom_site_occupancy
  C   C1        1.0  0.006642842585026112  0.003216524611830299  0.0001820650177766419  1.0000
  O   O1        1.0  0.006642842585026112  0.003216524611830299  0.000299107527056048  1.0000
  Nb  Nb1       1.0  0.004720114219538281  0.0016081994643547196  1.1176700934225043e-05  1.0000
  Nb  Nb2       1.0  0.008678099309500555  0.0016081719914522255  0.9997886375876198  1.0000
  Nb  Nb3       1.0  0.004893328764715408  0.0016081443022276645  0.9995604106881899  1.0000
  Nb  Nb4       1.0  0.0013219004474527313  0.0016081443022276645  0.9993338033956226  1.0000
  Pt  Pt1       1.0  0.008183854443480448  0.004824849975627945  1.4581325493096028e-05  1.0000
  Pt  Pt2       1.0  0.0019178229170743603  0.0048387404481866495  0.999788525829687  1.0000
  Pt  Pt3       1.0  0.005148388164990141  0.0083775531403291  0.9997885206886096  1.0000
  Pt  Pt4       1.0  0.001400350187204844  0.008391855490103151  1.4584062171771527e-05  1.0000
  Pt  Pt5       1.0  0.00824899549613292  0.004896810809109046  0.9995604105626804  1.0000
  Pt  Pt6       1.0  0.004677566989597768  0.004896810809109046  0.99933380326962  1.0000
  Pt  Pt7       1.0  0.007966233963716892  0.008319477587677098  0.9993338034357566  1.0000
  Pt  Pt8       1.0  0.001537662500535641  0.008319477587677098  0.9995604106882009  1.0000
