data_image0
_chemical_formula_structural       COCu9Pt3Cu9Pt3Cu9Pt3Cu9Pt3
_chemical_formula_sum              "C1 O1 Cu36 Pt12"
_cell_length_a       8.420142998953294
_cell_length_b       7.531204700469971
_cell_length_c       101.95219421386719
_cell_angle_alpha    90.0
_cell_angle_beta     108.43494882292202
_cell_angle_gamma    90.0

_space_group_name_H-M_alt    "P 1"
_space_group_IT_number       1

loop_
  _space_group_symop_operation_xyz
  'x, y, z'

loop_
  _atom_site_type_symbol
  _atom_site_label
  _atom_site_symmetry_multiplicity
  _atom_site_fract_x
  _atom_site_fract_y
  _atom_site_fract_z
  _atom_site_occupancy
  C   C1        1.0  0.007352344128542762  0.005000000079143573  0.00015731365643890827  1.0000
  O   O1        1.0  0.007352344128542762  0.005000000079143573  0.00027501611896288663  1.0000
  Cu  Cu1       1.0  0.007500000055962956  0.0037500000593576797  0.9999347070235826  1.0000
  Cu  Cu2       1.0  0.004166666853209853  0.0037500000593576797  0.00010882073823267614  1.0000
  Cu  Cu3       1.0  0.0008333333589830215  0.0037500000593576797  0.999760594434047  1.0000
  Cu  Cu4       1.0  0.009166666890518491  0.0012500000197858932  0.00010882076259239577  1.0000
  Cu  Cu5       1.0  0.0058333332214074215  0.0012500000197858932  0.9997605941615226  1.0000
  Cu  Cu6       1.0  0.0025000000186543186  0.0012500000197858932  0.999934707583856  1.0000
  Cu  Cu7       1.0  0.0008333333589830215  0.0037500000593576797  2.1764147342038737e-05  1.0000
  Cu  Cu8       1.0  0.007500000055962956  0.0037500000593576797  0.999673537602604  1.0000
  Cu  Cu9       1.0  0.004166666853209853  0.0037500000593576797  0.9998476510249376  1.0000
  Pt  Pt1       1.0  0.009166666890518491  0.0012500000197858932  0.9998476507569807  1.0000
  Pt  Pt2       1.0  0.0058333332214074215  0.0012500000197858932  2.1764167134310935e-05  1.0000
  Pt  Pt3       1.0  0.0025000000186543186  0.0012500000197858932  0.9996735375782444  1.0000
  Cu  Cu10      1.0  0.007500000055962956  0.0037500000593576797  0.999412367889309  1.0000
  Cu  Cu11      1.0  0.004166666853209853  0.0037500000593576797  0.9995864810193259  1.0000
  Cu  Cu12      1.0  0.0008333333589830215  0.0037500000593576797  0.9992382547151402  1.0000
  Cu  Cu13      1.0  0.009166666890518491  0.0012500000197858932  0.9995864810436855  1.0000
  Cu  Cu14      1.0  0.0058333332214074215  0.0012500000197858932  0.9992382547349324  1.0000
  Cu  Cu15      1.0  0.0025000000186543186  0.0012500000197858932  0.9994123678649492  1.0000
  Cu  Cu16      1.0  0.0008333333589830215  0.0037500000593576797  0.9994994244284352  1.0000
  Cu  Cu17      1.0  0.007500000055962956  0.0037500000593576797  0.9991511981760138  1.0000
  Cu  Cu18      1.0  0.004166666853209853  0.0037500000593576797  0.9993253113060308  1.0000
  Pt  Pt4       1.0  0.009166666890518491  0.0012500000197858932  0.9993253113303905  1.0000
  Pt  Pt5       1.0  0.0058333332214074215  0.0012500000197858932  0.9994994244482275  1.0000
  Pt  Pt6       1.0  0.0025000000186543186  0.0012500000197858932  0.9991511981516542  1.0000
  Cu  Cu19      1.0  0.007500000055962956  0.008750000633148583  0.9999347070235826  1.0000
  Cu  Cu20      1.0  0.004166666853209853  0.008750000633148583  0.00010882073823267614  1.0000
  Cu  Cu21      1.0  0.0008333333589830215  0.008750000633148583  0.999760594434047  1.0000
  Cu  Cu22      1.0  0.009166666890518491  0.0062500000989294665  0.00010882076259239577  1.0000
  Cu  Cu23      1.0  0.0058333332214074215  0.0062500000989294665  0.9997605941615226  1.0000
  Cu  Cu24      1.0  0.0025000000186543186  0.0062500000989294665  0.999934707583856  1.0000
  Cu  Cu25      1.0  0.0008333333589830215  0.008750000633148583  2.1764147342038737e-05  1.0000
  Cu  Cu26      1.0  0.007500000055962956  0.008750000633148583  0.999673537602604  1.0000
  Cu  Cu27      1.0  0.004166666853209853  0.008750000633148583  0.9998476510249376  1.0000
  Pt  Pt7       1.0  0.009166666890518491  0.0062500000989294665  0.9998476507569807  1.0000
  Pt  Pt8       1.0  0.0058333332214074215  0.0062500000989294665  2.1764167134310935e-05  1.0000
  Pt  Pt9       1.0  0.0025000000186543186  0.0062500000989294665  0.9996735375782444  1.0000
  Cu  Cu28      1.0  0.007500000055962956  0.008750000633148583  0.999412367889309  1.0000
  Cu  Cu29      1.0  0.004166666853209853  0.008750000633148583  0.9995864810193259  1.0000
  Cu  Cu30      1.0  0.0008333333589830215  0.008750000633148583  0.9992382547151402  1.0000
  Cu  Cu31      1.0  0.009166666890518491  0.0062500000989294665  0.9995864810436855  1.0000
  Cu  Cu32      1.0  0.0058333332214074215  0.0062500000989294665  0.9992382547349324  1.0000
  Cu  Cu33      1.0  0.0025000000186543186  0.0062500000989294665  0.9994123678649492  1.0000
  Cu  Cu34      1.0  0.0008333333589830215  0.008750000633148583  0.9994994244284352  1.0000
  Cu  Cu35      1.0  0.007500000055962956  0.008750000633148583  0.9991511981760138  1.0000
  Cu  Cu36      1.0  0.004166666853209853  0.008750000633148583  0.9993253113060308  1.0000
  Pt  Pt10      1.0  0.009166666890518491  0.0062500000989294665  0.9993253113303905  1.0000
  Pt  Pt11      1.0  0.0058333332214074215  0.0062500000989294665  0.9994994244482275  1.0000
  Pt  Pt12      1.0  0.0025000000186543186  0.0062500000989294665  0.9991511981516542  1.0000
