data_image0
_chemical_formula_structural       Os3Re3V6Os3Re3V6Os3Re3V6Os3Re3V6H
_chemical_formula_sum              "Os12 Re12 V24 H1"
_cell_length_a       8.573575019836426
_cell_length_b       8.573575142759948
_cell_length_c       101.50132751464844
_cell_angle_alpha    90.0
_cell_angle_beta     90.0
_cell_angle_gamma    119.99999952571974

_space_group_name_H-M_alt    "P 1"
_space_group_IT_number       1

loop_
  _space_group_symop_operation_xyz
  'x, y, z'

loop_
  _atom_site_type_symbol
  _atom_site_label
  _atom_site_symmetry_multiplicity
  _atom_site_fract_x
  _atom_site_fract_y
  _atom_site_fract_z
  _atom_site_occupancy
  Os  Os1       1.0  5.0000000781207874e-11  5.0000000610078855e-11  0.9995064300814223  1.0000
  Os  Os2       1.0  0.0033333332155239923  0.00166666669175302  0.9991615923596221  1.0000
  Os  Os3       1.0  0.0016666672990930105  0.003333337648186092  0.9998525470842113  1.0000
  Re  Re1       1.0  0.0016666667667530213  0.00333333338350604  0.9993340113673297  1.0000
  Re  Re2       1.0  0.009999999415556269  3.3499998165858073e-09  0.0  1.0000
  Re  Re3       1.0  0.0033333332155239923  0.00166666669175302  0.9996788490891299  1.0000
  V   V1        1.0  0.0016666667667530213  0.00333333338350604  0.9990753831493834  1.0000
  V   V2        1.0  0.009999999872767118  0.009999999397927522  0.9997720413472824  1.0000
  V   V3        1.0  0.0033333332155239923  0.00166666669175302  0.9994202205775684  1.0000
  V   V4        1.0  0.00333333442272395  0.0016666660645941885  0.9999310820765918  1.0000
  V   V5        1.0  0.0016666667667530213  0.00333333338350604  0.999592639585276  1.0000
  V   V6        1.0  5.0000000781207874e-11  5.0000000610078855e-11  0.999247801863476  1.0000
  Os  Os4       1.0  0.9999999999798344  0.004999999698963761  0.9995064300814223  1.0000
  Os  Os5       1.0  0.003333333358506039  0.00666666676701208  0.9991615923596221  1.0000
  Os  Os6       1.0  0.0016666670658938743  0.008333337347149852  0.9998525470842113  1.0000
  Re  Re4       1.0  0.0016666667970191846  0.008333333333333333  0.9993340113673297  1.0000
  Re  Re5       1.0  0.009999998824672897  0.005000003211053216  0.0  1.0000
  Re  Re6       1.0  0.003333333358506039  0.00666666676701208  0.9996788490891299  1.0000
  V   V7        1.0  0.0016666667970191846  0.008333333333333333  0.9990753831493834  1.0000
  V   V8        1.0  0.009999999675678523  0.004999999698963761  0.9997720413472824  1.0000
  V   V9        1.0  0.003333333358506039  0.00666666676701208  0.9994202205775684  1.0000
  V   V10       1.0  0.0033333342567790202  0.006666665763557949  0.9999310820765918  1.0000
  V   V11       1.0  0.0016666667970191846  0.008333333333333333  0.999592639585276  1.0000
  V   V12       1.0  0.9999999999798344  0.004999999698963761  0.999247801863476  1.0000
  Os  Os7       1.0  0.0050000001988033576  5.0000000610078855e-11  0.9995064300814223  1.0000
  Os  Os8       1.0  0.008333333172073153  0.00166666669175302  0.9991615923596221  1.0000
  Os  Os9       1.0  0.006666667259862834  0.003333337648186092  0.9998525470842113  1.0000
  Re  Re7       1.0  0.0066666668655563765  0.00333333338350604  0.9993340113673297  1.0000
  Re  Re8       1.0  0.004999999241752911  3.3499998165858073e-09  0.0  1.0000
  Re  Re9       1.0  0.008333333172073153  0.00166666669175302  0.9996788490891299  1.0000
  V   V13       1.0  0.0066666668655563765  0.00333333338350604  0.9990753831493834  1.0000
  V   V14       1.0  0.004999999673963761  0.009999999397927522  0.9997720413472824  1.0000
  V   V15       1.0  0.008333333172073153  0.00166666669175302  0.9994202205775684  1.0000
  V   V16       1.0  0.008333334596527306  0.0016666660645941885  0.9999310820765918  1.0000
  V   V17       1.0  0.0066666668655563765  0.00333333338350604  0.999592639585276  1.0000
  V   V18       1.0  0.0050000001988033576  5.0000000610078855e-11  0.999247801863476  1.0000
  Os  Os10      1.0  0.004999999936383559  0.004999999698963761  0.9995064300814223  1.0000
  Os  Os11      1.0  0.008333333557309397  0.00666666676701208  0.9991615923596221  1.0000
  Os  Os12      1.0  0.006666667239697231  0.008333337347149852  0.9998525470842113  1.0000
  Re  Re10      1.0  0.006666666753568345  0.008333333333333333  0.9993340113673297  1.0000
  Re  Re11      1.0  0.004999999085377933  0.005000003211053216  0.0  1.0000
  Re  Re12      1.0  0.008333333557309397  0.00666666676701208  0.9996788490891299  1.0000
  V   V19       1.0  0.006666666753568345  0.008333333333333333  0.9990753831493834  1.0000
  V   V20       1.0  0.004999999719129363  0.004999999698963761  0.9997720413472824  1.0000
  V   V21       1.0  0.008333333557309397  0.00666666676701208  0.9994202205775684  1.0000
  V   V22       1.0  0.008333334359107507  0.006666665763557949  0.9999310820765918  1.0000
  V   V23       1.0  0.006666666753568345  0.008333333333333333  0.999592639585276  1.0000
  V   V24       1.0  0.004999999936383559  0.004999999698963761  0.999247801863476  1.0000
  H   H1        1.0  8.847442307946486e-10  0.00250000185639014  3.959575787159062e-05  1.0000
