data_image0
_chemical_formula_structural       HSi12Pt36
_chemical_formula_sum              "H1 Si12 Pt36"
_cell_length_a       5.465290242165495
_cell_length_b       17.490630923509684
_cell_length_c       109.03704071044922
_cell_angle_alpha    90.03462469899534
_cell_angle_beta     89.2578997842377
_cell_angle_gamma    52.375364240369194

_space_group_name_H-M_alt    "P 1"
_space_group_IT_number       1

loop_
  _space_group_symop_operation_xyz
  'x, y, z'

loop_
  _atom_site_type_symbol
  _atom_site_label
  _atom_site_symmetry_multiplicity
  _atom_site_fract_x
  _atom_site_fract_y
  _atom_site_fract_z
  _atom_site_occupancy
  H   H1        1.0  0.0012089620109641773  0.003995411396293998  0.00011216996864637688  1.0000
  Si  Si1       1.0  0.0035487220456499463  0.00424380987591654  0.9996644535829118  1.0000
  Si  Si2       1.0  0.0002647904879028588  0.0008853127932630336  0.9999658573406657  1.0000
  Si  Si3       1.0  0.006882055943301692  0.007577143022791583  0.999366106596895  1.0000
  Si  Si4       1.0  0.006451277613531592  0.0056745697787622465  0.9995363945348107  1.0000
  Si  Si5       1.0  0.0030626542739537986  0.002388469385464914  0.9998384822381294  1.0000
  Si  Si6       1.0  0.009784612874552024  0.009007902925637289  0.9992380475479089  1.0000
  Si  Si7       1.0  0.00854872128216348  0.00424380987591654  0.9992169330157018  1.0000
  Si  Si8       1.0  0.005215388460332984  0.0009104765273438271  0.9995152802743236  1.0000
  Si  Si9       1.0  0.0017745632594395266  0.0076138272571567795  0.9998199084865853  1.0000
  Si  Si10      1.0  0.008117944841277938  0.0023412363629569774  0.9993872212256882  1.0000
  Si  Si11      1.0  0.004784612274669802  0.009007902925637289  0.9996855678426809  1.0000
  Si  Si12      1.0  0.0014572932092638778  0.0056480344332926705  0.9999772157666585  1.0000
  Pt  Pt1       1.0  0.0015058902859361558  0.004206244626128638  0.9994656408705723  1.0000
  Pt  Pt2       1.0  0.008101590111335624  0.0009086800061968409  0.9997600896564561  1.0000
  Pt  Pt3       1.0  0.004839223501903556  0.007539577773003681  0.999167293884998  1.0000
  Pt  Pt4       1.0  0.005421646866177872  0.0022776666359670262  2.3369270634804913e-05  1.0000
  Pt  Pt5       1.0  0.00182744411618571  0.009045468175425193  0.9994368606685191  1.0000
  Pt  Pt6       1.0  0.008494110054929725  0.005712135028550149  0.9997352072467076  1.0000
  Pt  Pt7       1.0  0.007103530862210612  0.003907424418300047  0.9994121496035975  1.0000
  Pt  Pt8       1.0  0.003770197358695771  0.0005740910697273341  0.9997104965893387  1.0000
  Pt  Pt9       1.0  0.000579393738492714  0.007139775878626462  3.1598432051617775e-07  1.0000
  Pt  Pt10      1.0  0.009563135261230808  0.0026776218205734705  0.9991920049111155  1.0000
  Pt  Pt11      1.0  0.006229802694622669  0.009344288383253782  0.9994903515281083  1.0000
  Pt  Pt12      1.0  0.0029305903096704063  0.0060223616430144615  0.9997820056562599  1.0000
  Pt  Pt13      1.0  0.007907679365742472  0.004237078283411737  0.9996650561064332  1.0000
  Pt  Pt14      1.0  0.004567267814151146  0.000876476888966773  0.9999556541524331  1.0000
  Pt  Pt15      1.0  0.0012410129014825866  0.007570411699217006  0.999366708981966  1.0000
  Pt  Pt16      1.0  0.0020923208189549355  0.005681301102336824  0.999535792010922  1.0000
  Pt  Pt17      1.0  0.008785313919829677  0.002380854357165365  0.9998404865502117  1.0000
  Pt  Pt18      1.0  0.0054256523022062535  0.00901463478707232  0.9992374450265248  1.0000
  Pt  Pt19      1.0  0.003172557041461365  0.0008729112775559249  0.999316467015117  1.0000
  Pt  Pt20      1.0  0.009839224101785778  0.007539577773003681  0.9996148143177027  1.0000
  Pt  Pt21      1.0  0.006302471862448212  0.0042619618594288535  0.9999126739443238  1.0000
  Pt  Pt22      1.0  0.0001607764237537996  0.00237880161274488  0.9995860337994313  1.0000
  Pt  Pt23      1.0  0.006802913840264342  0.009019687448171767  0.9998901359483721  1.0000
  Pt  Pt24      1.0  0.0034941094550475023  0.005712135028550149  0.999287686814003  1.0000
  Pt  Pt25      1.0  0.00877019727689365  0.0005740910697273341  0.9992629762950093  1.0000
  Pt  Pt26      1.0  0.0054368641599801355  0.0072407575651750895  0.9995613229123527  1.0000
  Pt  Pt27      1.0  0.0020402962851136497  0.003942798155670481  0.999865737321712  1.0000
  Pt  Pt28      1.0  0.004563136024717272  0.0026776218205734705  0.9996395252050025  1.0000
  Pt  Pt29      1.0  0.001088134073820022  0.009425908707060577  0.9999323505442579  1.0000
  Pt  Pt30      1.0  0.007896469396853147  0.00601095523637874  0.999341178219353  1.0000
  Pt  Pt31      1.0  0.002907680129228936  0.004237078283411737  0.9992175356728435  1.0000
  Pt  Pt32      1.0  0.009574346330730886  0.0009037450020715803  0.9995158822508484  1.0000
  Pt  Pt33      1.0  0.0061203721462012115  0.007593009906167533  0.9998214540380741  1.0000
  Pt  Pt34      1.0  0.0037589868395010695  0.002347967955461781  0.9993866187026094  1.0000
  Pt  Pt35      1.0  0.00042565306569271804  0.00901463478707232  0.9996849653204118  1.0000
  Pt  Pt36      1.0  0.007130888302736949  0.005686280614414605  0.9999749373275155  1.0000
