data_image0
_chemical_formula_structural       Ag12Sn4H
_chemical_formula_sum              "Ag12 Sn4 H1"
_cell_length_a       4.954258918762207
_cell_length_b       8.13156273086966
_cell_length_c       102.52625274658203
_cell_angle_alpha    81.04234957467612
_cell_angle_beta     90.0
_cell_angle_gamma    90.0

_space_group_name_H-M_alt    "P 1"
_space_group_IT_number       1

loop_
  _space_group_symop_operation_xyz
  'x, y, z'

loop_
  _atom_site_type_symbol
  _atom_site_label
  _atom_site_symmetry_multiplicity
  _atom_site_fract_x
  _atom_site_fract_y
  _atom_site_fract_z
  _atom_site_occupancy
  Ag  Ag1       1.0  0.0049999998044963955  0.008400921826820297  0.9992965423327579  1.0000
  Ag  Ag2       1.0  0.0049999998044963955  0.003400921511447398  0.9996931023170622  1.0000
  Ag  Ag3       1.0  4.999999748916614e-11  0.004156705242634403  0.9992365994909786  1.0000
  Ag  Ag4       1.0  4.999999748916614e-11  0.009156705558007301  0.999633159362849  1.0000
  Ag  Ag5       1.0  0.00999999885705585  0.007785306508026233  0.9999056207479147  1.0000
  Ag  Ag6       1.0  4.999999748916614e-11  0.0029530931547577704  0.9995299476084717  1.0000
  Ag  Ag7       1.0  0.0049999998044963955  0.004604533367432193  0.9993997542024328  1.0000
  Ag  Ag8       1.0  0.004999999428527925  0.009541953032679221  0.9998054840583218  1.0000
  Ag  Ag9       1.0  2.499999930481975e-10  0.0053408010815939886  0.9997255852976876  1.0000
  Ag  Ag10      1.0  4.999999748916614e-11  0.0004580466994857062  0.999332060394828  1.0000
  Ag  Ag11      1.0  0.0049999998044963955  0.002300392533887226  0.9999715919306714  1.0000
  Ag  Ag12      1.0  0.0049999998044963955  0.007099580083582574  0.9995976414128548  1.0000
  Sn  Sn1       1.0  4.999999748916614e-11  0.006681913666275694  0.9994328800007144  1.0000
  Sn  Sn2       1.0  0.009999999608992791  0.0015754594608396798  0.9998394407054667  1.0000
  Sn  Sn3       1.0  0.004999999428527925  0.005848765252769078  0.9999016779349595  1.0000
  Sn  Sn4       1.0  0.0049999998044963955  0.0008757130878061076  0.9994968215166465  1.0000
  H   H1        1.0  0.009999999608992791  0.0015754594608396798  0.9999857451386991  1.0000
