data_image0
_chemical_formula_structural       COIn4Au6In4Au6
_chemical_formula_sum              "C1 O1 In8 Au12"
_cell_length_a       7.488270792377394
_cell_length_b       8.21699333190918
_cell_length_c       103.20858001708984
_cell_angle_alpha    90.0
_cell_angle_beta     71.53244561230552
_cell_angle_gamma    56.72503275882978

_space_group_name_H-M_alt    "P 1"
_space_group_IT_number       1

loop_
  _space_group_symop_operation_xyz
  'x, y, z'

loop_
  _atom_site_type_symbol
  _atom_site_label
  _atom_site_symmetry_multiplicity
  _atom_site_fract_x
  _atom_site_fract_y
  _atom_site_fract_z
  _atom_site_occupancy
  C   C1        1.0  0.005497698616345834  0.003917817201327506  2.8954476627317473e-05  1.0000
  O   O1        1.0  0.005497698616345834  0.003917817201327506  0.00014522411541808503  1.0000
  In  In1       1.0  0.008260765200998976  0.00920295041850136  0.9995803127916159  1.0000
  In  In2       1.0  0.008260765200998976  0.00420295030969396  0.9998101429398925  1.0000
  In  In3       1.0  0.0017392346061066949  0.005797049206447077  0.9997301970451954  1.0000
  In  In4       1.0  0.0017392346061066949  0.0007970493243217586  0.9995003674744352  1.0000
  Au  Au1       1.0  0.0031533493579653732  0.0017566585757675254  0.9996976964640858  1.0000
  Au  Au2       1.0  0.0031533493579653732  0.006756658231210762  0.9994678668933255  1.0000
  Au  Au3       1.0  0.006846650449140298  0.003243341284930275  0.9996128133727255  1.0000
  Au  Au4       1.0  0.006846650449140298  0.008243341393737674  0.9998426435210022  1.0000
  Au  Au5       1.0  0.004999999742807562  0.002499999784039456  0.9998850850703767  1.0000
  Au  Au6       1.0  0.004999999742807562  0.007499999439482693  0.9996552549221001  1.0000
  In  In5       1.0  0.008260765200998976  0.00920295041850136  0.9991206530725789  1.0000
  In  In6       1.0  0.008260765200998976  0.00420295030969396  0.9993504832208556  1.0000
  In  In7       1.0  0.0017392346061066949  0.005797049206447077  0.9992705373261584  1.0000
  In  In8       1.0  0.0017392346061066949  0.0007970493243217586  0.99904070746664  1.0000
  Au  Au7       1.0  0.0031533493579653732  0.0017566585757675254  0.9992380367450489  1.0000
  Au  Au8       1.0  0.0031533493579653732  0.006756658231210762  0.9990082068855304  1.0000
  Au  Au9       1.0  0.006846650449140298  0.003243341284930275  0.9991531536536886  1.0000
  Au  Au10      1.0  0.006846650449140298  0.008243341393737674  0.9993829838019652  1.0000
  Au  Au11      1.0  0.004999999742807562  0.002499999784039456  0.9994254253513397  1.0000
  Au  Au12      1.0  0.004999999742807562  0.007499999439482693  0.9991955952030631  1.0000
