data_image0
_chemical_formula_structural       HAl3Co6Sc3Al3Co6Sc3Al3Co6Sc3Al3Co6Sc3
_chemical_formula_sum              "H1 Al12 Co24 Sc12"
_cell_length_a       8.516630172729492
_cell_length_b       8.516630083300452
_cell_length_c       101.29209899902344
_cell_angle_alpha    90.0
_cell_angle_beta     90.0
_cell_angle_gamma    59.99999965264561

_space_group_name_H-M_alt    "P 1"
_space_group_IT_number       1

loop_
  _space_group_symop_operation_xyz
  'x, y, z'

loop_
  _atom_site_type_symbol
  _atom_site_label
  _atom_site_symmetry_multiplicity
  _atom_site_fract_x
  _atom_site_fract_y
  _atom_site_fract_z
  _atom_site_occupancy
  H   H1        1.0  0.0008333334133563737  0.0058333334882250815  0.00010518009920191664  1.0000
  Al  Al1       1.0  0.0041666665085372655  0.004166666632994548  0.9996567452055345  1.0000
  Al  Al2       1.0  0.0025000001423164603  0.002500000030304907  0.0  1.0000
  Al  Al3       1.0  0.0008333333702496164  0.0008333333644800435  0.9993134907052905  1.0000
  Co  Co1       1.0  0.0041666665085372655  0.004166666632994548  0.9993993042567961  1.0000
  Co  Co2       1.0  0.0025000001423164603  0.002500000030304907  0.9997425590512616  1.0000
  Co  Co3       1.0  0.0008333333702496164  0.0008333333644800435  0.9990560494623305  1.0000
  Co  Co4       1.0  0.0025000001423164603  0.002500000030304907  0.9992276768595633  1.0000
  Co  Co5       1.0  0.0008333333702496164  0.0008333333644800435  0.9995709319482504  1.0000
  Co  Co6       1.0  0.0041666665085372655  0.004166666632994548  0.999914186742716  1.0000
  Sc  Sc1       1.0  0.0025000001423164603  0.002500000030304907  0.9994851181025233  1.0000
  Sc  Sc2       1.0  0.0008333333702496164  0.0008333333644800435  0.9998283728969888  1.0000
  Sc  Sc3       1.0  0.0041666665085372655  0.004166666632994548  0.9991418633080577  1.0000
  Al  Al4       1.0  0.004166666583211635  0.009166666693604362  0.9996567452055345  1.0000
  Al  Al5       1.0  0.0025000000907203835  0.007500000343455614  0.0  1.0000
  Al  Al6       1.0  0.0008333334133563737  0.0058333334882250815  0.9993134907052905  1.0000
  Co  Co7       1.0  0.004166666583211635  0.009166666693604362  0.9993993042567961  1.0000
  Co  Co8       1.0  0.0025000000907203835  0.007500000343455614  0.9997425590512616  1.0000
  Co  Co9       1.0  0.0008333334133563737  0.0058333334882250815  0.9990560494623305  1.0000
  Co  Co10      1.0  0.0025000000907203835  0.007500000343455614  0.9992276768595633  1.0000
  Co  Co11      1.0  0.0008333334133563737  0.0058333334882250815  0.9995709319482504  1.0000
  Co  Co12      1.0  0.004166666583211635  0.009166666693604362  0.999914186742716  1.0000
  Sc  Sc4       1.0  0.0025000000907203835  0.007500000343455614  0.9994851181025233  1.0000
  Sc  Sc5       1.0  0.0008333334133563737  0.0058333334882250815  0.9998283728969888  1.0000
  Sc  Sc6       1.0  0.004166666583211635  0.009166666693604362  0.9991418633080577  1.0000
  Al  Al7       1.0  0.009166666718495819  0.004166666632994548  0.9996567452055345  1.0000
  Al  Al8       1.0  0.007499999914861362  0.002500000030304907  0.0  1.0000
  Al  Al9       1.0  0.005833333580208168  0.0008333333644800435  0.9993134907052905  1.0000
  Co  Co13      1.0  0.009166666718495819  0.004166666632994548  0.9993993042567961  1.0000
  Co  Co14      1.0  0.007499999914861362  0.002500000030304907  0.9997425590512616  1.0000
  Co  Co15      1.0  0.005833333580208168  0.0008333333644800435  0.9990560494623305  1.0000
  Co  Co16      1.0  0.007499999914861362  0.002500000030304907  0.9992276768595633  1.0000
  Co  Co17      1.0  0.005833333580208168  0.0008333333644800435  0.9995709319482504  1.0000
  Co  Co18      1.0  0.009166666718495819  0.004166666632994548  0.999914186742716  1.0000
  Sc  Sc7       1.0  0.007499999914861362  0.002500000030304907  0.9994851181025233  1.0000
  Sc  Sc8       1.0  0.005833333580208168  0.0008333333644800435  0.9998283728969888  1.0000
  Sc  Sc9       1.0  0.009166666718495819  0.004166666632994548  0.9991418633080577  1.0000
  Al  Al10      1.0  0.009166666793170186  0.009166666693604362  0.9996567452055345  1.0000
  Al  Al11      1.0  0.007499999863265284  0.007500000343455614  0.0  1.0000
  Al  Al12      1.0  0.005833333185901275  0.0058333334882250815  0.9993134907052905  1.0000
  Co  Co19      1.0  0.009166666793170186  0.009166666693604362  0.9993993042567961  1.0000
  Co  Co20      1.0  0.007499999863265284  0.007500000343455614  0.9997425590512616  1.0000
  Co  Co21      1.0  0.005833333185901275  0.0058333334882250815  0.9990560494623305  1.0000
  Co  Co22      1.0  0.007499999863265284  0.007500000343455614  0.9992276768595633  1.0000
  Co  Co23      1.0  0.005833333185901275  0.0058333334882250815  0.9995709319482504  1.0000
  Co  Co24      1.0  0.009166666793170186  0.009166666693604362  0.999914186742716  1.0000
  Sc  Sc10      1.0  0.007499999863265284  0.007500000343455614  0.9994851181025233  1.0000
  Sc  Sc11      1.0  0.005833333185901275  0.0058333334882250815  0.9998283728969888  1.0000
  Sc  Sc12      1.0  0.009166666793170186  0.009166666693604362  0.9991418633080577  1.0000
