data_image0
_chemical_formula_structural       HSn8Rh16Sn8Rh16
_chemical_formula_sum              "H1 Sn16 Rh32"
_cell_length_a       7.082150513101998
_cell_length_b       9.205694275073675
_cell_length_c       112.49290466308594
_cell_angle_alpha    106.6360281894365
_cell_angle_beta     75.18299589246531
_cell_angle_gamma    73.36397207728612

_space_group_name_H-M_alt    "P 1"
_space_group_IT_number       1

loop_
  _space_group_symop_operation_xyz
  'x, y, z'

loop_
  _atom_site_type_symbol
  _atom_site_label
  _atom_site_symmetry_multiplicity
  _atom_site_fract_x
  _atom_site_fract_y
  _atom_site_fract_z
  _atom_site_occupancy
  H   H1        1.0  0.007585535050448968  0.009622566062539823  9.37446677572246e-05  1.0000
  Sn  Sn1       1.0  0.005785369465062329  0.008677415660730398  0.9988596593372272  1.0000
  Sn  Sn2       1.0  0.0007853690080149931  0.008677415660730398  0.9991744413715401  1.0000
  Sn  Sn3       1.0  0.004756137805854927  0.005735877977993896  0.9992392383306049  1.0000
  Sn  Sn4       1.0  0.009756138262902262  0.005735877977993896  0.9989244560313657  1.0000
  Sn  Sn5       1.0  0.009214630825957356  0.0007358779252923016  0.998890364706485  1.0000
  Sn  Sn6       1.0  0.00421463036891002  0.0007358779252923016  0.9992051470057242  1.0000
  Sn  Sn7       1.0  0.00024386185030693497  0.0036774153216070924  0.9991403500354533  1.0000
  Sn  Sn8       1.0  0.005243861627224308  0.0036774153216070924  0.9988255680120904  1.0000
  Rh  Rh1       1.0  0.007454551601496252  0.004035859261320369  0.9989873112827558  1.0000
  Rh  Rh2       1.0  0.002454551688552888  0.004035859261320369  0.9993020935732349  1.0000
  Rh  Rh3       1.0  0.007162690282077237  0.0024757981078195367  0.9991855031675745  1.0000
  Rh  Rh4       1.0  0.0021626903691338724  0.0024757981078195367  0.9988707210968302  1.0000
  Rh  Rh5       1.0  0.00993184120745696  0.001937495081795515  0.9993259491310226  1.0000
  Rh  Rh6       1.0  0.004931841838617565  0.001937495081795515  0.9990111670515183  1.0000
  Rh  Rh7       1.0  0.007545447859095031  0.005377433809143252  0.9993922768585448  1.0000
  Rh  Rh8       1.0  0.0025454479461516654  0.005377433809143252  0.9990774947878005  1.0000
  Rh  Rh9       1.0  0.0032162353506791897  0.009035858913031568  0.9993500462323507  1.0000
  Rh  Rh10      1.0  0.008216235263622555  0.009035858913031568  0.9990352644717241  1.0000
  Rh  Rh11      1.0  0.0017837643556307917  0.00037743401422119633  0.9990295415943242  1.0000
  Rh  Rh12      1.0  0.006783764268574156  0.00037743401422119633  0.9993443236650685  1.0000
  Rh  Rh13      1.0  0.005068158138565639  0.007475798217805474  0.9990536390174908  1.0000
  Rh  Rh14      1.0  6.815795357028849e-05  0.007475798217805474  0.9993684207824975  1.0000
  Rh  Rh15      1.0  0.007837309722618016  0.006937494962644083  0.9991940849649661  1.0000
  Rh  Rh16      1.0  0.002837309809674652  0.006937494962644083  0.9988793028942218  1.0000
  Sn  Sn9       1.0  0.005785369465062329  0.008677415660730398  0.9994892234335243  1.0000
  Sn  Sn10      1.0  0.0008315854325598434  0.008676087580540502  0.9998046547766299  1.0000
  Sn  Sn11      1.0  0.00477245429042452  0.0056755392346527385  0.9998874843599356  1.0000
  Sn  Sn12      1.0  0.009756138262902262  0.005735877977993896  0.9995540203925891  1.0000
  Sn  Sn13      1.0  0.009214630825957356  0.0007358779252923016  0.9995199290677084  1.0000
  Sn  Sn14      1.0  0.004149706174198116  0.0007767849032048964  0.9998438992941775  1.0000
  Sn  Sn15      1.0  0.00011294886383207011  0.003664554757642615  0.9997573962358023  1.0000
  Sn  Sn16      1.0  0.005243861627224308  0.0036774153216070924  0.9994551321083877  1.0000
  Rh  Rh17      1.0  0.007454551601496252  0.004035859261320369  0.9996168756439792  1.0000
  Rh  Rh18      1.0  0.0022906042195014087  0.004004547639866037  0.9999134650217334  1.0000
  Rh  Rh19      1.0  0.007054747615637593  0.002429326299766877  0.9998192873321339  1.0000
  Rh  Rh20      1.0  0.0021626903691338724  0.0024757981078195367  0.9995002854580536  1.0000
  Rh  Rh21      1.0  0.00987663405051673  0.002030633006389626  0.9999400061648726  1.0000
  Rh  Rh22      1.0  0.004931841838617565  0.001937495081795515  0.9996407314127417  1.0000
  Rh  Rh23      1.0  0.00786027205564676  0.005400851648240454  0.9999999817612663  1.0000
  Rh  Rh24      1.0  0.0025454479461516654  0.005377433809143252  0.9997070586191714  1.0000
  Rh  Rh25      1.0  0.0031007882690313993  0.008877135457624207  0.9999617931206067  1.0000
  Rh  Rh26      1.0  0.008216235263622555  0.009035858913031568  0.999664828303095  1.0000
  Rh  Rh27      1.0  0.0017837643556307917  0.00037743401422119633  0.9996591059555476  1.0000
  Rh  Rh28      1.0  0.006967103157038379  0.00041309609504499277  0.999956249207811  1.0000
  Rh  Rh29      1.0  0.005068158138565639  0.007475798217805474  0.9996832028488618  1.0000
  Rh  Rh30      1.0  0.0002233998982467855  0.007178102948186242  0.9999745093993  1.0000
  Rh  Rh31      1.0  0.007707551423014941  0.007095590581660775  0.9998284435609646  1.0000
  Rh  Rh32      1.0  0.002837309809674652  0.006937494962644083  0.9995088672554452  1.0000
