data_image0
_chemical_formula_structural       HAs4Os2As4Os2As4Os2
_chemical_formula_sum              "H1 As12 Os6"
_cell_length_a       6.297316777544778
_cell_length_b       6.285777568817139
_cell_length_c       103.72317504882812
_cell_angle_alpha    90.0
_cell_angle_beta     60.86734791270132
_cell_angle_gamma    90.0

_space_group_name_H-M_alt    "P 1"
_space_group_IT_number       1

loop_
  _space_group_symop_operation_xyz
  'x, y, z'

loop_
  _atom_site_type_symbol
  _atom_site_label
  _atom_site_symmetry_multiplicity
  _atom_site_fract_x
  _atom_site_fract_y
  _atom_site_fract_z
  _atom_site_occupancy
  H   H1        1.0  0.007502089293067204  0.009327182197952684  0.9999179839265213  1.0000
  As  As1       1.0  0.0002760442909812973  0.0031526686970703216  0.9999918409660159  1.0000
  As  As2       1.0  0.006323033829616627  0.00920601174698729  0.9997958868071681  1.0000
  As  As3       1.0  0.0010580975005688837  0.006753574541934518  0.9998270001939917  1.0000
  As  As4       1.0  0.004433337329063996  0.0027528069200691446  0.9999590324900918  1.0000
  Os  Os1       1.0  0.007962361571636002  0.005593697611769965  0.9997469574282308  1.0000
  Os  Os2       1.0  0.0029636141316125957  0.0007732004420145194  0.9997637836486171  1.0000
  As  As5       1.0  0.00972395528574215  0.0020219593744696934  0.9997021639829048  1.0000
  As  As6       1.0  0.00630382520100557  0.009323677243063029  0.9995076825698622  1.0000
  As  As7       1.0  0.0013038252856608804  0.007021959617457774  0.9995076826707973  1.0000
  As  As8       1.0  0.004723955624363392  0.004323676851911486  0.9997021635016823  1.0000
  Os  Os3       1.0  0.00801389024337386  0.005672818086521167  0.9994571382215399  1.0000
  Os  Os4       1.0  0.0030138902433738597  0.000672818139860013  0.9994571383249771  1.0000
  As  As9       1.0  0.00972395528574215  0.0020219593744696934  0.9994065938732176  1.0000
  As  As10      1.0  0.00630382520100557  0.009323677243063029  0.9992121130348262  1.0000
  As  As11      1.0  0.0013038252856608804  0.007021959617457774  0.9992121128484356  1.0000
  As  As12      1.0  0.004723955624363392  0.004323676851911486  0.9994065939666462  1.0000
  Os  Os5       1.0  0.00801389024337386  0.005672818086521167  0.9991615686865039  1.0000
  Os  Os6       1.0  0.0030138902433738597  0.000672818139860013  0.9991615685026155  1.0000
