data_image0
_chemical_formula_structural       HTi12Pt4
_chemical_formula_sum              "H1 Ti12 Pt4"
_cell_length_a       5.060669422149658
_cell_length_b       7.156867504119873
_cell_length_c       98.62747192382812
_cell_angle_alpha    90.0
_cell_angle_beta     90.0
_cell_angle_gamma    90.0

_space_group_name_H-M_alt    "P 1"
_space_group_IT_number       1

loop_
  _space_group_symop_operation_xyz
  'x, y, z'

loop_
  _atom_site_type_symbol
  _atom_site_label
  _atom_site_symmetry_multiplicity
  _atom_site_fract_x
  _atom_site_fract_y
  _atom_site_fract_z
  _atom_site_occupancy
  H   H1        1.0  0.0025002458587200615  0.006412416606919337  1.0233309546463684e-05  1.0000
  Ti  Ti1       1.0  0.005000002561718452  0.003850143965746241  0.9998399160594247  1.0000
  Ti  Ti2       1.0  0.00500000182559246  0.008831373006293074  0.9994772221988544  1.0000
  Ti  Ti3       1.0  0.00500000182559246  0.0013313732353217283  0.9996586339447332  1.0000
  Ti  Ti4       1.0  0.004999998144962501  0.006411264176373983  0.0  1.0000
  Ti  Ti5       1.0  1.949999982384232e-09  0.0038313732457321216  0.9996586339447332  1.0000
  Ti  Ti6       1.0  0.009999997026050993  0.008752105148104419  6.76862144453985e-08  1.0000
  Ti  Ti7       1.0  1.949999982384232e-09  0.006331373256142515  0.9994772221988544  1.0000
  Ti  Ti8       1.0  0.009999997762176985  0.0013133086002374969  0.9998398610643754  1.0000
  Ti  Ti9       1.0  0.007499256306632823  0.007581276835079181  0.9997383009213061  1.0000
  Ti  Ti10      1.0  0.007500002002262698  0.002581373110397008  0.9993865163259149  1.0000
  Ti  Ti11      1.0  0.0025007429277961457  0.007581276314559513  0.9997383006191355  1.0000
  Ti  Ti12      1.0  0.0025000020169852182  0.002581373110397008  0.9993865163259149  1.0000
  Pt  Pt1       1.0  0.00500000182559246  0.005081373381067235  0.9995679280717938  1.0000
  Pt  Pt2       1.0  0.005000002929781448  0.009918626160875455  0.9999176470289619  1.0000
  Pt  Pt3       1.0  0.009999996289925001  0.005244708809304846  0.9999176409855499  1.0000
  Pt  Pt4       1.0  1.949999982384232e-09  8.137329518149029e-05  0.9995679280717938  1.0000
