data_image0
_chemical_formula_structural       V6Co2V6Co2CO
_chemical_formula_sum              "V12 Co4 C1 O1"
_cell_length_a       4.655704498291016
_cell_length_b       4.655704498291016
_cell_length_c       102.58993530273438
_cell_angle_alpha    90.0
_cell_angle_beta     90.0
_cell_angle_gamma    90.0

_space_group_name_H-M_alt    "P 1"
_space_group_IT_number       1

loop_
  _space_group_symop_operation_xyz
  'x, y, z'

loop_
  _atom_site_type_symbol
  _atom_site_label
  _atom_site_symmetry_multiplicity
  _atom_site_fract_x
  _atom_site_fract_y
  _atom_site_fract_z
  _atom_site_occupancy
  V   V1        1.0  0.003750000320062435  0.0011115045234103907  0.9993268639115653  1.0000
  V   V2        1.0  0.008750000480093653  0.0011115045234103907  0.9993268639115653  1.0000
  V   V3        1.0  0.0012500000400078044  0.006111504983500141  0.9992134096319437  1.0000
  V   V4        1.0  0.0012500000400078044  0.006111504983500141  0.9994403181911868  1.0000
  V   V5        1.0  0.006250000400078044  0.0036115045034064886  0.9995537724708083  1.0000
  V   V6        1.0  0.006250000400078044  0.008611504663437707  0.9995537724708083  1.0000
  Co  Co1       1.0  0.006250000400078044  0.006111504983500141  0.9993268639115653  1.0000
  Co  Co2       1.0  0.0012500000400078044  0.0011115045234103907  0.9995537724708083  1.0000
  V   V7        1.0  0.0037520443187893547  0.0011115062237420778  0.9997752980747722  1.0000
  V   V8        1.0  0.008747992088312652  0.0011115062237420778  0.9997752980747722  1.0000
  V   V9        1.0  0.0012500000400078044  0.006111504983500141  0.9996672264599304  1.0000
  V   V10       1.0  0.0012500233445538688  0.0061115097844366695  0.9999060083137324  1.0000
  V   V11       1.0  0.006250027605385037  0.0033345168708750353  0.0  1.0000
  V   V12       1.0  0.006250028005463082  0.0088884962967496  0.0  1.0000
  Co  Co3       1.0  0.006250015202965673  0.006111506583812317  0.9997840827789085  1.0000
  Co  Co4       1.0  0.0012500250448855559  0.0011115079240737648  0.9999882597542008  1.0000
  C   C1        1.0  0.0012500233445538688  0.0061115097844366695  0.00010095902568576839  1.0000
  O   O1        1.0  0.0012500233445538688  0.0061115097844366695  0.0002179298014571342  1.0000
