data_image0
_chemical_formula_structural       COAl3Re6Al3Re6
_chemical_formula_sum              "C1 O1 Al6 Re12"
_cell_length_a       6.019141674041748
_cell_length_b       5.285296970158468
_cell_length_c       98.76249694824219
_cell_angle_alpha    92.28174790120083
_cell_angle_beta     90.0
_cell_angle_gamma    106.5416123536842

_space_group_name_H-M_alt    "P 1"
_space_group_IT_number       1

loop_
  _space_group_symop_operation_xyz
  'x, y, z'

loop_
  _atom_site_type_symbol
  _atom_site_label
  _atom_site_symmetry_multiplicity
  _atom_site_fract_x
  _atom_site_fract_y
  _atom_site_fract_z
  _atom_site_occupancy
  C   C1        1.0  0.0025941352895756217  0.0006717378205417133  0.0001224655456608446  1.0000
  O   O1        1.0  0.0025941352895756217  0.0006717378205417133  0.00024396940278774415  1.0000
  Al  Al1       1.0  0.0022549093966940967  0.009328262035956662  0.999437398620836  1.0000
  Al  Al2       1.0  0.002759906710664473  0.0013431421837823512  0.9997254802233435  1.0000
  Al  Al3       1.0  0.0032054337035581242  0.0031165741733199612  6.6402591154092006e-06  1.0000
  Re  Re1       1.0  0.0002648033704215153  0.0013678384454469874  0.9992426059012014  1.0000
  Re  Re2       1.0  0.0037450154181329323  0.005288685780270642  0.9993409628587864  1.0000
  Re  Re3       1.0  0.0007648035319924321  0.0033678385271325275  0.999533834599144  1.0000
  Re  Re4       1.0  0.004245015501161439  0.007288685953944403  0.999632191556925  1.0000
  Re  Re5       1.0  0.001266310922540396  0.005366801441626447  0.999824992588321  1.0000
  Re  Re6       1.0  0.004735196932061754  0.009236161957293633  0.9999170885203963  1.0000
  Al  Al4       1.0  0.007254909500167649  0.009328262035956662  0.999437398620836  1.0000
  Al  Al5       1.0  0.00775990705106345  0.0013431421837823512  0.9997254802233435  1.0000
  Al  Al6       1.0  0.008205433734503486  0.0031165741733199612  6.6402591154092006e-06  1.0000
  Re  Re7       1.0  0.005264803444883792  0.0013678384454469874  0.9992426059012014  1.0000
  Re  Re8       1.0  0.008745015603805101  0.005288685780270642  0.9993409628587864  1.0000
  Re  Re9       1.0  0.005764803814368856  0.0033678385271325275  0.999533834599144  1.0000
  Re  Re10      1.0  0.00924501568683361  0.007288685953944403  0.999632191556925  1.0000
  Re  Re11      1.0  0.006266311253268948  0.005366801441626447  0.999824992588321  1.0000
  Re  Re12      1.0  0.009735197117733923  0.009236161957293633  0.9999170885203963  1.0000
