data_image0
_chemical_formula_structural       COGa12Ir6Ru6
_chemical_formula_sum              "C1 O1 Ga12 Ir6 Ru6"
_cell_length_a       6.101744174957275
_cell_length_b       7.473079962175433
_cell_length_c       102.85890197753906
_cell_angle_alpha    94.34775316035334
_cell_angle_beta     90.0
_cell_angle_gamma    114.09484228688525

_space_group_name_H-M_alt    "P 1"
_space_group_IT_number       1

loop_
  _space_group_symop_operation_xyz
  'x, y, z'

loop_
  _atom_site_type_symbol
  _atom_site_label
  _atom_site_symmetry_multiplicity
  _atom_site_fract_x
  _atom_site_fract_y
  _atom_site_fract_z
  _atom_site_occupancy
  C   C1        1.0  0.007698361392903455  0.00036959650462452015  0.00012244345403573598  1.0000
  O   O1        1.0  0.007698361392903455  0.00036959650462452015  0.0002391077823859519  1.0000
  Ga  Ga1       1.0  0.0096177916737992  0.004213736919123257  0.9992975688595056  1.0000
  Ga  Ga2       1.0  0.00798473875134771  0.0008375295388918616  0.9998310889632529  1.0000
  Ga  Ga3       1.0  0.00378445795770962  0.0025470702195786107  0.9995637821753085  1.0000
  Ga  Ga4       1.0  0.004617791307481943  0.004213736919123257  0.9992975688595056  1.0000
  Ga  Ga5       1.0  0.002880358613725661  0.0008408295290880866  0.9998312769266962  1.0000
  Ga  Ga6       1.0  0.008784458324026875  0.0025470702195786107  0.9995637821753085  1.0000
  Ga  Ga7       1.0  0.005099912762506196  0.0052366226427891524  0.9999709606911674  1.0000
  Ga  Ga8       1.0  0.0008677911869511523  0.006713737105431807  0.9996968886664587  1.0000
  Ga  Ga9       1.0  0.006701124460784771  0.00838040353099329  0.9994306753491466  1.0000
  Ga  Ga10      1.0  0.00017387559981808828  0.005240238672562889  0.9999714835961359  1.0000
  Ga  Ga11      1.0  0.005867791400636218  0.006713737105431807  0.9996968886664587  1.0000
  Ga  Ga12      1.0  0.001701124399731894  0.00838040353099329  0.9994306753491466  1.0000
  Ir  Ir1       1.0  0.0006594578651043374  0.0012970701264243354  0.999364122126962  1.0000
  Ir  Ir2       1.0  0.008965276080699613  0.00789562429952369  0.9998898389760483  1.0000
  Ir  Ir3       1.0  0.004826124725250645  0.00963040403512231  0.9996303353997568  1.0000
  Ir  Ir4       1.0  0.007742791026465958  0.005463736601302789  0.9994972289055885  1.0000
  Ir  Ir5       1.0  0.006193330969458586  0.00235553461856599  3.48556128938348e-06  1.0000
  Ir  Ir6       1.0  0.0019118340367656785  0.003802663268012942  0.9997577865946743  1.0000
  Ru  Ru1       1.0  0.0056594580942911105  0.0012970701264243354  0.999364122126962  1.0000
  Ru  Ru2       1.0  0.004006399286491312  0.007988850358234958  0.999894119649873  1.0000
  Ru  Ru3       1.0  0.009826124743375717  0.00963040403512231  0.9996303353997568  1.0000
  Ru  Ru4       1.0  0.002742791054846005  0.005463736601302789  0.9994972289055885  1.0000
  Ru  Ru5       1.0  0.0011787456281699498  0.002327186950696638  1.2817826687907363e-05  1.0000
  Ru  Ru6       1.0  0.006897348028732366  0.0037709469771652526  0.9997579346758804  1.0000
