data_image0
_chemical_formula_structural       HIn5Ni5In5Ni5
_chemical_formula_sum              "H1 In10 Ni10"
_cell_length_a       4.507210731506348
_cell_length_b       7.126526134721519
_cell_length_c       103.12110137939453
_cell_angle_alpha    75.0367821339093
_cell_angle_beta     90.0
_cell_angle_gamma    71.56505179819113

_space_group_name_H-M_alt    "P 1"
_space_group_IT_number       1

loop_
  _space_group_symop_operation_xyz
  'x, y, z'

loop_
  _atom_site_type_symbol
  _atom_site_label
  _atom_site_symmetry_multiplicity
  _atom_site_fract_x
  _atom_site_fract_y
  _atom_site_fract_z
  _atom_site_occupancy
  H   H1        1.0  0.00844522226654184  0.0031580196988190996  9.499217965049587e-07  1.0000
  In  In1       1.0  0.00800965135127131  0.0040298475392079106  0.9989660162068575  1.0000
  In  In2       1.0  0.006009651422277228  0.008029847397196074  0.9990730783392039  1.0000
  In  In3       1.0  9.65070024581667e-06  2.984735016896935e-05  0.9993942647757208  1.0000
  In  In4       1.0  0.004009650913423638  0.0020298473238996428  0.9991801404934445  1.0000
  In  In5       1.0  0.002009650984429555  0.006029847181887807  0.9992872026257908  1.0000
  Ni  Ni1       1.0  0.00800965135127131  0.0040298475392079106  0.9992336712655057  1.0000
  Ni  Ni2       1.0  0.006009651422277228  0.008029847397196074  0.9993407333978521  1.0000
  Ni  Ni3       1.0  9.65070024581667e-06  2.984735016896935e-05  0.9991266094280695  1.0000
  Ni  Ni4       1.0  0.004009650913423638  0.0020298473238996428  0.9989124851457932  1.0000
  Ni  Ni5       1.0  0.002009650984429555  0.006029847181887807  0.9990195472781397  1.0000
  In  In6       1.0  0.00800965135127131  0.0040298475392079106  0.9995013269021601  1.0000
  In  In7       1.0  0.006009651422277228  0.008029847397196074  0.9996083890345064  1.0000
  In  In8       1.0  3.924772910652383e-05  0.00997015282269322  0.9999345872455928  1.0000
  In  In9       1.0  0.00401006253516392  0.002030470486724587  0.9997253141505983  1.0000
  In  In10      1.0  0.0021047494471739493  0.005838873329583489  0.9998450327775571  1.0000
  Ni  Ni6       1.0  0.007949385737464341  0.004148469510498578  0.9997657959952413  1.0000
  Ni  Ni7       1.0  0.006008729986211179  0.008031124931092194  0.9998566950790677  1.0000
  Ni  Ni8       1.0  0.009990349913746402  7.336984873223332e-05  0.9996545487585903  1.0000
  Ni  Ni9       1.0  0.004009650913423638  0.0020298473238996428  0.9994477955520926  1.0000
  Ni  Ni10      1.0  0.002009650984429555  0.006029847181887807  0.9995548582624453  1.0000
