data_image0
_chemical_formula_structural       COFe2Sb4Fe2Sb4Fe2Sb4Fe2Sb4
_chemical_formula_sum              "C1 O1 Fe8 Sb16"
_cell_length_a       6.567971229553223
_cell_length_b       5.793136119842529
_cell_length_c       109.21182250976562
_cell_angle_alpha    90.0
_cell_angle_beta     90.0
_cell_angle_gamma    90.0

_space_group_name_H-M_alt    "P 1"
_space_group_IT_number       1

loop_
  _space_group_symop_operation_xyz
  'x, y, z'

loop_
  _atom_site_type_symbol
  _atom_site_label
  _atom_site_symmetry_multiplicity
  _atom_site_fract_x
  _atom_site_fract_y
  _atom_site_fract_z
  _atom_site_occupancy
  C   C1        1.0  0.0050000001361256985  0.009959962037682337  4.936225742618801e-05  1.0000
  O   O1        1.0  0.0050000001361256985  0.009959962037682337  0.00015924069405443892  1.0000
  Fe  Fe1       1.0  0.0  4.0037951868060125e-05  0.9993021390048854  1.0000
  Fe  Fe2       1.0  0.0025000000680628492  0.005040037936595565  0.9990029358855482  1.0000
  Sb  Sb1       1.0  0.0  0.00200480792815954  0.998916277548686  1.0000
  Sb  Sb2       1.0  0.0  0.00807526794503159  0.9990895944952961  1.0000
  Sb  Sb3       1.0  0.0025000000680628492  0.003075268060781028  0.9992154803951375  1.0000
  Sb  Sb4       1.0  0.0025000000680628492  0.00700480813393632  0.9993887976146332  1.0000
  Fe  Fe3       1.0  0.010000000272251397  0.009959962037682337  0.999890766664685  1.0000
  Fe  Fe4       1.0  0.0025000000680628492  0.005040037936595565  0.9996013421242225  1.0000
  Sb  Sb5       1.0  0.0  0.00200480792815954  0.9995146835144746  1.0000
  Sb  Sb6       1.0  0.0  0.00807526794503159  0.9996880007339703  1.0000
  Sb  Sb7       1.0  0.0025000000680628492  0.0031546872874068646  0.9998178249172943  1.0000
  Sb  Sb8       1.0  0.0025000003516580547  0.007121715709995327  0.0  1.0000
  Fe  Fe5       1.0  0.0050000001361256985  4.0037951868060125e-05  0.9993021390048854  1.0000
  Fe  Fe6       1.0  0.007500000204188548  0.005040037936595565  0.9990029358855482  1.0000
  Sb  Sb9       1.0  0.0050000001361256985  0.00200480792815954  0.998916277548686  1.0000
  Sb  Sb10      1.0  0.0050000001361256985  0.00807526794503159  0.9990895944952961  1.0000
  Sb  Sb11      1.0  0.007500000204188548  0.003075268060781028  0.9992154803951375  1.0000
  Sb  Sb12      1.0  0.007500000204188548  0.00700480813393632  0.9993887976146332  1.0000
  Fe  Fe7       1.0  0.0050000001361256985  0.009959962037682337  0.999890766664685  1.0000
  Fe  Fe8       1.0  0.007500000204188548  0.005040037936595565  0.9996013421242225  1.0000
  Sb  Sb13      1.0  0.0050000001361256985  0.00200480792815954  0.9995146835144746  1.0000
  Sb  Sb14      1.0  0.0050000001361256985  0.00807526794503159  0.9996880007339703  1.0000
  Sb  Sb15      1.0  0.007500000204188548  0.0031546872874068646  0.9998178249172943  1.0000
  Sb  Sb16      1.0  0.007500000204188548  0.007121715709995327  0.0  1.0000
