data_image0
_chemical_formula_structural       HAl48Fe16
_chemical_formula_sum              "H1 Al48 Fe16"
_cell_length_a       10.322517055495439
_cell_length_b       6.967141017230464
_cell_length_c       109.56192016601562
_cell_angle_alpha    90.90278600363662
_cell_angle_beta     95.32350898577269
_cell_angle_gamma    70.44333950282277

_space_group_name_H-M_alt    "P 1"
_space_group_IT_number       1

loop_
  _space_group_symop_operation_xyz
  'x, y, z'

loop_
  _atom_site_type_symbol
  _atom_site_label
  _atom_site_symmetry_multiplicity
  _atom_site_fract_x
  _atom_site_fract_y
  _atom_site_fract_z
  _atom_site_occupancy
  H   H1        1.0  7.749185220162117e-05  0.00616075239395345  7.657581502937978e-05  1.0000
  Al  Al1       1.0  0.005755841904563044  0.006088032962629299  0.9990013899431529  1.0000
  Al  Al2       1.0  0.0028391749660797464  0.003588032954278314  0.9991518446382106  1.0000
  Al  Al3       1.0  0.00992250813529738  0.00108803332054171  0.9993022997589261  1.0000
  Al  Al4       1.0  0.007005841581460256  0.008588033015259563  0.9994527549969955  1.0000
  Al  Al5       1.0  0.006363454389628925  0.007303257768182405  0.9992207938968872  1.0000
  Al  Al6       1.0  0.003446787451145628  0.00480325829459206  0.9993712485924807  1.0000
  Al  Al7       1.0  0.0021967875819253273  0.0023032583369513157  0.9989198838090657  1.0000
  Al  Al8       1.0  0.009280121328112222  0.009803257776533392  0.999070338929816  1.0000
  Al  Al9       1.0  0.004338079182978537  0.00973370874037655  0.9990745245515832  1.0000
  Al  Al10      1.0  0.0014214122444952393  0.007233708732025565  0.9992249792466409  1.0000
  Al  Al11      1.0  0.008504746183005223  0.0047337081835702515  0.9993754343731646  1.0000
  Al  Al12      1.0  0.007254746121461834  0.0022337083209190245  0.9989240695881636  1.0000
  Al  Al13      1.0  0.006118519398155884  0.003911966984982927  0.9993217945264574  1.0000
  Al  Al14      1.0  0.003201852651995675  0.001411966881642424  0.9994722497671281  1.0000
  Al  Al15      1.0  0.001951852590452287  0.00891196744679971  0.9990208849784755  1.0000
  Al  Al16      1.0  0.009035186336639182  0.006411966458573274  0.9991713398308639  1.0000
  Al  Al17      1.0  0.005510906913090003  0.0026967416446691808  0.9991023908442008  1.0000
  Al  Al18      1.0  0.0025942401669297936  0.00019674167501883776  0.9992528458129919  1.0000
  Al  Al19      1.0  0.009677573913116688  0.007696741515671394  0.9994033009341441  1.0000
  Al  Al20      1.0  0.0084275738515733  0.005196741118259527  0.9989519358765938  1.0000
  Al  Al21      1.0  0.007536282504386567  0.00026629128463695934  0.9992486599214669  1.0000
  Al  Al22      1.0  0.004619615565903269  0.007766291436714166  0.9993991151566322  1.0000
  Al  Al23      1.0  0.0033696155043598814  0.005266291574062941  0.9989477500996177  1.0000
  Al  Al24      1.0  0.00045294856587658414  0.002766291565711955  0.9990982053387024  1.0000
  Al  Al25      1.0  0.004089175027623134  0.00608803335169018  0.9996032096957609  1.0000
  Al  Al26      1.0  0.001172508185301381  0.0035880332958444358  0.9997536643916116  1.0000
  Al  Al27      1.0  0.008354768023522769  0.0011033102433955378  0.9999128308356099  1.0000
  Al  Al28      1.0  0.005254202133300616  0.008841272957496421  5.182581953310901e-05  1.0000
  Al  Al29      1.0  0.004657762850333275  0.007209032933152437  0.9998302084983559  1.0000
  Al  Al30      1.0  0.0016900041296844244  0.004443699384379027  0.99999309932682  1.0000
  Al  Al31      1.0  0.0005301207530661901  0.0023032581675041775  0.9995217038335479  1.0000
  Al  Al32      1.0  0.007613454066526138  0.009803258355573309  0.9996721589512656  1.0000
  Al  Al33      1.0  0.0026714123060386273  0.009733709129437431  0.9996763443041913  1.0000
  Al  Al34      1.0  0.009754843944677122  0.00723704910447905  0.999818446832694  1.0000
  Al  Al35      1.0  0.006836870363136515  0.004720790671100656  0.9999903704997258  1.0000
  Al  Al36      1.0  0.0055880792445219245  0.0022337081752192654  0.9995258896122493  1.0000
  Al  Al37      1.0  0.004361604527702747  0.0038790326534755815  0.9999411032567653  1.0000
  Al  Al38      1.0  0.00038253937198246614  0.001553219577532143  7.962766847227417e-05  1.0000
  Al  Al39      1.0  0.0002851859539162372  0.008911966647602415  0.9996227044599809  1.0000
  Al  Al40      1.0  0.007368519844345448  0.006411966657655118  0.9997731595866439  1.0000
  Al  Al41      1.0  0.003844240036150094  0.002696742033730062  0.9997042108688223  1.0000
  Al  Al42      1.0  0.001023897154487296  0.00020092695047365514  0.9998569044640611  1.0000
  Al  Al43      1.0  0.008086779648182545  0.007704309789106703  1.7818300243223985e-05  1.0000
  Al  Al44      1.0  0.006760906589987216  0.005196741697299443  0.9995537556260299  1.0000
  Al  Al45      1.0  0.0058640424890135205  0.0002154799805004526  0.999841397617496  1.0000
  Al  Al46      1.0  0.002879968616195443  0.007827330760953988  2.4007523656441755e-05  1.0000
  Al  Al47      1.0  0.0017029486274199722  0.005266291428363182  0.9995495698516899  1.0000
  Al  Al48      1.0  0.008786282565929955  0.0027662914146685054  0.9997000249787494  1.0000
  Fe  Fe1       1.0  0.004027458164158766  0.00645833360438387  0.9991741303248501  1.0000
  Fe  Fe2       1.0  0.0011107915141600998  0.003958333453548608  0.9993245850222868  1.0000
  Fe  Fe3       1.0  0.008194125164185452  0.0014583330475775697  0.9994750401464316  1.0000
  Fe  Fe4       1.0  0.006944125102642063  0.008958333077974216  0.9990236753572432  1.0000
  Fe  Fe5       1.0  0.007846902753913988  0.003541666533207392  0.9991490541415882  1.0000
  Fe  Fe6       1.0  0.004930236200076866  0.0010416666022576905  0.9992995093841127  1.0000
  Fe  Fe7       1.0  0.002013569261593568  0.008541667289095538  0.9994499640757868  1.0000
  Fe  Fe8       1.0  0.0007635692962117238  0.006041666844188913  0.9989985995630565  1.0000
  Fe  Fe9       1.0  0.002360791479541944  0.006458333363694594  0.9997759500785084  1.0000
  Fe  Fe10      1.0  0.009377952236324247  0.004208087251921669  0.9999147313190717  1.0000
  Fe  Fe11      1.0  0.0064618288028865725  0.0013654179828958416  3.0624325381375445e-05  1.0000
  Fe  Fe12      1.0  0.005277458225702154  0.008958333467035097  0.9996254948378377  1.0000
  Fe  Fe13      1.0  0.006180236261620254  0.0035416667322892372  0.9997508744413952  1.0000
  Fe  Fe14      1.0  0.0033103969178037342  0.0011010909003431137  0.9998875858480362  1.0000
  Fe  Fe15      1.0  0.00044484378247952307  0.008199476557249641  1.2103850931940322e-05  1.0000
  Fe  Fe16      1.0  0.009096902815457376  0.006041666395858619  0.9996004191986027  1.0000
