data_image0
_chemical_formula_structural       COAu18Pd6
_chemical_formula_sum              "C1 O1 Au18 Pd6"
_cell_length_a       5.043558726806017
_cell_length_b       7.748301429457283
_cell_length_c       37.28130340576172
_cell_angle_alpha    93.68107127375679
_cell_angle_beta     90.35521605231074
_cell_angle_gamma    89.24999932765276

_space_group_name_H-M_alt    "P 1"
_space_group_IT_number       1

loop_
  _space_group_symop_operation_xyz
  'x, y, z'

loop_
  _atom_site_type_symbol
  _atom_site_label
  _atom_site_symmetry_multiplicity
  _atom_site_fract_x
  _atom_site_fract_y
  _atom_site_fract_z
  _atom_site_occupancy
  C   C1        1.0  0.008531362545015547  0.002875574793102236  0.00036573653725387563  1.0000
  O   O1        1.0  0.008531362545015547  0.002875574793102236  0.0006876135485205503  1.0000
  Au  Au1       1.0  0.0025000001693142597  0.00458333320484775  0.9977845326934726  1.0000
  Au  Au2       1.0  0.005833333724642022  0.009027777670706458  0.998272097473714  1.0000
  Au  Au3       1.0  0.009166666847121056  0.00013888890461498884  0.99729696763585  1.0000
  Au  Au4       1.0  0.005833333419381652  0.007361110875554209  0.9975407501861776  1.0000
  Au  Au5       1.0  0.009166667155610885  0.0018055555341412917  0.9980283151210267  1.0000
  Au  Au6       1.0  0.002500000105255852  0.0062499999999999995  0.9985158799806992  1.0000
  Au  Au7       1.0  0.0008333333615001334  0.008194444273130333  0.9979064238697388  1.0000
  Au  Au8       1.0  0.004166666820740284  0.002638888931717416  0.9983939888043556  1.0000
  Au  Au9       1.0  0.0075000006841468535  0.003750000048182093  0.9974188590135092  1.0000
  Au  Au10      1.0  0.002500000225856833  0.007916666795152249  0.9992472272680808  1.0000
  Au  Au11      1.0  0.0059844689263424435  0.002374629180972251  0.999758265673599  1.0000
  Au  Au12      1.0  0.009166666726931097  0.0034722220883830735  0.9987596624047329  1.0000
  Au  Au13      1.0  0.005833333661523094  0.0006944444176766147  0.9990034449121827  1.0000
  Au  Au14      1.0  0.009077067247854308  0.005208899151717626  0.999508897340394  1.0000
  Au  Au15      1.0  0.0026054964136514726  0.009579783533657774  0.99995675113515  1.0000
  Au  Au16      1.0  0.0008361280770401479  0.001541475623059996  0.999355546203834  1.0000
  Au  Au17      1.0  0.004100548096084391  0.005999109575639873  0.9998532987020279  1.0000
  Au  Au18      1.0  0.007500000560727435  0.007083333397576124  0.9988815535847518  1.0000
  Pd  Pd1       1.0  0.00083333338977142  0.009861111068282583  0.9986377711570429  1.0000
  Pd  Pd2       1.0  0.004166666883624342  0.0009722221967927839  0.9976626411182363  1.0000
  Pd  Pd3       1.0  0.007500000255467065  0.005416666602423875  0.9981502062972155  1.0000
  Pd  Pd4       1.0  0.0010413637611613993  0.003089201186374196  4.209401320155779e-05  1.0000
  Pd  Pd5       1.0  0.0041666667566818754  0.004305555726869665  0.9991253360915822  1.0000
  Pd  Pd6       1.0  0.00753073760711368  0.008777322330650348  0.9996154583710567  1.0000
