data_image0
_chemical_formula_structural       COCa4Ge4Ca4Ge4
_chemical_formula_sum              "C1 O1 Ca8 Ge8"
_cell_length_a       8.141548156738281
_cell_length_b       4.646315097808838
_cell_length_c       103.07198333740234
_cell_angle_alpha    90.0
_cell_angle_beta     90.0
_cell_angle_gamma    90.0

_space_group_name_H-M_alt    "P 1"
_space_group_IT_number       1

loop_
  _space_group_symop_operation_xyz
  'x, y, z'

loop_
  _atom_site_type_symbol
  _atom_site_label
  _atom_site_symmetry_multiplicity
  _atom_site_fract_x
  _atom_site_fract_y
  _atom_site_fract_z
  _atom_site_occupancy
  C   C1        1.0  0.0012500014916630277  0.009999975850595273  0.00016804288774169306  1.0000
  O   O1        1.0  0.0012500014916630277  0.009999975850595273  0.00028446661347338324  1.0000
  Ca  Ca1       1.0  0.0012500000045756535  0.0050000240050855765  0.9994693261814102  1.0000
  Ca  Ca2       1.0  0.003750000128118297  2.405000039271111e-08  0.999227056496589  1.0000
  Ca  Ca3       1.0  0.0012500014916630277  0.009999975850595273  0.0  1.0000
  Ca  Ca4       1.0  0.003749999212987605  0.0049999883261841686  0.9997654853623108  1.0000
  Ge  Ge1       1.0  0.0012500000045756535  0.0050000240050855765  0.9991629742067474  1.0000
  Ge  Ge2       1.0  0.003750000128118297  2.405000039271111e-08  0.9995334087603926  1.0000
  Ge  Ge3       1.0  0.0012500000045756535  2.405000039271111e-08  0.9996977454405308  1.0000
  Ge  Ge4       1.0  0.003750000128118297  0.0050000240050855765  0.9989986369483276  1.0000
  Ca  Ca5       1.0  0.0062500003660522765  0.0050000240050855765  0.9994693261814102  1.0000
  Ca  Ca6       1.0  0.008750000146420911  2.405000039271111e-08  0.999227056496589  1.0000
  Ca  Ca7       1.0  0.006250001738748315  0.009999975850595273  0.0  1.0000
  Ca  Ca8       1.0  0.00874999923129022  0.0049999883261841686  0.9997654853623108  1.0000
  Ge  Ge5       1.0  0.0062500003660522765  0.0050000240050855765  0.9991629742067474  1.0000
  Ge  Ge6       1.0  0.008750000146420911  2.405000039271111e-08  0.9995334087603926  1.0000
  Ge  Ge7       1.0  0.0062500003660522765  2.405000039271111e-08  0.9996977454405308  1.0000
  Ge  Ge8       1.0  0.008750000146420911  0.0050000240050855765  0.9989986369483276  1.0000
