data_image0
_chemical_formula_structural       COCa3Zn9Ni6Ca3Zn9Ni6
_chemical_formula_sum              "C1 O1 Ca6 Zn18 Ni12"
_cell_length_a       9.142030715942383
_cell_length_b       9.142030511469766
_cell_length_c       98.98771667480469
_cell_angle_alpha    90.0
_cell_angle_beta     90.0
_cell_angle_gamma    120.00000073986843

_space_group_name_H-M_alt    "P 1"
_space_group_IT_number       1

loop_
  _space_group_symop_operation_xyz
  'x, y, z'

loop_
  _atom_site_type_symbol
  _atom_site_label
  _atom_site_symmetry_multiplicity
  _atom_site_fract_x
  _atom_site_fract_y
  _atom_site_fract_z
  _atom_site_occupancy
  C   C1        1.0  0.008552471780459509  0.007105051888182805  0.00017496856626966797  1.0000
  O   O1        1.0  0.008552471780459509  0.007105051888182805  0.0002961959742936115  1.0000
  Ca  Ca1       1.0  2.3499999802472102e-09  6.945000145080482e-08  0.9993742367491031  1.0000
  Ca  Ca2       1.0  0.0033333357149682875  0.006666736279932901  0.9995834090787612  1.0000
  Ca  Ca3       1.0  0.006666668795303609  0.003333402723882287  0.9995834090787612  1.0000
  Zn  Zn1       1.0  0.005000002158363191  6.945000145080482e-08  0.9993742367491031  1.0000
  Zn  Zn2       1.0  0.0050000024305780575  0.005000069619539961  0.9993742367491031  1.0000
  Zn  Zn3       1.0  2.3979788209579754e-09  0.005000069619539961  0.9993742367491031  1.0000
  Zn  Zn4       1.0  0.002924897741703844  6.945000145080482e-08  0.9995834090787612  1.0000
  Zn  Zn5       1.0  0.0029248977084748457  0.0029249647957381142  0.9995834090787612  1.0000
  Zn  Zn6       1.0  2.2801724741726233e-09  0.007075174208077074  0.9995834090787612  1.0000
  Zn  Zn7       1.0  2.29628018597057e-09  0.0029249647957381142  0.9995834090787612  1.0000
  Zn  Zn8       1.0  0.007075107136921516  0.007075174208077074  0.9995834090787612  1.0000
  Zn  Zn9       1.0  0.007075106575022538  6.945000145080482e-08  0.9995834090787612  1.0000
  Ni  Ni1       1.0  0.001820809970352104  0.0036416846907056984  0.9993742367491031  1.0000
  Ni  Ni2       1.0  0.008179194663842764  0.0018208770469010523  0.9993742367491031  1.0000
  Ni  Ni3       1.0  0.0036416174535284494  0.0018208770469010523  0.9993742367491031  1.0000
  Ni  Ni4       1.0  0.006358386968617702  0.008179261721649402  0.9993742367491031  1.0000
  Ni  Ni5       1.0  0.0018208099620486173  0.008179261721649402  0.9993742367491031  1.0000
  Ni  Ni6       1.0  0.008179194589917211  0.00635845431310949  0.9993742367491031  1.0000
  Ca  Ca4       1.0  2.696500030027489e-07  2.385500108707555e-07  0.9997935306850128  1.0000
  Ca  Ca5       1.0  0.0033331871290491937  0.006666699108104995  0.9999898207923793  1.0000
  Ca  Ca6       1.0  0.006666697755448457  0.003333203925182412  0.9999898015238408  1.0000
  Zn  Zn10      1.0  0.0049997516369974  0.009999930323996502  0.9997923580138006  1.0000
  Zn  Zn11      1.0  0.004999662731588644  0.0049997920071543364  0.999792346272035  1.0000
  Zn  Zn12      1.0  0.009999892480997561  0.004999924225934609  0.9997923547020205  1.0000
  Zn  Zn13      1.0  0.0028949803196862975  7.295000232511107e-08  0.9999999765164687  1.0000
  Zn  Zn14      1.0  0.002894927091660626  0.002894975129619199  0.9999999909678725  1.0000
  Zn  Zn15      1.0  0.009999911835139411  0.007104995895176213  0.9999999849464543  1.0000
  Zn  Zn16      1.0  0.009999997919398212  0.002894997009239422  0.9999999849464543  1.0000
  Zn  Zn17      1.0  0.007105032368534795  0.007105108351718865  0.0  1.0000
  Zn  Zn18      1.0  0.007104989066920291  0.009999895504815934  0.9999999873550216  1.0000
  Ni  Ni7       1.0  0.0018322391991922793  0.003664441848384896  0.9997919422348676  1.0000
  Ni  Ni8       1.0  0.008167787959796571  0.001832410194670613  0.9997919684280372  1.0000
  Ni  Ni9       1.0  0.003664428662896064  0.0018321961037630554  0.9997919377188039  1.0000
  Ni  Ni10      1.0  0.006335777770021274  0.008168041475975503  0.9997919277834637  1.0000
  Ni  Ni11      1.0  0.0018324204013863469  0.008167828796656347  0.9997919750515973  1.0000
  Ni  Ni12      1.0  0.008168044203635665  0.006335776204380775  0.9997919217620455  1.0000
