data_image0
_chemical_formula_structural       HSb8Pt8Sb8Pt8
_chemical_formula_sum              "H1 Sb16 Pt16"
_cell_length_a       7.036472143983119
_cell_length_b       7.330428600311279
_cell_length_c       105.18235778808594
_cell_angle_alpha    90.0
_cell_angle_beta     106.04953541915532
_cell_angle_gamma    90.0

_space_group_name_H-M_alt    "P 1"
_space_group_IT_number       1

loop_
  _space_group_symop_operation_xyz
  'x, y, z'

loop_
  _atom_site_type_symbol
  _atom_site_label
  _atom_site_symmetry_multiplicity
  _atom_site_fract_x
  _atom_site_fract_y
  _atom_site_fract_z
  _atom_site_occupancy
  H   H1        1.0  0.0050831371269000085  0.000833333399398739  0.00019046377760035247  1.0000
  Sb  Sb1       1.0  0.005625000044071855  0.00250000007114736  0.9996485390185441  1.0000
  Sb  Sb2       1.0  0.000624999997245509  0.00250000007114736  0.9999830282978138  1.0000
  Sb  Sb3       1.0  0.0031250000550898196  0.007500000467539794  0.000150272519609051  1.0000
  Sb  Sb4       1.0  0.00812500030850299  0.007500000467539794  0.9998157838108392  1.0000
  Sb  Sb5       1.0  0.005625000044071855  0.004166666869944838  0.9999830281626769  1.0000
  Sb  Sb6       1.0  0.000624999997245509  0.004166666869944838  0.999648539153681  1.0000
  Sb  Sb7       1.0  0.0031250000550898196  0.00916666650404413  0.9998157833754762  1.0000
  Sb  Sb8       1.0  0.00812500030850299  0.00916666650404413  0.00015027295497208382  1.0000
  Pt  Pt1       1.0  0.0043749999118562885  0.000833333399398739  6.665062193530158e-05  1.0000
  Pt  Pt2       1.0  0.009375000440718559  0.000833333399398739  0.9997321613515808  1.0000
  Pt  Pt3       1.0  0.0018750000605988017  0.005833333414644602  0.9998994058372819  1.0000
  Pt  Pt4       1.0  0.006875000176287423  0.005833333414644602  0.9995649165592857  1.0000
  Pt  Pt5       1.0  0.006875000176287423  0.000833333399398739  0.9998994057034185  1.0000
  Pt  Pt6       1.0  0.0018750000605988017  0.000833333399398739  0.999564916693149  1.0000
  Pt  Pt7       1.0  0.0043749999118562885  0.005833333414644602  0.9997321614778024  1.0000
  Pt  Pt8       1.0  0.009375000440718559  0.005833333414644602  6.665049571369308e-05  1.0000
  Sb  Sb9       1.0  0.005625000044071855  0.00250000007114736  0.9989795604469388  1.0000
  Sb  Sb10      1.0  0.000624999997245509  0.00250000007114736  0.9993140500095481  1.0000
  Sb  Sb11      1.0  0.0031250000550898196  0.007500000467539794  0.9994812942313434  1.0000
  Sb  Sb12      1.0  0.00812500030850299  0.007500000467539794  0.9991468052392339  1.0000
  Sb  Sb13      1.0  0.005625000044071855  0.004166666869944838  0.9993140498744112  1.0000
  Sb  Sb14      1.0  0.000624999997245509  0.004166666869944838  0.9989795605820757  1.0000
  Sb  Sb15      1.0  0.0031250000550898196  0.00916666650404413  0.9991468050872105  1.0000
  Sb  Sb16      1.0  0.00812500030850299  0.00916666650404413  0.9994812941000273  1.0000
  Pt  Pt9       1.0  0.0043749999118562885  0.000833333399398739  0.9993976717669905  1.0000
  Pt  Pt10      1.0  0.009375000440718559  0.000833333399398739  0.9990631827799756  1.0000
  Pt  Pt11      1.0  0.0018750000605988017  0.005833333414644602  0.9992304275490161  1.0000
  Pt  Pt12      1.0  0.006875000176287423  0.005833333414644602  0.99889593827102  1.0000
  Pt  Pt13      1.0  0.006875000176287423  0.000833333399398739  0.9992304274151528  1.0000
  Pt  Pt14      1.0  0.0018750000605988017  0.000833333399398739  0.9988959384048833  1.0000
  Pt  Pt15      1.0  0.0043749999118562885  0.005833333414644602  0.9990631829061972  1.0000
  Pt  Pt16      1.0  0.009375000440718559  0.005833333414644602  0.9993976719241084  1.0000
