data_image0
_chemical_formula_structural       COCu4Ge4Ti4Cu4Ge4Ti4
_chemical_formula_sum              "C1 O1 Cu8 Ge8 Ti8"
_cell_length_a       7.621095180511475
_cell_length_b       4.985724730236964
_cell_length_c       101.14134979248047
_cell_angle_alpha    90.0
_cell_angle_beta     90.0
_cell_angle_gamma    112.46666230240932

_space_group_name_H-M_alt    "P 1"
_space_group_IT_number       1

loop_
  _space_group_symop_operation_xyz
  'x, y, z'

loop_
  _atom_site_type_symbol
  _atom_site_label
  _atom_site_symmetry_multiplicity
  _atom_site_fract_x
  _atom_site_fract_y
  _atom_site_fract_z
  _atom_site_occupancy
  C   C1        1.0  0.0035842361394414213  0.004414420243034565  0.0001347504307035205  1.0000
  O   O1        1.0  0.0035842361394414213  0.004414420243034565  0.00025339591782299784  1.0000
  Cu  Cu1       1.0  0.002500000067443829  8.49391517278376e-05  0.9992517854658957  1.0000
  Cu  Cu2       1.0  0.002500000067443829  8.49391517278376e-05  0.9995083681329294  1.0000
  Cu  Cu3       1.0  0.002457411071578322  0.0099150607125858  0.999759071741225  1.0000
  Cu  Cu4       1.0  0.0027115532843546906  0.0009287001334291082  0.0  1.0000
  Ge  Ge1       1.0  0.0005428085751381343  0.0022561732405516027  0.9991234939850487  1.0000
  Ge  Ge2       1.0  0.004457191271647456  0.00791370494616832  0.9993800769467426  1.0000
  Ge  Ge3       1.0  0.0005428085751381343  0.0022561732405516027  0.9996366599084364  1.0000
  Ge  Ge4       1.0  0.004456918800656616  0.007900140554779856  0.9999269991336144  1.0000
  Ti  Ti1       1.0  0.004004508253040698  0.0061029718941153135  0.9991234939850487  1.0000
  Ti  Ti2       1.0  0.0009954917885063167  0.004066906292604608  0.9993800769467426  1.0000
  Ti  Ti3       1.0  0.004004508253040698  0.0061029718941153135  0.9996366599084364  1.0000
  Ti  Ti4       1.0  0.0010299833446739458  0.004189071118110519  0.9998759109618016  1.0000
  Cu  Cu5       1.0  0.007500000165206426  8.49391517278376e-05  0.9992517854658957  1.0000
  Cu  Cu6       1.0  0.007500000165206426  8.49391517278376e-05  0.9995083681329294  1.0000
  Cu  Cu7       1.0  0.007457410991764326  0.0099150607125858  0.999759071741225  1.0000
  Cu  Cu8       1.0  0.007711553382117288  0.0009287001334291082  0.0  1.0000
  Ge  Ge5       1.0  0.005542808394124576  0.0022561732405516027  0.9991234939850487  1.0000
  Ge  Ge6       1.0  0.00945719112500356  0.00791370494616832  0.9993800769467426  1.0000
  Ge  Ge7       1.0  0.005542808394124576  0.0022561732405516027  0.9996366599084364  1.0000
  Ge  Ge8       1.0  0.009456918654012722  0.007900140554779856  0.9999269991336144  1.0000
  Ti  Ti5       1.0  0.009004508350803296  0.0061029718941153135  0.9991234939850487  1.0000
  Ti  Ti6       1.0  0.005995491657137827  0.004066906292604608  0.9993800769467426  1.0000
  Ti  Ti7       1.0  0.009004508350803296  0.0061029718941153135  0.9996366599084364  1.0000
  Ti  Ti8       1.0  0.006029983450074246  0.004189071118110519  0.9998759109618016  1.0000
