data_image0
_chemical_formula_structural       COMn8Sb8Mn8Sb8
_chemical_formula_sum              "C1 O1 Mn16 Sb16"
_cell_length_a       11.45654224727771
_cell_length_b       6.809730052947998
_cell_length_c       101.45279693603516
_cell_angle_alpha    90.0
_cell_angle_beta     80.1198662519434
_cell_angle_gamma    72.71059524487964

_space_group_name_H-M_alt    "P 1"
_space_group_IT_number       1

loop_
  _space_group_symop_operation_xyz
  'x, y, z'

loop_
  _atom_site_type_symbol
  _atom_site_label
  _atom_site_symmetry_multiplicity
  _atom_site_fract_x
  _atom_site_fract_y
  _atom_site_fract_z
  _atom_site_occupancy
  C   C1        1.0  0.0038951036971397223  0.0028804325027437937  0.9999245265397422  1.0000
  O   O1        1.0  0.0038951036971397223  0.0028804325027437937  4.280780035258727e-05  1.0000
  Mn  Mn1       1.0  0.005552164309652484  0.002036246604131702  0.9997299464284636  1.0000
  Mn  Mn2       1.0  0.0010119580785738847  0.004345289572891766  0.9998326139554655  1.0000
  Mn  Mn3       1.0  0.00048751781289770393  0.009658435534725911  0.9996463866706368  1.0000
  Mn  Mn4       1.0  0.005527031901392474  0.006964440686422393  0.9995404276152041  1.0000
  Mn  Mn5       1.0  0.008433086345174201  0.000596683302041251  0.9996927160437677  1.0000
  Mn  Mn6       1.0  0.0028165549666128126  0.003435363007416993  0.999772005856881  1.0000
  Mn  Mn7       1.0  0.0031713552846319233  0.008231514448889728  0.9995980376243248  1.0000
  Mn  Mn8       1.0  0.00802703162443989  0.005714440824898684  0.9994919863811798  1.0000
  Sb  Sb1       1.0  0.006777031762916183  0.003006107043036408  0.9995162069981919  1.0000
  Sb  Sb2       1.0  0.0017696001211833718  0.005747767298477917  0.9995993505887502  1.0000
  Sb  Sb3       1.0  0.0018140013322527012  0.00034156482690255287  0.9998244476071471  1.0000
  Sb  Sb4       1.0  0.00682584811743144  0.008280976285299866  0.9996998277217625  1.0000
  Sb  Sb5       1.0  0.00951248203131647  0.008228082113772335  0.999862282813092  1.0000
  Sb  Sb6       1.0  0.004338102507572991  0.0009768346674864593  0.9995666286478553  1.0000
  Sb  Sb7       1.0  0.004313548237828266  0.005802470937590509  0.9997660192332078  1.0000
  Sb  Sb8       1.0  0.009346291787713408  0.0037282254979586955  0.9996802742591705  1.0000
  Mn  Mn9       1.0  0.005527031901392474  0.0019644401174861974  0.999346662634141  1.0000
  Mn  Mn10      1.0  0.0005270317196423412  0.004464440208361263  0.999443545116444  1.0000
  Mn  Mn11      1.0  0.0005270317196423412  0.009464440777297458  0.9992497801353808  1.0000
  Mn  Mn12      1.0  0.005527031901392474  0.006964440686422393  0.9991528976530778  1.0000
  Mn  Mn13      1.0  0.00802703162443989  0.0007144402559624883  0.9992982214001166  1.0000
  Mn  Mn14      1.0  0.0030270318321543276  0.00321444015210527  0.9993951038748732  1.0000
  Mn  Mn15      1.0  0.0030270318321543276  0.008214440721041466  0.99920133889381  1.0000
  Mn  Mn16      1.0  0.00802703162443989  0.005714440824898684  0.9991044564190534  1.0000
  Sb  Sb9       1.0  0.006777031762916183  0.003006107043036408  0.9991286770360657  1.0000
  Sb  Sb10      1.0  0.0017770316244398912  0.005506107112274553  0.9992255595175301  1.0000
  Sb  Sb11      1.0  0.0017770316244398912  0.0005061070903923924  0.9994193244985933  1.0000
  Sb  Sb12      1.0  0.006777031762916183  0.008006106517864535  0.9993224420171287  1.0000
  Sb  Sb13      1.0  0.0092770314859636  0.008422773512652892  0.9994677657641676  1.0000
  Sb  Sb14      1.0  0.004277031693678037  0.0009227736385583676  0.9991771182767979  1.0000
  Sb  Sb15      1.0  0.004277031693678037  0.005922773933967546  0.999370883257861  1.0000
  Sb  Sb16      1.0  0.0092770314859636  0.003422774037824765  0.9992740007831045  1.0000
