data_image0
_chemical_formula_structural       HCu18Ru6Cu18Ru6
_chemical_formula_sum              "H1 Cu36 Ru12"
_cell_length_a       5.301018554964073
_cell_length_b       10.01083268571696
_cell_length_c       110.75135040283203
_cell_angle_alpha    83.27925013028458
_cell_angle_beta     112.96981246916623
_cell_angle_gamma    74.64706288882708

_space_group_name_H-M_alt    "P 1"
_space_group_IT_number       1

loop_
  _space_group_symop_operation_xyz
  'x, y, z'

loop_
  _atom_site_type_symbol
  _atom_site_label
  _atom_site_symmetry_multiplicity
  _atom_site_fract_x
  _atom_site_fract_y
  _atom_site_fract_z
  _atom_site_occupancy
  H   H1        1.0  0.0013690918586960147  0.009183872025624838  0.00011811832798888145  1.0000
  Cu  Cu1       1.0  0.0035629006541077995  0.0002853340876085162  0.9989709163423711  1.0000
  Cu  Cu2       1.0  0.0035629006612593176  0.0036186674621058418  0.999175334882892  1.0000
  Cu  Cu3       1.0  0.0035629003556497847  0.006952000737012864  0.9993797534186243  1.0000
  Cu  Cu4       1.0  0.008630907109867096  0.008595998430367582  0.9991781154606291  1.0000
  Cu  Cu5       1.0  0.008630907858833123  0.0019293316813729306  0.9993825340916582  1.0000
  Cu  Cu6       1.0  0.00863090769097055  0.005262664757099345  0.9989736969342566  1.0000
  Cu  Cu7       1.0  0.008630907606792837  0.0002853340876085162  0.9989709163967898  1.0000
  Cu  Cu8       1.0  0.008630907995578885  0.0036186674621058418  0.9991753352135313  1.0000
  Cu  Cu9       1.0  0.008630908453238412  0.006952000737012864  0.9993797537635205  1.0000
  Cu  Cu10      1.0  0.006986910434440375  0.009714666035883461  0.9993475372456021  1.0000
  Cu  Cu11      1.0  0.0069869105578843  0.0030479990877082023  0.9989387001692405  1.0000
  Cu  Cu12      1.0  0.006986910252274768  0.006381332362615224  0.9991431187049727  1.0000
  Cu  Cu13      1.0  0.0019189030934682319  0.0014040015935340914  0.9991403386500474  1.0000
  Cu  Cu14      1.0  0.0019189028409290043  0.004737335067621721  0.999344757184664  1.0000
  Cu  Cu15      1.0  0.0019189029169540022  0.008070668342528743  0.9989359197606188  1.0000
  Cu  Cu16      1.0  0.0019189031001208084  0.009714666035883461  0.9993475374531472  1.0000
  Cu  Cu17      1.0  0.0019189032235647331  0.0030479990877082023  0.9989387003767856  1.0000
  Cu  Cu18      1.0  0.0019189032995897306  0.006381332362615224  0.9991431189196464  1.0000
  Ru  Ru1       1.0  0.006941572093230014  0.0013888888645445926  0.999142192213886  1.0000
  Ru  Ru2       1.0  0.006941571856493961  0.004722222039861311  0.9993466107519583  1.0000
  Ru  Ru3       1.0  0.006941572314153488  0.008055555314768334  0.9989377736041338  1.0000
  Ru  Ru4       1.0  0.00360823902692451  0.008611110661405562  0.999176261919183  1.0000
  Ru  Ru5       1.0  0.0036082387371275553  0.001944444310772126  0.9993806805265952  1.0000
  Ru  Ru6       1.0  0.0036082390570401236  0.005277777784859755  0.9989718433740907  1.0000
  Cu  Cu19      1.0  0.0035629006541077995  0.0002853340876085162  0.9995841725783693  1.0000
  Cu  Cu20      1.0  0.0035629006612593176  0.0036186674621058418  0.9997885911188901  1.0000
  Cu  Cu21      1.0  0.0035629003556497847  0.006952000737012864  0.9999930096546225  1.0000
  Cu  Cu22      1.0  0.008630907109867096  0.008595998430367582  0.9997913711584429  1.0000
  Cu  Cu23      1.0  0.008630907858833123  0.0019293316813729306  0.999995789789472  1.0000
  Cu  Cu24      1.0  0.00863090769097055  0.005262664757099345  0.9995869526320704  1.0000
  Cu  Cu25      1.0  0.008630907606792837  0.0002853340876085162  0.9995841723636958  1.0000
  Cu  Cu26      1.0  0.008630907995578885  0.0036186674621058418  0.9997885909113451  1.0000
  Cu  Cu27      1.0  0.008630908453238412  0.006952000737012864  0.9999930094613343  1.0000
  Cu  Cu28      1.0  0.006986910434440375  0.009714666035883461  0.9999607934816003  1.0000
  Cu  Cu29      1.0  0.0069869105578843  0.0030479990877082023  0.9995519564052386  1.0000
  Cu  Cu30      1.0  0.006986910252274768  0.006381332362615224  0.9997563749409709  1.0000
  Cu  Cu31      1.0  0.0019189030934682319  0.0014040015935340914  0.9997535943478613  1.0000
  Cu  Cu32      1.0  0.0019189028409290043  0.004737335067621721  0.9999580128824778  1.0000
  Cu  Cu33      1.0  0.0019189029169540022  0.008070668342528743  0.9995491757275248  1.0000
  Cu  Cu34      1.0  0.0019189031001208084  0.009714666035883461  0.999960793150961  1.0000
  Cu  Cu35      1.0  0.0019189032235647331  0.0030479990877082023  0.9995519560745993  1.0000
  Cu  Cu36      1.0  0.0019189032995897306  0.006381332362615224  0.9997563746174601  1.0000
  Ru  Ru7       1.0  0.006941572093230014  0.0013888888645445926  0.9997554479116999  1.0000
  Ru  Ru8       1.0  0.006941571856493961  0.004722222039861311  0.9999598664497721  1.0000
  Ru  Ru9       1.0  0.006941572314153488  0.008055555314768334  0.9995510293019476  1.0000
  Ru  Ru10      1.0  0.00360823902692451  0.008611110661405562  0.9997895176169967  1.0000
  Ru  Ru11      1.0  0.0036082387371275553  0.001944444310772126  0.9999939362244091  1.0000
  Ru  Ru12      1.0  0.0036082390570401236  0.005277777784859755  0.9995850990719046  1.0000
