data_image0
_chemical_formula_structural       COZnAuZnAuZnAuZnAuZnAuZnAuZnAuZnAuZnAuZnAuZnAuZnAu
_chemical_formula_sum              "C1 O1 Zn12 Au12"
_cell_length_a       6.443979740142822
_cell_length_b       6.443979740142822
_cell_length_c       102.21990203857422
_cell_angle_alpha    90.0
_cell_angle_beta     90.0
_cell_angle_gamma    90.0

_space_group_name_H-M_alt    "P 1"
_space_group_IT_number       1

loop_
  _space_group_symop_operation_xyz
  'x, y, z'

loop_
  _atom_site_type_symbol
  _atom_site_label
  _atom_site_symmetry_multiplicity
  _atom_site_fract_x
  _atom_site_fract_y
  _atom_site_fract_z
  _atom_site_occupancy
  C   C1        1.0  0.0012500014163547373  0.0012500053185565642  0.0001694436541207465  1.0000
  O   O1        1.0  0.0012500014163547373  0.0012500053185565642  0.00028683786091784045  1.0000
  Zn  Zn1       1.0  0.0037500000578103974  0.00374999976875841  0.9991950289380069  1.0000
  Au  Au1       1.0  0.0012499999710948013  0.001249999682042814  0.9993526297874366  1.0000
  Zn  Zn2       1.0  0.0037500000578103974  0.00374999976875841  0.9995102309284173  1.0000
  Au  Au2       1.0  0.0012499999710948013  0.001249999682042814  0.9996678317778469  1.0000
  Zn  Zn3       1.0  0.003749992831510718  0.0037500003468623846  0.9998507188520639  1.0000
  Au  Au3       1.0  0.0012500014163547373  0.0012500053185565642  0.0  1.0000
  Zn  Zn4       1.0  0.0037500000578103974  0.008749999653137615  0.9991950289380069  1.0000
  Au  Au4       1.0  0.0012499999710948013  0.00625  0.9993526297874366  1.0000
  Zn  Zn5       1.0  0.0037500000578103974  0.008749999653137615  0.9995102309284173  1.0000
  Au  Au5       1.0  0.0012499999710948013  0.00625  0.9996678317778469  1.0000
  Zn  Zn6       1.0  0.003749992831510718  0.008750000809345564  0.9998507188520639  1.0000
  Au  Au6       1.0  0.0012500014163547373  0.006250005202935769  0.0  1.0000
  Zn  Zn7       1.0  0.00875000023124159  0.00374999976875841  0.9991950289380069  1.0000
  Au  Au7       1.0  0.00625  0.001249999682042814  0.9993526297874366  1.0000
  Zn  Zn8       1.0  0.00875000023124159  0.00374999976875841  0.9995102309284173  1.0000
  Au  Au8       1.0  0.00625  0.001249999682042814  0.9996678317778469  1.0000
  Zn  Zn9       1.0  0.008749992715889924  0.0037500003468623846  0.9998507188520639  1.0000
  Au  Au9       1.0  0.006250001734311924  0.0012500053185565642  0.0  1.0000
  Zn  Zn10      1.0  0.00875000023124159  0.008749999653137615  0.9991950289380069  1.0000
  Au  Au10      1.0  0.00625  0.00625  0.9993526297874366  1.0000
  Zn  Zn11      1.0  0.00875000023124159  0.008749999653137615  0.9995102309284173  1.0000
  Au  Au11      1.0  0.00625  0.00625  0.9996678317778469  1.0000
  Zn  Zn12      1.0  0.008749992715889924  0.008750000809345564  0.9998507188520639  1.0000
  Au  Au12      1.0  0.006250001734311924  0.006250005202935769  0.0  1.0000
