data_image0
_chemical_formula_structural       COAs12Os6As12Os6
_chemical_formula_sum              "C1 O1 As24 Os12"
_cell_length_a       6.285777568817139
_cell_length_b       8.23726537752826
_cell_length_c       107.78389739990234
_cell_angle_alpha    77.2367646503811
_cell_angle_beta     90.0
_cell_angle_gamma    90.0

_space_group_name_H-M_alt    "P 1"
_space_group_IT_number       1

loop_
  _space_group_symop_operation_xyz
  'x, y, z'

loop_
  _atom_site_type_symbol
  _atom_site_label
  _atom_site_symmetry_multiplicity
  _atom_site_fract_x
  _atom_site_fract_y
  _atom_site_fract_z
  _atom_site_occupancy
  C   C1        1.0  0.0048077277757460025  0.006490403270633358  0.9999578858659852  1.0000
  O   O1        1.0  0.0048077277757460025  0.006490403270633358  6.921942325604938e-05  1.0000
  As  As1       1.0  0.0013815011721555327  0.004188365943117149  0.9988936938007356  1.0000
  As  As2       1.0  0.0013815011721555327  0.0008550325788700828  0.9990884451550817  1.0000
  As  As3       1.0  0.0013815011721555327  0.0075216993073642146  0.9992831967069423  1.0000
  As  As4       1.0  0.008683218744421942  0.0030483225046237052  0.9987604787268896  1.0000
  As  As5       1.0  0.008683218744421942  0.009714989233117838  0.9989552300022496  1.0000
  As  As6       1.0  0.008683218744421942  0.006381655868870771  0.9991499813565956  1.0000
  As  As7       1.0  0.006381501118816686  0.0030483225046237052  0.9990526058571659  1.0000
  As  As8       1.0  0.006381501118816686  0.009714989233117838  0.9992473568560253  1.0000
  As  As9       1.0  0.006381501118816686  0.006381655868870771  0.9988578545028199  1.0000
  As  As10      1.0  0.0036832186495973254  0.0008550325788700828  0.9987963180248053  1.0000
  As  As11      1.0  0.0036832186495973254  0.0075216993073642146  0.9989910693001652  1.0000
  As  As12      1.0  0.0036832186495973254  0.004188365943117149  0.9991858206545112  1.0000
  Os  Os1       1.0  0.005032360180533932  0.003618344223870427  0.998827086402063  1.0000
  Os  Os2       1.0  0.005032360180533932  0.0002850108596233609  0.999021837756409  1.0000
  Os  Os3       1.0  0.005032360180533932  0.006951677588117493  0.999216589031769  1.0000
  Os  Os4       1.0  3.235995143617714e-05  0.003618344223870427  0.9991192135323393  1.0000
  Os  Os5       1.0  3.235995143617714e-05  0.0002850108596233609  0.9993139643336839  1.0000
  Os  Os6       1.0  3.235995143617714e-05  0.006951677588117493  0.9989244619014926  1.0000
  As  As13      1.0  0.0013815011721555327  0.004188365943117149  0.9994779475082869  1.0000
  As  As14      1.0  0.0014023439192026753  0.0009146538665697508  0.9996581071980871  1.0000
  As  As15      1.0  0.001319913620843088  0.007571544919236513  0.9998721637312801  1.0000
  As  As16      1.0  0.008683218744421942  0.0030483225046237052  0.9993447327109416  1.0000
  As  As17      1.0  0.008683218744421942  0.009714989233117838  0.9995394842628024  1.0000
  As  As18      1.0  0.008653007028931597  0.006104581337295435  0.9997517068155773  1.0000
  As  As19      1.0  0.006374753754694483  0.0029926847412090245  0.9996445096120875  1.0000
  As  As20      1.0  0.0066512012932408784  0.009425804555863143  0.9998249408939249  1.0000
  As  As21      1.0  0.006381501118816686  0.006381655868870771  0.9994421082103713  1.0000
  As  As22      1.0  0.0036832186495973254  0.0008550325788700828  0.9993805720088573  1.0000
  As  As23      1.0  0.0036832186495973254  0.0075216993073642146  0.999575323560718  1.0000
  As  As24      1.0  0.0036268993465521883  0.004194489180737608  0.9997783279356527  1.0000
  Os  Os7       1.0  0.005032360180533932  0.003618344223870427  0.999411340386115  1.0000
  Os  Os8       1.0  0.005032360180533932  0.0002850108596233609  0.999606091740461  1.0000
  Os  Os9       1.0  0.0048077277757460025  0.006966706763014632  0.9997931179413567  1.0000
  Os  Os10      1.0  0.00014348964692509182  0.003558937921861163  0.9997023577772904  1.0000
  Os  Os11      1.0  0.009967640103939917  0.0003371624524107815  0.9998659939597997  1.0000
  Os  Os12      1.0  3.235995143617714e-05  0.006951677588117493  0.9995087158855447  1.0000
