data_image0
_chemical_formula_structural       V12Sn4H
_chemical_formula_sum              "V12 Sn4 H1"
_cell_length_a       4.982881546020508
_cell_length_b       7.046858787536621
_cell_length_c       98.18743133544922
_cell_angle_alpha    90.0
_cell_angle_beta     90.0
_cell_angle_gamma    90.0

_space_group_name_H-M_alt    "P 1"
_space_group_IT_number       1

loop_
  _space_group_symop_operation_xyz
  'x, y, z'

loop_
  _atom_site_type_symbol
  _atom_site_label
  _atom_site_symmetry_multiplicity
  _atom_site_fract_x
  _atom_site_fract_y
  _atom_site_fract_z
  _atom_site_occupancy
  V   V1        1.0  1.0800000110601419e-08  0.006875000042291641  0.9993684656205547  1.0000
  V   V2        1.0  1.339999952987114e-08  0.0020054016977657965  0.9997318173068279  1.0000
  V   V3        1.0  4.3200000442405675e-08  0.0044333621794750335  0.9999025072208797  1.0000
  V   V4        1.0  1.0800000110601419e-08  0.009374999577083586  0.999547889157767  1.0000
  V   V5        1.0  0.005000010915218003  0.006875000042291641  0.999547889157767  1.0000
  V   V6        1.0  0.004999973908143267  0.0018166634862647575  0.9999025060067804  1.0000
  V   V7        1.0  0.005000010915218003  0.009374999577083586  0.9993684656205547  1.0000
  V   V8        1.0  0.005000006429511974  0.0042446333514318995  0.9997318230737995  1.0000
  V   V9        1.0  0.007500010765694468  0.003124999947135448  0.9994581775409233  1.0000
  V   V10       1.0  0.0074999786181345965  0.008124980778449045  0.9998169186851861  1.0000
  V   V11       1.0  0.0025000108778371194  0.003124999947135448  0.9994581775409233  1.0000
  V   V12       1.0  0.0025000465765809303  0.008124985536258688  0.9998169192922357  1.0000
  Sn  Sn1       1.0  0.005000022877100746  0.0055844753669459625  2.4281985571760725e-09  1.0000
  Sn  Sn2       1.0  0.005000010915218003  0.0006250000158593654  0.9996376010781357  1.0000
  Sn  Sn3       1.0  1.0800000110601419e-08  0.005624999746250152  0.9996376010781357  1.0000
  Sn  Sn4       1.0  0.009999988935258462  0.0006656342873501505  0.0  1.0000
  H   H1        1.0  0.008750011064741537  0.006279171611123418  1.2482154683163602e-05  1.0000
