data_image0
_chemical_formula_structural       HFe8Ni4Se16
_chemical_formula_sum              "H1 Fe8 Ni4 Se16"
_cell_length_a       6.93668265196015
_cell_length_b       8.209691954810577
_cell_length_c       102.7973403930664
_cell_angle_alpha    85.19830333335022
_cell_angle_beta     91.71875689009457
_cell_angle_gamma    89.3440477905449

_space_group_name_H-M_alt    "P 1"
_space_group_IT_number       1

loop_
  _space_group_symop_operation_xyz
  'x, y, z'

loop_
  _atom_site_type_symbol
  _atom_site_label
  _atom_site_symmetry_multiplicity
  _atom_site_fract_x
  _atom_site_fract_y
  _atom_site_fract_z
  _atom_site_occupancy
  H   H1        1.0  0.006236080410084492  0.008176544935190967  3.6476973095424336e-05  1.0000
  Fe  Fe1       1.0  0.009016018459622958  0.003641314631385551  0.9999329956104382  1.0000
  Fe  Fe2       1.0  0.0015078669314054476  0.006107918104354322  0.9993490807926367  1.0000
  Fe  Fe3       1.0  0.004007866779232318  0.008607917721809712  0.9995484859430865  1.0000
  Fe  Fe4       1.0  0.00667535803597755  0.0010852330632272064  0.9997493888738249  1.0000
  Fe  Fe5       1.0  0.0009839809006859737  0.0014733472271228412  0.9997843530018456  1.0000
  Fe  Fe6       1.0  0.003381256608787771  0.0035550353377951974  0.9999438981695057  1.0000
  Fe  Fe7       1.0  0.005797253925247885  0.006261100807019025  0.9993792824339327  1.0000
  Fe  Fe8       1.0  0.008297253892334782  0.008761101335294915  0.9995786875785351  1.0000
  Ni  Ni1       1.0  0.0011326858181416534  0.003801444617420997  0.9995637888165192  1.0000
  Ni  Ni2       1.0  0.0037916288460030606  0.006279186969705731  0.9997832196859431  1.0000
  Ni  Ni3       1.0  0.00615847564401718  0.008354606699838214  0.9999159496400302  1.0000
  Ni  Ni4       1.0  0.008632685444051684  0.0013014446584079195  0.9993643835890109  1.0000
  Se  Se1       1.0  0.00858563688636403  0.003421246280646268  0.9997169927582846  1.0000
  Se  Se2       1.0  0.0012628310339625934  0.005762535881227141  0.9999469069375538  1.0000
  Se  Se3       1.0  0.0035856369720773103  0.008421245970967297  0.9993181819016954  1.0000
  Se  Se4       1.0  0.006085636910805366  0.0009212462647069093  0.9995175873203268  1.0000
  Se  Se5       1.0  0.0012070190232016272  0.0015752925194764027  1.5042371516130378e-05  1.0000
  Se  Se6       1.0  0.0037288462476953175  0.003950320049936863  0.999410662762681  1.0000
  Se  Se7       1.0  0.006228846222312674  0.006450320122802503  0.999610067910343  1.0000
  Se  Se8       1.0  0.008929375743469699  0.008998007569224397  0.9998046826191046  1.0000
  Se  Se9       1.0  0.0037508505341285136  0.009359803688598602  0.9997718108406018  1.0000
  Se  Se10      1.0  0.0062802222839316605  0.0016951890592299722  0.9999823755765312  1.0000
  Se  Se11      1.0  0.008688888641637279  0.0042697074559678765  0.9993849541625223  1.0000
  Se  Se12      1.0  0.0011888886184122567  0.006769707073423266  0.9995843596814231  1.0000
  Se  Se13      1.0  0.003716776260807601  0.0032049168480632485  0.9997303925482183  1.0000
  Se  Se14      1.0  0.0061833041923556025  0.00545323307978228  0.999976059142396  1.0000
  Se  Se15      1.0  0.008581365329192672  0.008140194999819876  0.9993437127728863  1.0000
  Se  Se16      1.0  0.0010813657951251358  0.0006401955781908942  0.9995431182689585  1.0000
