data_image0
_chemical_formula_structural       CORe18Pt6
_chemical_formula_sum              "C1 O1 Re18 Pt6"
_cell_length_a       9.698299407958984
_cell_length_b       7.1465972644822084
_cell_length_c       98.58638763427734
_cell_angle_alpha    85.45707763039405
_cell_angle_beta     90.0
_cell_angle_gamma    47.271459078708034

_space_group_name_H-M_alt    "P 1"
_space_group_IT_number       1

loop_
  _space_group_symop_operation_xyz
  'x, y, z'

loop_
  _atom_site_type_symbol
  _atom_site_label
  _atom_site_symmetry_multiplicity
  _atom_site_fract_x
  _atom_site_fract_y
  _atom_site_fract_z
  _atom_site_occupancy
  C   C1        1.0  0.006769769007949452  0.0013708874746214854  7.402817004681604e-05  1.0000
  O   O1        1.0  0.006769769007949452  0.0013708874746214854  0.00019574907499782368  1.0000
  Re  Re1       1.0  0.007326581681937772  0.006801730588120069  0.9997184234269912  1.0000
  Re  Re2       1.0  0.0007069108549228556  8.123070347049704e-05  0.9994789309172333  1.0000
  Re  Re3       1.0  0.004030511435364094  0.0033908527750815378  0.999945416607934  1.0000
  Re  Re4       1.0  0.009293088608352085  0.0031662682805934103  0.9999504576028084  1.0000
  Re  Re5       1.0  0.0023860870807125437  0.006738267170731645  0.9997285991504018  1.0000
  Re  Re6       1.0  0.005780822238691818  0.009933406695231791  0.9994896467082869  1.0000
  Re  Re7       1.0  0.0009693017535051349  0.00488749327678355  0.9998512135878388  1.0000
  Re  Re8       1.0  0.0041880684768164445  0.008340652078448047  0.9996051067819121  1.0000
  Re  Re9       1.0  0.007521401998111282  0.0016739850358583727  0.9993634708452409  1.0000
  Re  Re10      1.0  0.005854735220161105  0.006600072638603556  0.9993688290453215  1.0000
  Re  Re11      1.0  0.009151189847949206  6.659410286108321e-05  0.9998492021414801  1.0000
  Re  Re12      1.0  0.002521402321798327  0.003266739295753184  0.999610464609358  1.0000
  Re  Re13      1.0  0.004016930085173843  0.00014217360950804535  0.999847811116432  1.0000
  Re  Re14      1.0  0.007447489480055918  0.003414564118813933  0.9995997485838806  1.0000
  Re  Re15      1.0  0.0007808232388427666  0.006747897461664305  0.9993581130198441  1.0000
  Re  Re16      1.0  0.002330098202295192  0.008531189368853173  0.9999489022761768  1.0000
  Re  Re17      1.0  0.0056872443516777955  0.001774193916097822  0.9997228825727625  1.0000
  Re  Re18      1.0  0.009040243420375755  0.005007318378708744  0.999484288814601  1.0000
  Pt  Pt1       1.0  0.0074994810827273654  0.008338121735922382  0.9999521250729597  1.0000
  Pt  Pt2       1.0  0.0007781122982243518  0.0017519588434313526  0.9997172935101187  1.0000
  Pt  Pt3       1.0  0.004114156583084209  0.005007318378708744  0.999484288814601  1.0000
  Pt  Pt4       1.0  0.005789016421592716  0.005050470533216961  0.9998480777085175  1.0000
  Pt  Pt5       1.0  0.00911415608234377  0.008340652078448047  0.9996051067819121  1.0000
  Pt  Pt6       1.0  0.0024474896958269  0.0016739850358583727  0.9993634708452409  1.0000
