data_image0
_chemical_formula_structural       COCa4Si8Zn8
_chemical_formula_sum              "C1 O1 Ca4 Si8 Zn8"
_cell_length_a       5.967984097251262
_cell_length_b       5.967984199523926
_cell_length_c       106.42868041992188
_cell_angle_alpha    90.0
_cell_angle_beta     90.0
_cell_angle_gamma    118.84968450423891

_space_group_name_H-M_alt    "P 1"
_space_group_IT_number       1

loop_
  _space_group_symop_operation_xyz
  'x, y, z'

loop_
  _atom_site_type_symbol
  _atom_site_label
  _atom_site_symmetry_multiplicity
  _atom_site_fract_x
  _atom_site_fract_y
  _atom_site_fract_z
  _atom_site_occupancy
  C   C1        1.0  0.00025687161870394494  0.0010890282398436947  0.00011683562493996339  1.0000
  O   O1        1.0  0.00025687161870394494  0.0010890282398436947  0.00022958741582328662  1.0000
  Ca  Ca1       1.0  0.00859173031593389  0.0027593436205405764  0.9998623038908387  1.0000
  Ca  Ca2       1.0  0.0035889543549690673  0.007756797885343739  0.9995834063629495  1.0000
  Ca  Ca3       1.0  0.008588954497501465  0.0027567976482534054  0.9992981708276523  1.0000
  Ca  Ca4       1.0  0.0035889543549690673  0.007756797885343739  0.999012935292355  1.0000
  Si  Si1       1.0  0.009743128399112604  0.001602623352989356  0.9995834063629495  1.0000
  Si  Si2       1.0  0.0047231430765287226  0.006628632838007449  0.9998734336267422  1.0000
  Si  Si3       1.0  0.002457682558914911  0.008895388386162014  0.9998735187532886  1.0000
  Si  Si4       1.0  0.007434780595890323  0.003910972021544017  0.9995834063629495  1.0000
  Si  Si5       1.0  0.009743128399112604  0.001602623352989356  0.999012935292355  1.0000
  Si  Si6       1.0  0.0047431286129112  0.006602623605961038  0.9992981708276523  1.0000
  Si  Si7       1.0  0.002434780097026934  0.008910972164726439  0.9992981708276523  1.0000
  Si  Si8       1.0  0.007434780595890323  0.003910972021544017  0.999012935292355  1.0000
  Zn  Zn1       1.0  0.003593444125475944  0.0027607455592788977  0.999999975358105  1.0000
  Zn  Zn2       1.0  0.008588954497501465  0.007756797617042781  0.9997260241305981  1.0000
  Zn  Zn3       1.0  0.008585441073914336  0.007746995383388887  0.0  1.0000
  Zn  Zn4       1.0  0.0035889543549690673  0.002756797682474678  0.9997260241305981  1.0000
  Zn  Zn5       1.0  0.0035889543549690673  0.002756797682474678  0.9994407885953008  1.0000
  Zn  Zn6       1.0  0.008588954497501465  0.007756797617042781  0.9991555530600036  1.0000
  Zn  Zn7       1.0  0.008588954497501465  0.007756797617042781  0.9994407885953008  1.0000
  Zn  Zn8       1.0  0.0035889543549690673  0.002756797682474678  0.9991555530600036  1.0000
