data_image0
_chemical_formula_structural       COCa4Al16Ca4Al16
_chemical_formula_sum              "C1 O1 Ca8 Al32"
_cell_length_a       6.20121955871582
_cell_length_b       12.137015862023768
_cell_length_c       107.20731353759766
_cell_angle_alpha    104.80127226698956
_cell_angle_beta     90.0
_cell_angle_gamma    75.19872773301046

_space_group_name_H-M_alt    "P 1"
_space_group_IT_number       1

loop_
  _space_group_symop_operation_xyz
  'x, y, z'

loop_
  _atom_site_type_symbol
  _atom_site_label
  _atom_site_symmetry_multiplicity
  _atom_site_fract_x
  _atom_site_fract_y
  _atom_site_fract_z
  _atom_site_occupancy
  C   C1        1.0  0.001987698901779965  0.0015751146475162026  0.00019833195255579438  1.0000
  O   O1        1.0  0.001987698901779965  0.0015751146475162026  0.00031026484148586404  1.0000
  Ca  Ca1       1.0  1.045298638959865e-05  0.0005301008081985496  0.9994486210543273  1.0000
  Ca  Ca2       1.0  0.00501045272356799  0.0005301008081985496  0.999159404520746  1.0000
  Ca  Ca3       1.0  0.0075104526832446734  0.005530100888845182  0.9993040126508752  1.0000
  Ca  Ca4       1.0  0.002510452683244673  0.005530100888845182  0.9990147963952817  1.0000
  Al  Al1       1.0  0.0012604530757798068  0.003030100704510022  0.9990871004538489  1.0000
  Al  Al2       1.0  0.006260452775412252  0.003030100704510022  0.9993763167094423  1.0000
  Al  Al3       1.0  0.008078099477601464  0.004394807300131601  0.998981961859209  1.0000
  Al  Al4       1.0  0.0030780993130164994  0.004394807629301529  0.9992711781243226  1.0000
  Al  Al5       1.0  0.00944280599093056  0.0016653942734734077  0.9991922390532487  1.0000
  Al  Al6       1.0  0.00444280599093056  0.0016653942734734077  0.9994814555868299  1.0000
  Al  Al7       1.0  0.006260452775412252  0.003030100704510022  0.9990871004538489  1.0000
  Al  Al8       1.0  0.0012604530757798068  0.003030100704510022  0.9993763167094423  1.0000
  Al  Al9       1.0  0.003760452591077093  0.008030101073180342  0.999231708592308  1.0000
  Al  Al10      1.0  0.008760452591077094  0.008030101073180342  0.9989424923367146  1.0000
  Al  Al11      1.0  0.005578099457851268  0.009394807339631992  0.9994157862437416  1.0000
  Al  Al12      1.0  0.0005780994578512674  0.009394807339631992  0.9991265699881482  1.0000
  Al  Al13      1.0  0.006942806053472847  0.006665394148388835  0.9990476309218342  1.0000
  Al  Al14      1.0  0.0019428060534728464  0.006665394148388835  0.9993368471774278  1.0000
  Al  Al15      1.0  0.008760452591077094  0.008030101073180342  0.999231708592308  1.0000
  Al  Al16      1.0  0.003760452591077093  0.008030101073180342  0.9989424923367146  1.0000
  Ca  Ca5       1.0  0.00998954663118222  0.0005709349962150198  1.0429439720661319e-05  1.0000
  Ca  Ca6       1.0  0.00501045272356799  0.0005301008081985496  0.9997378373099207  1.0000
  Ca  Ca7       1.0  0.007529716908931996  0.005493521222159387  0.9998742231957296  1.0000
  Ca  Ca8       1.0  0.002510452683244673  0.005530100888845182  0.9995932291844565  1.0000
  Al  Al17      1.0  0.0012604530757798068  0.003030100704510022  0.9996655332430235  1.0000
  Al  Al18      1.0  0.006488474663277118  0.0031225461040142424  0.9999660741493559  1.0000
  Al  Al19      1.0  0.008078099477601464  0.004394807300131601  0.9995603946483838  1.0000
  Al  Al20      1.0  0.0030545147402040477  0.004443628796472158  0.9998711186371562  1.0000
  Al  Al21      1.0  0.00944280599093056  0.0016653942734734077  0.9997706718424234  1.0000
  Al  Al22      1.0  0.004390251180924806  0.0017704942817231963  5.120557267096327e-05  1.0000
  Al  Al23      1.0  0.006260452775412252  0.003030100704510022  0.9996655332430235  1.0000
  Al  Al24      1.0  0.0009408466973623774  0.003123008258594379  0.9999660864036665  1.0000
  Al  Al25      1.0  0.003766699635402148  0.008035627836286108  0.9998139962379405  1.0000
  Al  Al26      1.0  0.008760452591077094  0.008030101073180342  0.9995209248479016  1.0000
  Al  Al27      1.0  0.005540952236365707  0.009469899558825922  0.9999918090274803  1.0000
  Al  Al28      1.0  0.0005780994578512674  0.009394807339631992  0.9997050027773229  1.0000
  Al  Al29      1.0  0.006942806053472847  0.006665394148388835  0.999626063711009  1.0000
  Al  Al30      1.0  0.001898858263526866  0.006756214106784284  0.999923833882738  1.0000
  Al  Al31      1.0  0.008749782943003463  0.008035600186012083  0.9998140193451982  1.0000
  Al  Al32      1.0  0.003760452591077093  0.008030101073180342  0.9995209248479016  1.0000
