data_image0
_chemical_formula_structural       COCu6Zn6Cu6Zn6
_chemical_formula_sum              "C1 O1 Cu12 Zn12"
_cell_length_a       8.606307983398438
_cell_length_b       4.9544222482967175
_cell_length_c       101.33274841308594
_cell_angle_alpha    86.20256376739678
_cell_angle_beta     90.0
_cell_angle_gamma    115.73910929856555

_space_group_name_H-M_alt    "P 1"
_space_group_IT_number       1

loop_
  _space_group_symop_operation_xyz
  'x, y, z'

loop_
  _atom_site_type_symbol
  _atom_site_label
  _atom_site_symmetry_multiplicity
  _atom_site_fract_x
  _atom_site_fract_y
  _atom_site_fract_z
  _atom_site_occupancy
  C   C1        1.0  0.0015083118459441618  0.006487792718696499  0.00012027203665877521  1.0000
  O   O1        1.0  0.0015083118459441618  0.006487792718696499  0.00023869342463033288  1.0000
  Cu  Cu1       1.0  0.002045454464607542  0.00863636330156397  0.9994304471119279  1.0000
  Cu  Cu2       1.0  0.004318181797581144  0.007727272559872893  0.9992898986113588  1.0000
  Cu  Cu3       1.0  0.002499999796974519  0.00045454542315798575  0.9997115436345516  1.0000
  Cu  Cu4       1.0  0.004772726951998785  0.009545454043255045  0.9995709953183933  1.0000
  Cu  Cu5       1.0  0.0029545452593668408  0.0022727272727272726  0.9999926406345039  1.0000
  Cu  Cu6       1.0  0.00022727274671663814  0.0013636363217864051  0.999852092428716  1.0000
  Zn  Zn1       1.0  0.0006818181157676494  0.0031818180144183483  0.999360172917252  1.0000
  Zn  Zn2       1.0  0.0029545452593668408  0.0022727272727272726  0.9992196244166829  1.0000
  Zn  Zn3       1.0  0.0011363636453450576  0.004999999916300083  0.9996412696229313  1.0000
  Zn  Zn4       1.0  0.003409090951265173  0.004090909174609007  0.9995007211223623  1.0000
  Zn  Zn5       1.0  0.0015909090667085167  0.006818181818181818  0.9999223663286108  1.0000
  Zn  Zn6       1.0  0.0038636361056828125  0.005909090657991159  0.9997818181235004  1.0000
  Cu  Cu7       1.0  0.007045454041491001  0.00863636330156397  0.9994304471119279  1.0000
  Cu  Cu8       1.0  0.009318181130983217  0.007727272559872893  0.9992898986113588  1.0000
  Cu  Cu9       1.0  0.007499999346804491  0.00045454542315798575  0.9997115436345516  1.0000
  Cu  Cu10      1.0  0.009772726501828756  0.009545454043255045  0.9995709953183933  1.0000
  Cu  Cu11      1.0  0.007954544809196811  0.0022727272727272726  0.9999926406345039  1.0000
  Cu  Cu12      1.0  0.005227272729402406  0.0013636363217864051  0.999852092428716  1.0000
  Zn  Zn7       1.0  0.005681817719704596  0.0031818180144183483  0.999360172917252  1.0000
  Zn  Zn8       1.0  0.007954544809196811  0.0022727272727272726  0.9992196244166829  1.0000
  Zn  Zn9       1.0  0.006136363628030826  0.004999999916300083  0.9996412696229313  1.0000
  Zn  Zn10      1.0  0.008409090284667247  0.004090909174609007  0.9995007211223623  1.0000
  Zn  Zn11      1.0  0.006590908670645462  0.006818181818181818  0.9999223663286108  1.0000
  Zn  Zn12      1.0  0.008863635655512785  0.005909090657991159  0.9997818181235004  1.0000
