data_image0
_chemical_formula_structural       COTi4Se4Ti4Se4Ti4Se4
_chemical_formula_sum              "C1 O1 Ti12 Se12"
_cell_length_a       7.204873003496044
_cell_length_b       6.528692722320557
_cell_length_c       105.02848815917969
_cell_angle_alpha    90.0
_cell_angle_beta     60.91033868372075
_cell_angle_gamma    90.0

_space_group_name_H-M_alt    "P 1"
_space_group_IT_number       1

loop_
  _space_group_symop_operation_xyz
  'x, y, z'

loop_
  _atom_site_type_symbol
  _atom_site_label
  _atom_site_symmetry_multiplicity
  _atom_site_fract_x
  _atom_site_fract_y
  _atom_site_fract_z
  _atom_site_occupancy
  C   C1        1.0  0.005617565288530386  0.005147298805637972  0.9997984562497587  1.0000
  O   O1        1.0  0.005617565288530386  0.005147298805637972  0.9999127111964786  1.0000
  Ti  Ti1       1.0  0.002790235626950295  0.004998716120892856  0.9995752075338096  1.0000
  Ti  Ti2       1.0  0.0019562741055606527  0.009895290918318821  0.9996096855918652  1.0000
  Ti  Ti3       1.0  0.006955045698487418  0.005147298805637972  0.9996097394774904  1.0000
  Ti  Ti4       1.0  0.007789518881116869  4.360180105989788e-05  0.9995752398147343  1.0000
  Se  Se1       1.0  0.001101280629831668  0.007322311117876786  0.9997964332116435  1.0000
  Se  Se2       1.0  0.009148536693940688  0.002716525489036721  0.99970075481351  1.0000
  Se  Se3       1.0  0.006101215479187997  0.007720594720027029  0.9997965158346293  1.0000
  Se  Se4       1.0  0.004147736650426614  0.0023254012401234593  0.9997008185204  1.0000
  Ti  Ti5       1.0  0.003059818233597455  0.004956397935392937  0.9992258074635822  1.0000
  Ti  Ti6       1.0  0.0019401817013169874  0.009956397912568825  0.9992631489254707  1.0000
  Ti  Ti7       1.0  0.006940181932074876  0.005085489969953244  0.9992631487815724  1.0000
  Ti  Ti8       1.0  0.008059818020590174  8.549019783773404e-05  0.9992258073344841  1.0000
  Se  Se5       1.0  0.000798222227859815  0.007183501147158113  0.9994679918244737  1.0000
  Se  Se6       1.0  0.009201777863851655  0.0028583876140922566  0.9993544788615653  1.0000
  Se  Se7       1.0  0.0057982220888133955  0.007858387305966748  0.9994679922604182  1.0000
  Se  Se8       1.0  0.004201777781015489  0.0021835008846808287  0.9993544784330208  1.0000
  Ti  Ti9       1.0  0.003059818233597455  0.004956397935392937  0.9988922933089195  1.0000
  Ti  Ti10      1.0  0.0019401817013169874  0.009956397912568825  0.998929634770808  1.0000
  Ti  Ti11      1.0  0.006940181932074876  0.005085489969953244  0.9989296349106642  1.0000
  Ti  Ti12      1.0  0.008059818020590174  8.549019783773404e-05  0.998892293463576  1.0000
  Se  Se9       1.0  0.000798222227859815  0.007183501147158113  0.9991344779535655  1.0000
  Se  Se10      1.0  0.009201777863851655  0.0028583876140922566  0.9990209644231478  1.0000
  Se  Se11      1.0  0.0057982220888133955  0.007858387305966748  0.9991344778220006  1.0000
  Se  Se12      1.0  0.004201777781015489  0.0021835008846808287  0.9990209645621126  1.0000
