data_image0
_chemical_formula_structural       HMn8Si8Rh8Mn8Si8Rh8
_chemical_formula_sum              "H1 Mn16 Si16 Rh16"
_cell_length_a       7.120223522186279
_cell_length_b       12.354730892413007
_cell_length_c       100.02825164794922
_cell_angle_alpha    107.68678291626387
_cell_angle_beta     90.0
_cell_angle_gamma    90.0

_space_group_name_H-M_alt    "P 1"
_space_group_IT_number       1

loop_
  _space_group_symop_operation_xyz
  'x, y, z'

loop_
  _atom_site_type_symbol
  _atom_site_label
  _atom_site_symmetry_multiplicity
  _atom_site_fract_x
  _atom_site_fract_y
  _atom_site_fract_z
  _atom_site_occupancy
  H   H1        1.0  0.008762349619355927  0.0028188645719414793  8.945836692860997e-05  1.0000
  Mn  Mn1       1.0  0.0018408974819904193  0.0026518708477374715  0.9997900625542382  1.0000
  Mn  Mn2       1.0  0.0018408974819904193  0.007651870676834338  0.999602439029445  1.0000
  Mn  Mn3       1.0  0.006840897356422779  0.004848129133273291  0.9996848529743229  1.0000
  Mn  Mn4       1.0  0.006840897356422779  0.0098481291206138  0.9994972294554678  1.0000
  Mn  Mn5       1.0  0.003217285466931812  0.00015187079472585134  0.9996962507692237  1.0000
  Mn  Mn6       1.0  0.003217285466931812  0.005151870841407726  0.9995086272525954  1.0000
  Mn  Mn7       1.0  0.008217285602963424  0.0023481291396030375  0.9995910411915353  1.0000
  Mn  Mn8       1.0  0.008217285602963424  0.007348128968699904  0.9997786647511725  1.0000
  Si  Si1       1.0  0.0038063162080501116  0.0036794583771317976  0.9996409989393616  1.0000
  Si  Si2       1.0  0.0038063162080501116  0.008679458047985023  0.9994533754086304  1.0000
  Si  Si3       1.0  0.0012518667408721199  0.0011794583834615433  0.9995471871565741  1.0000
  Si  Si4       1.0  0.0012518667408721199  0.006179458529045694  0.9997348107280873  1.0000
  Si  Si5       1.0  0.006251866353705227  0.0013205416102087112  0.9997401048064117  1.0000
  Si  Si6       1.0  0.006251866353705227  0.00632054159754922  0.9995524812875566  1.0000
  Si  Si7       1.0  0.00880631608248247  0.0038205414456353236  0.9994586694988309  1.0000
  Si  Si8       1.0  0.00880631608248247  0.008820541749463116  0.9996462930762823  1.0000
  Rh  Rh1       1.0  0.0043901905663073825  0.0016912238602771331  0.9995663910093223  1.0000
  Rh  Rh2       1.0  0.0043901905663073825  0.006691224164104926  0.9997540145867737  1.0000
  Rh  Rh3       1.0  0.000667992709613914  0.00419122401219103  0.999660202798048  1.0000
  Rh  Rh4       1.0  0.000667992709613914  0.009191223683044255  0.9994725792673168  1.0000
  Rh  Rh5       1.0  0.009390189917541238  0.0008087761333931213  0.9997209009536634  1.0000
  Rh  Rh6       1.0  0.009390189917541238  0.005808775962489988  0.9995332774288702  1.0000
  Rh  Rh7       1.0  0.00566799251864646  0.0033087761270633757  0.9994394656520206  1.0000
  Rh  Rh8       1.0  0.00566799251864646  0.008308776114403884  0.9996270892175959  1.0000
  Mn  Mn9       1.0  0.0006098095043244157  0.0024953006322332282  9.363544059744941e-05  1.0000
  Mn  Mn10      1.0  0.0021548825076976312  0.007610602000945026  0.9999877768056217  1.0000
  Mn  Mn11      1.0  0.007009458834607728  0.004127651527933766  7.220549021001809e-05  1.0000
  Mn  Mn12      1.0  0.00687038953292253  0.009784451246090953  0.9998513746858702  1.0000
  Mn  Mn13      1.0  0.00245986407194028  0.009373498837514356  7.071548585474777e-05  1.0000
  Mn  Mn14      1.0  0.0030996204776646643  0.0050511275586148634  0.9998623704738933  1.0000
  Mn  Mn15      1.0  0.008762349619355927  0.002371806819270995  0.9999576972473131  1.0000
  Mn  Mn16      1.0  0.0076182756351696815  0.005652509733022062  0.000124145877054973  1.0000
  Si  Si9       1.0  0.0036600000838791845  0.0037056065565389497  2.6814011575318833e-05  1.0000
  Si  Si10      1.0  0.0038063162080501116  0.008679458047985023  0.9998286224930609  1.0000
  Si  Si11      1.0  0.0016440556858417497  0.0010460089091271732  0.9999157661734198  1.0000
  Si  Si12      1.0  0.0010106673907147987  0.0064895863175974304  0.00012813998845786952  1.0000
  Si  Si13      1.0  0.005438569974426392  0.00038246610023679936  7.783142084756014e-05  1.0000
  Si  Si14      1.0  0.00598922070444987  0.00618723715351276  0.9999339766374667  1.0000
  Si  Si15      1.0  0.00880631608248247  0.0038205414456353236  0.9998339165832613  1.0000
  Si  Si16      1.0  0.009152759297011403  0.008409241204874079  1.9141357162234594e-05  1.0000
  Rh  Rh9       1.0  0.0046983639030266896  0.001785114085665097  0.9999659672752951  1.0000
  Rh  Rh10      1.0  0.004137370061767895  0.005750479637744907  0.00011232516782457302  1.0000
  Rh  Rh11      1.0  0.0007082820028512561  0.0044343049190813414  4.867255483594689e-05  1.0000
  Rh  Rh12      1.0  0.000667992709613914  0.009191223683044255  0.9998478263517473  1.0000
  Rh  Rh13      1.0  0.008819685897066278  0.0004959530995696138  7.772458497263078e-05  1.0000
  Rh  Rh14      1.0  0.009343874293129521  0.005874925602701167  0.9999096809308007  1.0000
  Rh  Rh15      1.0  0.00566799251864646  0.0033087761270633757  0.9998147127364511  1.0000
  Rh  Rh16      1.0  0.005860828837844359  0.008312082773547506  5.2627981778124235e-06  1.0000
