data_image0
_chemical_formula_structural       COV2Fe2V2Fe2V2Fe2V2Fe2V2Fe2V2Fe2V2Fe2V2Fe2
_chemical_formula_sum              "C1 O1 V16 Fe16"
_cell_length_a       5.747210502624512
_cell_length_b       8.127782821655273
_cell_length_c       98.4472427368164
_cell_angle_alpha    90.0
_cell_angle_beta     90.0
_cell_angle_gamma    90.0

_space_group_name_H-M_alt    "P 1"
_space_group_IT_number       1

loop_
  _space_group_symop_operation_xyz
  'x, y, z'

loop_
  _atom_site_type_symbol
  _atom_site_label
  _atom_site_symmetry_multiplicity
  _atom_site_fract_x
  _atom_site_fract_y
  _atom_site_fract_z
  _atom_site_occupancy
  C   C1        1.0  0.0025000044206628285  0.0024999996699949945  0.00017593701198503341  1.0000
  O   O1        1.0  0.0025000044206628285  0.0024999996699949945  0.00029782935127715927  1.0000
  V   V1        1.0  0.0025000003694688874  0.002500000357505423  0.9995805677133734  1.0000
  V   V2        1.0  0.0025000003694688874  1.5000001494242623e-10  0.9993741682118981  1.0000
  Fe  Fe1       1.0  3.500000279211214e-10  0.002500000357505423  0.9993741682118981  1.0000
  Fe  Fe2       1.0  3.500000279211214e-10  1.5000001494242623e-10  0.9995805677133734  1.0000
  V   V3        1.0  0.0025000044206628285  0.0024999996699949945  0.0  1.0000
  V   V4        1.0  0.002500000693564403  0.01000000051334112  0.9997910309789992  1.0000
  Fe  Fe3       1.0  0.010000000181493489  0.0024999998991651375  0.9997928300664802  1.0000
  Fe  Fe4       1.0  2.9499999814467346e-09  0.01000000051334112  0.9999768337592843  1.0000
  V   V5        1.0  0.0025000003694688874  0.00750000038500584  0.9995805677133734  1.0000
  V   V6        1.0  0.0025000003694688874  0.00500000025667056  0.9993741682118981  1.0000
  Fe  Fe5       1.0  3.500000279211214e-10  0.00750000038500584  0.9993741682118981  1.0000
  Fe  Fe6       1.0  3.500000279211214e-10  0.00500000025667056  0.9995805677133734  1.0000
  V   V7        1.0  0.0025000044206628285  0.0074999999266655544  0.0  1.0000
  V   V8        1.0  0.002500000693564403  0.00500000025667056  0.9997910309789992  1.0000
  Fe  Fe7       1.0  0.010000000181493489  0.0074999999266655544  0.9997928300664802  1.0000
  Fe  Fe8       1.0  2.9499999814467346e-09  0.00500000025667056  0.9999768337592843  1.0000
  V   V9        1.0  0.00750000062226339  0.002500000357505423  0.9995805677133734  1.0000
  V   V10       1.0  0.00750000062226339  1.5000001494242623e-10  0.9993741682118981  1.0000
  Fe  Fe9       1.0  0.00500000041484226  0.002500000357505423  0.9993741682118981  1.0000
  Fe  Fe10      1.0  0.00500000041484226  1.5000001494242623e-10  0.9995805677133734  1.0000
  V   V11       1.0  0.007500004511409573  0.0024999996699949945  0.0  1.0000
  V   V12       1.0  0.00750000062226339  0.01000000051334112  0.9997910309789992  1.0000
  Fe  Fe11      1.0  0.004999999766651229  0.0024999998991651375  0.9997928300664802  1.0000
  Fe  Fe12      1.0  0.005000003007606382  0.01000000051334112  0.9999768337592843  1.0000
  V   V13       1.0  0.00750000062226339  0.00750000038500584  0.9995805677133734  1.0000
  V   V14       1.0  0.00750000062226339  0.00500000025667056  0.9993741682118981  1.0000
  Fe  Fe13      1.0  0.00500000041484226  0.00750000038500584  0.9993741682118981  1.0000
  Fe  Fe14      1.0  0.00500000041484226  0.00500000025667056  0.9995805677133734  1.0000
  V   V15       1.0  0.007500004511409573  0.0074999999266655544  0.0  1.0000
  V   V16       1.0  0.00750000062226339  0.00500000025667056  0.9997910309789992  1.0000
  Fe  Fe15      1.0  0.004999999766651229  0.0074999999266655544  0.9997928300664802  1.0000
  Fe  Fe16      1.0  0.005000003007606382  0.00500000025667056  0.9999768337592843  1.0000
