data_image0
_chemical_formula_structural       Cu2Ni2Sb4Cu2Ni2Sb4H
_chemical_formula_sum              "Cu4 Ni4 Sb8 H1"
_cell_length_a       7.177793979644775
_cell_length_b       6.646222585592686
_cell_length_c       103.1528091430664
_cell_angle_alpha    108.16554804838839
_cell_angle_beta     90.0
_cell_angle_gamma    57.317008546652595

_space_group_name_H-M_alt    "P 1"
_space_group_IT_number       1

loop_
  _space_group_symop_operation_xyz
  'x, y, z'

loop_
  _atom_site_type_symbol
  _atom_site_label
  _atom_site_symmetry_multiplicity
  _atom_site_fract_x
  _atom_site_fract_y
  _atom_site_fract_z
  _atom_site_occupancy
  Cu  Cu1       1.0  0.0001478254558753187  9.348599349364761e-06  0.9997894785381063  1.0000
  Cu  Cu2       1.0  0.005147825650501114  9.348599349364761e-06  0.9995886062434075  1.0000
  Ni  Ni1       1.0  0.007647825191445511  0.005009348479456328  0.9994881702092154  1.0000
  Ni  Ni2       1.0  0.002647825710447632  0.005009348479456328  0.999689042215  1.0000
  Sb  Sb1       1.0  0.0004434763787869014  0.002751380043609356  0.9996436859631765  1.0000
  Sb  Sb2       1.0  0.005443476249036371  0.002751380043609356  0.9998445582578754  1.0000
  Sb  Sb3       1.0  0.004852174563238057  0.00726731709454073  0.9997343984704239  1.0000
  Sb  Sb4       1.0  0.009852174563238057  0.00726731709454073  0.9995335264646393  1.0000
  Cu  Cu3       1.0  0.00018290589642655579  0.009990651319797752  0.00016782593508528077  1.0000
  Cu  Cu4       1.0  0.005136918959642257  0.009981735333090023  0.9999861965186108  1.0000
  Ni  Ni3       1.0  0.007647825191445511  0.005009348479456328  0.9998899145096989  1.0000
  Ni  Ni4       1.0  0.002700131626799813  0.004908796281341257  7.965579121527483e-05  1.0000
  Sb  Sb5       1.0  0.00035507561882162377  0.0029211542748235984  4.8662291586879346e-05  1.0000
  Sb  Sb6       1.0  0.0056647428763460725  0.0028543065999569236  0.0002246886251293218  1.0000
  Sb  Sb7       1.0  0.004760996414998172  0.007284869457565708  0.0001463325918879395  1.0000
  Sb  Sb8       1.0  0.009852174563238057  0.00726731709454073  0.9999352707651228  1.0000
  H   H1        1.0  0.0025480114322331336  0.007394772113918332  0.00027668701324956986  1.0000
