data_image0
_chemical_formula_structural       COAu4In4Pd8
_chemical_formula_sum              "C1 O1 Au4 In4 Pd8"
_cell_length_a       4.635605812072754
_cell_length_b       4.635605812072754
_cell_length_c       109.33441925048828
_cell_angle_alpha    90.0
_cell_angle_beta     90.0
_cell_angle_gamma    90.0

_space_group_name_H-M_alt    "P 1"
_space_group_IT_number       1

loop_
  _space_group_symop_operation_xyz
  'x, y, z'

loop_
  _atom_site_type_symbol
  _atom_site_label
  _atom_site_symmetry_multiplicity
  _atom_site_fract_x
  _atom_site_fract_y
  _atom_site_fract_z
  _atom_site_occupancy
  C   C1        1.0  0.009999999517824796  0.004999999758912398  0.00015841775942120265  1.0000
  O   O1        1.0  0.009999999517824796  0.004999999758912398  0.0002681729893017645  1.0000
  Au  Au1       1.0  1.500000052123079e-10  0.005000000160725068  0.9993993765020658  1.0000
  Au  Au2       1.0  0.005000000160725068  1.500000052123079e-10  0.9990995742042021  1.0000
  Au  Au3       1.0  0.009999999517824796  0.004999999758912398  0.0  1.0000
  Au  Au4       1.0  0.005000000160725068  1.500000052123079e-10  0.9996991785273498  1.0000
  In  In1       1.0  0.005000000160725068  1.500000052123079e-10  0.9993993765020658  1.0000
  In  In2       1.0  1.500000052123079e-10  0.005000000160725068  0.9990995742042021  1.0000
  In  In3       1.0  0.005000000562537739  0.009999999517824796  0.9999923672285707  1.0000
  In  In4       1.0  1.500000052123079e-10  0.005000000160725068  0.9996991785273498  1.0000
  Pd  Pd1       1.0  0.005000000160725068  0.005000000160725068  0.9992494752168442  1.0000
  Pd  Pd2       1.0  0.005000000160725068  0.005000000160725068  0.9989496731915601  1.0000
  Pd  Pd3       1.0  1.500000052123079e-10  1.500000052123079e-10  0.9989496731915601  1.0000
  Pd  Pd4       1.0  1.500000052123079e-10  1.500000052123079e-10  0.9992494752168442  1.0000
  Pd  Pd5       1.0  0.005000000160725068  0.004999999758912398  0.9998515297572041  1.0000
  Pd  Pd6       1.0  0.005000000160725068  0.005000000160725068  0.9995492772421283  1.0000
  Pd  Pd7       1.0  1.500000052123079e-10  1.500000052123079e-10  0.9995492772421283  1.0000
  Pd  Pd8       1.0  6.499999906534655e-10  0.009999999517824796  0.9998515308475222  1.0000
