data_image0
_chemical_formula_structural       HSc18
_chemical_formula_sum              "H1 Sc18"
_cell_length_a       6.224899396132828
_cell_length_b       7.830342801003785
_cell_length_c       102.46797943115234
_cell_angle_alpha    92.37676155817807
_cell_angle_beta     95.01361206605603
_cell_angle_gamma    102.49194769146769

_space_group_name_H-M_alt    "P 1"
_space_group_IT_number       1

loop_
  _space_group_symop_operation_xyz
  'x, y, z'

loop_
  _atom_site_type_symbol
  _atom_site_label
  _atom_site_symmetry_multiplicity
  _atom_site_fract_x
  _atom_site_fract_y
  _atom_site_fract_z
  _atom_site_occupancy
  H   H1        1.0  0.006984084349756508  0.005810856124700393  0.0001911703085013942  1.0000
  Sc  Sc1       1.0  0.00969444415581842  0.006388888750015156  0.9993160510426986  1.0000
  Sc  Sc2       1.0  0.0060277772228386674  0.0030555554785240313  0.9994216708511576  1.0000
  Sc  Sc3       1.0  0.003361111015675499  0.009722222265620264  0.9992104311997235  1.0000
  Sc  Sc4       1.0  0.008638888446166526  0.0002777777929670925  0.9992984476379906  1.0000
  Sc  Sc5       1.0  0.004972222074229681  0.0069444443359493405  0.9994040675942629  1.0000
  Sc  Sc6       1.0  0.0023055554632510507  0.0036111110644582163  0.9991928277950766  1.0000
  Sc  Sc7       1.0  0.008694443833817298  0.006388888750015156  0.9996329109411892  1.0000
  Sc  Sc8       1.0  0.005027777501585909  0.0030555554785240313  0.9997385307528377  1.0000
  Sc  Sc9       1.0  0.0023611110691421034  0.009722222265620264  0.9995272908093623  1.0000
  Sc  Sc10      1.0  0.007638888724913769  0.0002777777929670925  0.9996153072488254  1.0000
  Sc  Sc11      1.0  0.003972222052602739  0.0069444443359493405  0.9997209274943483  1.0000
  Sc  Sc12      1.0  0.0013055554791708821  0.0036111110644582163  0.9995096876953613  1.0000
  Sc  Sc13      1.0  0.007694444112564538  0.006388888750015156  0.9999497708428693  1.0000
  Sc  Sc14      1.0  0.004027777479958968  0.0030555554785240313  5.5390362077815514e-05  1.0000
  Sc  Sc15      1.0  0.0013611110475151623  0.009722222265620264  0.9998441504186024  1.0000
  Sc  Sc16      1.0  0.00663888900366101  0.0002777777929670925  0.9999321674413506  1.0000
  Sc  Sc17      1.0  0.0029722221060693435  0.0069444443359493405  3.7787103987053054e-05  1.0000
  Sc  Sc18      1.0  0.00030555549509071387  0.0036111110644582163  0.9998265475956459  1.0000
