data_image0
_chemical_formula_structural       COGe8Mo4
_chemical_formula_sum              "C1 O1 Ge8 Mo4"
_cell_length_a       4.788014080630309
_cell_length_b       4.749674320220947
_cell_length_c       98.94804382324219
_cell_angle_alpha    90.0
_cell_angle_beta     94.21310387804968
_cell_angle_gamma    90.0

_space_group_name_H-M_alt    "P 1"
_space_group_IT_number       1

loop_
  _space_group_symop_operation_xyz
  'x, y, z'

loop_
  _atom_site_type_symbol
  _atom_site_label
  _atom_site_symmetry_multiplicity
  _atom_site_fract_x
  _atom_site_fract_y
  _atom_site_fract_z
  _atom_site_occupancy
  C   C1        1.0  0.00048080830894220813  0.001666666807845242  0.0001418983012964079  1.0000
  O   O1        1.0  0.00048080830894220813  0.001666666807845242  0.00026317371261718825  1.0000
  Ge  Ge1       1.0  0.001662048677327046  5.0000002340561396e-11  0.9994819073916337  1.0000
  Ge  Ge2       1.0  0.003804905761115448  0.005000000423535726  0.999272937387395  1.0000
  Ge  Ge3       1.0  0.006591067212356148  5.0000002340561396e-11  0.9993470384006344  1.0000
  Ge  Ge4       1.0  0.004448209933529451  0.005000000423535726  0.9995560084041798  1.0000
  Ge  Ge5       1.0  0.0074215207714474225  0.010000000062746033  0.9999067511955327  1.0000
  Ge  Ge6       1.0  0.009519191187858989  0.005000000423535726  0.9996908771745603  1.0000
  Ge  Ge7       1.0  0.0022578939862197738  2.5000000585912724e-10  0.9997548522982288  1.0000
  Ge  Ge8       1.0  0.0005433139868970714  0.005000000423535726  0.9999828600126349  1.0000
  Mo  Mo1       1.0  0.006983701145809107  5.0000002340561396e-11  0.999623442942046  1.0000
  Mo  Mo2       1.0  0.009126558034559213  0.005000000423535726  0.9994144729371139  1.0000
  Mo  Mo3       1.0  0.0026781424167637716  0.010000000062746033  9.520723754671185e-06  1.0000
  Mo  Mo4       1.0  0.004813284955805633  0.005000000423535726  0.9998269462336428  1.0000
