data_image0
_chemical_formula_structural       COSb4Os2Sb4Os2Sb4Os2
_chemical_formula_sum              "C1 O1 Sb12 Os6"
_cell_length_a       6.793758392333984
_cell_length_b       6.869960985813302
_cell_length_c       37.30878448486328
_cell_angle_alpha    61.584811248557486
_cell_angle_beta     90.0
_cell_angle_gamma    90.0

_space_group_name_H-M_alt    "P 1"
_space_group_IT_number       1

loop_
  _space_group_symop_operation_xyz
  'x, y, z'

loop_
  _atom_site_type_symbol
  _atom_site_label
  _atom_site_symmetry_multiplicity
  _atom_site_fract_x
  _atom_site_fract_y
  _atom_site_fract_z
  _atom_site_occupancy
  C   C1        1.0  0.0031517959560258242  0.008947003321011806  0.9998432253408321  1.0000
  O   O1        1.0  0.0031517959560258242  0.008947003321011806  0.00016486526242334587  1.0000
  Sb  Sb1       1.0  0.0028619940895602777  0.007812723186277334  0.9993154228195317  1.0000
  Sb  Sb2       1.0  0.009348705555848782  0.0030482609127978413  0.9988407964965028  1.0000
  Sb  Sb3       1.0  0.006954356484177202  0.008048418992802009  0.9988408153159908  1.0000
  Sb  Sb4       1.0  0.0034415975483213105  0.0028094201526801294  0.9993153464711642  1.0000
  Os  Os1       1.0  0.005647492538889509  0.004953393464730945  0.9986391432314651  1.0000
  Os  Os2       1.0  0.0006549031006458024  0.009953856422122244  0.9986391772736591  1.0000
  Sb  Sb5       1.0  0.0020748670623951045  0.0068648116080933805  0.9984835964131822  1.0000
  Sb  Sb6       1.0  0.009227721984925963  0.0032274764108134813  0.9979260784032777  1.0000
  Sb  Sb7       1.0  0.007074866837575655  0.008227476657428153  0.9979260783017883  1.0000
  Sb  Sb8       1.0  0.004227721524320261  0.00186481120734454  0.9984835965281773  1.0000
  Os  Os3       1.0  0.005651294180947958  0.005046144009453431  0.9977667206086648  1.0000
  Os  Os4       1.0  0.0006512943372248929  4.6143700221753446e-05  0.9977667207156409  1.0000
  Sb  Sb9       1.0  0.0020748670623951045  0.0068648116080933805  0.9976073628140519  1.0000
  Sb  Sb10      1.0  0.009227721984925963  0.0032274764108134813  0.9970498448041475  1.0000
  Sb  Sb11      1.0  0.007074866837575655  0.008227476657428153  0.997049844702658  1.0000
  Sb  Sb12      1.0  0.004227721524320261  0.00186481120734454  0.9976073629290471  1.0000
  Os  Os5       1.0  0.005651294180947958  0.005046144009453431  0.9968904870095345  1.0000
  Os  Os6       1.0  0.0006512943372248929  4.6143700221753446e-05  0.9968904871165106  1.0000
