data_image0
_chemical_formula_structural       HSn32Au16
_chemical_formula_sum              "H1 Sn32 Au16"
_cell_length_a       10.121794831514206
_cell_length_b       14.130644181456612
_cell_length_c       110.4871826171875
_cell_angle_alpha    110.50050446881583
_cell_angle_beta     88.73049885548294
_cell_angle_gamma    69.49949560423971

_space_group_name_H-M_alt    "P 1"
_space_group_IT_number       1

loop_
  _space_group_symop_operation_xyz
  'x, y, z'

loop_
  _atom_site_type_symbol
  _atom_site_label
  _atom_site_symmetry_multiplicity
  _atom_site_fract_x
  _atom_site_fract_y
  _atom_site_fract_z
  _atom_site_occupancy
  H   H1        1.0  0.006525681631321373  0.005200553275083769  0.0002350032625289835  1.0000
  Sn  Sn1       1.0  0.007861759214609406  0.0032517574224411733  0.9997862783806266  1.0000
  Sn  Sn2       1.0  0.0028617586550415074  0.0032517574224411733  0.9993282252923948  1.0000
  Sn  Sn3       1.0  0.0008251668365843163  0.006862333023875699  0.9999293119256939  1.0000
  Sn  Sn4       1.0  0.00584949634666862  0.006748242492273436  0.9994641958139263  1.0000
  Sn  Sn5       1.0  0.007395216592194483  0.0017482425349161315  0.9993709657273672  1.0000
  Sn  Sn6       1.0  0.0023952167689001358  0.0017482425349161315  0.9998290184967393  1.0000
  Sn  Sn7       1.0  0.0037421146124647676  0.008261625660995893  0.0001086483864446369  1.0000
  Sn  Sn8       1.0  0.008879439320148884  0.008251757532093819  0.9996446738567843  1.0000
  Sn  Sn9       1.0  0.007131196192138349  0.006748242492273436  0.9998048313006662  1.0000
  Sn  Sn10      1.0  0.002131196368844001  0.006748242492273436  0.9993467784806757  1.0000
  Sn  Sn11      1.0  0.004143459236784788  0.0032517574224411733  0.999668861047376  1.0000
  Sn  Sn12      1.0  0.008561725634209013  0.0031183299514183226  9.881908390992847e-05  1.0000
  Sn  Sn13      1.0  0.007597738738405602  0.008251757532093819  0.9993040383715388  1.0000
  Sn  Sn14      1.0  0.002597738178837702  0.008251757532093819  0.9997620911424054  1.0000
  Sn  Sn15      1.0  0.0011135161871568546  0.0017482425349161315  0.9994883830114938  1.0000
  Sn  Sn16      1.0  0.006169824030852818  0.0018509747277066523  0.9999668114724792  1.0000
  Sn  Sn17      1.0  0.006524749284193102  0.0008807808381202967  0.9996540297524168  1.0000
  Sn  Sn18      1.0  0.0015204642923117631  0.0009337039259321626  9.619517663690714e-05  1.0000
  Sn  Sn19      1.0  0.004922113203889614  0.009119219000446642  0.999803886895797  1.0000
  Sn  Sn20      1.0  0.009922113763457514  0.009119219000446642  0.9993458338551949  1.0000
  Sn  Sn21      1.0  0.0009516227751531007  0.004119219195384678  0.999706533955668  1.0000
  Sn  Sn22      1.0  0.005354941778792825  0.00443294120101558  0.00018768486078084897  1.0000
  Sn  Sn23      1.0  0.007850172192776722  0.005946782778713827  2.940908906776452e-05  1.0000
  Sn  Sn24      1.0  0.0025874254139499823  0.005880781023920613  0.9995597158996796  1.0000
  Sn  Sn25      1.0  0.008341123955030394  0.00900697246083071  0.999956860534569  1.0000
  Sn  Sn26      1.0  0.0034682063373341417  0.009119219000446642  0.9994790271053975  1.0000
  Sn  Sn27      1.0  7.084195010392366e-05  0.0008807808381202967  0.9997872232721682  1.0000
  Sn  Sn28      1.0  0.005070842049500854  0.0008807808381202967  0.9993291699627644  1.0000
  Sn  Sn29      1.0  0.004041332280505456  0.005880781023920613  0.9998845756900792  1.0000
  Sn  Sn30      1.0  0.009041332103799803  0.005880781023920613  0.9994265226509714  1.0000
  Sn  Sn31      1.0  0.007405530017208084  0.004119219195384678  0.9995733409755746  1.0000
  Sn  Sn32      1.0  0.0028458359522752223  0.003692184582752288  8.329367221360911e-05  1.0000
  Au  Au1       1.0  0.009929158048983233  0.0037194999704863816  0.9999264868879615  1.0000
  Au  Au2       1.0  0.004963266760430974  0.0038284803842236494  0.9994673707431982  1.0000
  Au  Au3       1.0  0.00990733912508072  0.0061715195304909605  0.9996768946349036  1.0000
  Au  Au4       1.0  0.005101086156132467  0.006200046884547091  0.0001223127735925076  1.0000
  Au  Au5       1.0  0.008914095862585654  0.0011715195731336555  0.9995634858029384  1.0000
  Au  Au6       1.0  0.003928062800167191  0.00127262167274399  2.326413490019618e-05  1.0000
  Au  Au7       1.0  0.0011538359180353526  0.008951725193822991  2.0845410087211955e-05  1.0000
  Au  Au8       1.0  0.006201207516703388  0.008828480493876295  0.9995583623324117  1.0000
  Au  Au9       1.0  0.005029688086748881  0.0061715195304909605  0.9996656861195984  1.0000
  Au  Au10      1.0  0.0007495181554018027  0.005518016568056612  5.386262145889289e-05  1.0000
  Au  Au11      1.0  0.005090837071997113  0.003820159271393358  0.9999123438821382  1.0000
  Au  Au12      1.0  8.561535396236006e-05  0.0038284803842236494  0.9994561622286402  1.0000
  Au  Au13      1.0  0.005868197617708135  0.008792246995575998  2.9800773292014785e-05  1.0000
  Au  Au14      1.0  0.0010788592765833068  0.008828480493876295  0.9995695707963514  1.0000
  Au  Au15      1.0  0.003791747254328798  0.0011715195731336555  0.9995746942676254  1.0000
  Au  Au16      1.0  0.008871330543575333  0.000915370688955076  2.1564610091788872e-05  1.0000
