data_image0
_chemical_formula_structural       HAl6Co12Si12
_chemical_formula_sum              "H1 Al6 Co12 Si12"
_cell_length_a       8.277461957953948
_cell_length_b       6.106610140050016
_cell_length_c       99.97631072998047
_cell_angle_alpha    93.79947305796425
_cell_angle_beta     90.80425858028393
_cell_angle_gamma    88.02568972273286

_space_group_name_H-M_alt    "P 1"
_space_group_IT_number       1

loop_
  _space_group_symop_operation_xyz
  'x, y, z'

loop_
  _atom_site_type_symbol
  _atom_site_label
  _atom_site_symmetry_multiplicity
  _atom_site_fract_x
  _atom_site_fract_y
  _atom_site_fract_z
  _atom_site_occupancy
  H   H1        1.0  0.0033954442836455745  0.009974048526293973  0.0001483970718537454  1.0000
  Al  Al1       1.0  0.0002843892399135534  0.0010213142973253327  0.9997841633700946  1.0000
  Al  Al2       1.0  0.006951055845032272  0.00935464768543542  3.402492155437906e-05  1.0000
  Al  Al3       1.0  0.003617722598766768  0.005187980721329828  0.9999090944428908  1.0000
  Al  Al4       1.0  0.0002843892399135534  0.008521314178105054  0.9994093706461828  1.0000
  Al  Al5       1.0  0.006951055845032272  0.006854647954445279  0.9996592325092316  1.0000
  Al  Al6       1.0  0.003617722598766768  0.0026879809903396896  0.9995343014343803  1.0000
  Co  Co1       1.0  0.0008531678323283712  0.004192618617397067  0.9999304115068421  1.0000
  Co  Co2       1.0  0.0075198345500348  2.5951778741408126e-05  0.9998054809541209  1.0000
  Co  Co3       1.0  0.004186501078593875  0.00835928497011661  5.5342579218880846e-05  1.0000
  Co  Co4       1.0  0.006382277590380587  0.006183343426372033  0.9998877767854463  1.0000
  Co  Co5       1.0  0.003048944118939661  0.0020166767782360717  0.9997628457116122  1.0000
  Co  Co6       1.0  0.009715610611470669  0.0003500100247518088  1.2707572385606054e-05  1.0000
  Co  Co7       1.0  0.0008531678323283712  0.001692618580713904  0.9995556187951882  1.0000
  Co  Co8       1.0  0.0075198345500348  0.007525951850579269  0.9994306879328886  1.0000
  Co  Co9       1.0  0.004186501078593875  0.005859285239126471  0.9996805498688023  1.0000
  Co  Co10      1.0  0.006382277590380587  0.0036833433896888705  0.9995129840737924  1.0000
  Co  Co11      1.0  0.003048944118939661  0.009516676888285561  0.9993880532867222  1.0000
  Co  Co12      1.0  0.009715610611470669  0.007850010058378041  0.9996379148490925  1.0000
  Si  Si1       1.0  0.00801375008315278  0.00332826672886783  0.9999489231304088  1.0000
  Si  Si2       1.0  0.0046804166117118545  0.009161599921771497  0.9998239923421014  1.0000
  Si  Si3       1.0  0.0013470831402709288  0.004994933273635535  0.9996990612682672  1.0000
  Si  Si4       1.0  0.009221695528703533  0.007047695086169945  0.9998692650866502  1.0000
  Si  Si5       1.0  0.005888362057262607  0.002881028438033984  0.9997443343109098  1.0000
  Si  Si6       1.0  0.0025550288109971037  0.00121436181630458  0.9999941959489497  1.0000
  Si  Si7       1.0  0.00801375008315278  0.0008282666921846668  0.999574130418755  1.0000
  Si  Si8       1.0  0.0046804166117118545  0.006661600190781357  0.9994491996316848  1.0000
  Si  Si9       1.0  0.0013470831402709288  0.0024949333897988837  0.9993242688553259  1.0000
  Si  Si10      1.0  0.009221695528703533  0.004547695355179806  0.9994944723762335  1.0000
  Si  Si11      1.0  0.005888362057262607  0.00038102847777407665  0.9993695415995653  1.0000
  Si  Si12      1.0  0.0025550288109971037  0.008714361926354068  0.9996194035240598  1.0000
