data_image0
_chemical_formula_structural       CONi20Sb8
_chemical_formula_sum              "C1 O1 Ni20 Sb8"
_cell_length_a       7.107237790112137
_cell_length_b       7.140145656586444
_cell_length_c       103.13558959960938
_cell_angle_alpha    94.3905182060826
_cell_angle_beta     93.95339588299444
_cell_angle_gamma    108.89764588881461

_space_group_name_H-M_alt    "P 1"
_space_group_IT_number       1

loop_
  _space_group_symop_operation_xyz
  'x, y, z'

loop_
  _atom_site_type_symbol
  _atom_site_label
  _atom_site_symmetry_multiplicity
  _atom_site_fract_x
  _atom_site_fract_y
  _atom_site_fract_z
  _atom_site_occupancy
  C   C1        1.0  0.009010154183222908  0.009014102737930189  0.00017235490675030643  1.0000
  O   O1        1.0  0.009010154183222908  0.009014102737930189  0.00028870625317336255  1.0000
  Ni  Ni1       1.0  0.006299055598812905  0.006222727959035243  0.9998093634439814  1.0000
  Ni  Ni2       1.0  0.0012631286864509003  0.001240558657393616  0.9994093737097991  1.0000
  Ni  Ni3       1.0  0.008752913265400708  0.008743994647981874  3.0836472189511362e-06  1.0000
  Ni  Ni4       1.0  0.003783161872117796  0.003760591966571393  0.9996117840090764  1.0000
  Ni  Ni5       1.0  0.005187553618599511  0.002609127079714791  0.9993992161821506  1.0000
  Ni  Ni6       1.0  0.00014126316357104528  0.007664542670533827  0.9997944669136091  1.0000
  Ni  Ni7       1.0  0.009858736733835723  0.0023920236828789436  0.999621941438233  1.0000
  Ni  Ni8       1.0  0.004965124140635916  0.007501950029281936  9.864689438735654e-06  1.0000
  Ni  Ni9       1.0  0.004537044200879314  0.002463387255338266  0.9998393076745087  1.0000
  Ni  Ni10      1.0  0.009524310390773734  0.007465064807088081  0.9994316377707178  1.0000
  Ni  Ni11      1.0  0.0005061449079456935  0.0023771862504117607  0.9999772858651589  1.0000
  Ni  Ni12      1.0  0.005521980154492043  0.007536085966595951  0.9995895200933692  1.0000
  Ni  Ni13      1.0  0.00839470838532047  0.00382055859426764  0.9998232256308003  1.0000
  Ni  Ni14      1.0  0.0034018246170608593  0.008799049659941298  0.9994209698588189  1.0000
  Ni  Ni15      1.0  0.009117398034282274  0.003675033367157855  0.9993972125866699  1.0000
  Ni  Ni16      1.0  0.004063308088106676  0.008691257508309206  0.9997988658460139  1.0000
  Ni  Ni17      1.0  0.0008891581589749007  0.006302529862002623  2.3280954628227265e-06  1.0000
  Ni  Ni18      1.0  0.005928892101511406  0.0013261175340646045  0.9996239450334191  1.0000
  Ni  Ni19      1.0  0.006645563281014578  0.0011819729104299266  0.9999953958990846  1.0000
  Ni  Ni20      1.0  0.001644465897642667  0.0062021005592278345  0.9996001878114688  1.0000
  Sb  Sb1       1.0  0.0027080941384623773  5.043119812058398e-05  1.3133739068323859e-05  1.0000
  Sb  Sb2       1.0  0.007679754320157812  0.0051189349954868695  0.9995999365806284  1.0000
  Sb  Sb3       1.0  0.002429328122676027  0.004847734511183315  0.9998237668404005  1.0000
  Sb  Sb4       1.0  0.007366536040864848  0.009882215223682262  0.9994212209906819  1.0000
  Sb  Sb5       1.0  0.007157243297791283  0.005025611801170156  3.994627435941109e-05  1.0000
  Sb  Sb6       1.0  0.0020523340981333004  0.009973204464780089  0.9996309863897289  1.0000
  Sb  Sb7       1.0  0.007952097517529013  2.6795600462055752e-05  0.9997882406123221  1.0000
  Sb  Sb8       1.0  0.0029939565679755527  0.005027946308903944  0.9993901709952545  1.0000
