data_image0
_chemical_formula_structural       HTi6Pd12Ti6Pd12
_chemical_formula_sum              "H1 Ti12 Pd24"
_cell_length_a       7.332471235039437
_cell_length_b       9.447434789110751
_cell_length_c       102.46223449707031
_cell_angle_alpha    104.20754177555551
_cell_angle_beta     71.56505058794633
_cell_angle_gamma    81.07005482141683

_space_group_name_H-M_alt    "P 1"
_space_group_IT_number       1

loop_
  _space_group_symop_operation_xyz
  'x, y, z'

loop_
  _atom_site_type_symbol
  _atom_site_label
  _atom_site_symmetry_multiplicity
  _atom_site_fract_x
  _atom_site_fract_y
  _atom_site_fract_z
  _atom_site_occupancy
  H   H1        1.0  0.006423860262797302  0.00922648148112269  0.00015362907923253903  1.0000
  Ti  Ti1       1.0  0.0002607602036449889  0.00012828419438691907  0.9995465637071302  1.0000
  Ti  Ti2       1.0  0.0035940934798545042  0.00012828419438691907  0.9992448289939643  1.0000
  Ti  Ti3       1.0  0.006927427023831915  0.00012828419438691907  0.9993956963406094  1.0000
  Ti  Ti4       1.0  0.008594094165920694  0.005128284031985048  0.9994711300076987  1.0000
  Ti  Ti5       1.0  0.0019274270779658742  0.005128284031985048  0.9996219973802791  1.0000
  Ti  Ti6       1.0  0.005260760354175389  0.005128284031985048  0.9993202626671132  1.0000
  Pd  Pd1       1.0  0.009739240393936923  0.0016928454656835836  0.9993674708953292  1.0000
  Pd  Pd2       1.0  0.003072573038214207  0.0016928454656835836  0.9995183382739692  1.0000
  Pd  Pd3       1.0  0.006405906582191618  0.0016928454656835836  0.9992166035547436  1.0000
  Pd  Pd4       1.0  0.009115614629459843  0.0035637226949918337  0.9991976207257115  1.0000
  Pd  Pd5       1.0  0.002448947273737127  0.0035637226949918337  0.9993484881043514  1.0000
  Pd  Pd6       1.0  0.0057822808177145375  0.0035637226949918337  0.9994993554509967  1.0000
  Pd  Pd7       1.0  0.008072573702381547  0.006692845368978262  0.9992920372238152  1.0000
  Pd  Pd8       1.0  0.0014059063466588312  0.006692845368978262  0.9994429046024552  1.0000
  Pd  Pd9       1.0  0.004739239890636242  0.006692845368978262  0.9995937719491004  1.0000
  Pd  Pd10      1.0  0.007448947832789984  0.008563722913629952  0.9995747891295832  1.0000
  Pd  Pd11      1.0  0.0007822804770672678  0.008563722913629952  0.9992730544423524  1.0000
  Pd  Pd12      1.0  0.004115614021044678  0.008563722913629952  0.9994239217889976  1.0000
  Ti  Ti7       1.0  0.0004107818386372712  0.00987171536255555  0.9999809007728734  1.0000
  Ti  Ti8       1.0  0.0035940934798545042  0.00012828419438691907  0.999697431059835  1.0000
  Ti  Ti9       1.0  0.006882725418467241  0.00016157439685261077  0.9998467943764922  1.0000
  Ti  Ti10      1.0  0.00855481236430791  0.0050904234782195  0.9999131125964328  1.0000
  Ti  Ti11      1.0  0.0022418340880693156  0.004859812400691203  4.8958513778102806e-05  1.0000
  Ti  Ti12      1.0  0.005260760354175389  0.005128284031985048  0.9997728647329839  1.0000
  Pd  Pd13      1.0  0.00971697821389504  0.0017166102728323853  0.9998365822820809  1.0000
  Pd  Pd14      1.0  0.002891471979561291  0.0017663300524295553  0.9999643356616014  1.0000
  Pd  Pd15      1.0  0.006405906582191618  0.0016928454656835836  0.9996692056206145  1.0000
  Pd  Pd16      1.0  0.009115614629459843  0.0035637226949918337  0.9996502227915822  1.0000
  Pd  Pd17      1.0  0.002350115088901581  0.003610444819856184  0.9997996337289319  1.0000
  Pd  Pd18      1.0  0.005815489436632435  0.0034710197125741595  0.9999469444052483  1.0000
  Pd  Pd19      1.0  0.008072573702381547  0.006692845368978262  0.9997446392896859  1.0000
  Pd  Pd20      1.0  0.0012424196771337495  0.006752071071434953  0.9999214939383019  1.0000
  Pd  Pd21      1.0  0.0047018157466886595  0.006590381876431172  3.1681638553458574e-05  1.0000
  Pd  Pd22      1.0  0.007376140029844731  0.008612131915664942  1.4731190319506203e-05  1.0000
  Pd  Pd23      1.0  0.0007822804770672678  0.008563722913629952  0.9997256565082232  1.0000
  Pd  Pd24      1.0  0.0040792585272549  0.00861823864647909  0.9998815104192819  1.0000
