data_image0
_chemical_formula_structural       COCu40Zn64
_chemical_formula_sum              "C1 O1 Cu40 Zn64"
_cell_length_a       7.788621425628662
_cell_length_b       12.718766212463379
_cell_length_c       114.05909729003906
_cell_angle_alpha    90.0
_cell_angle_beta     90.0
_cell_angle_gamma    90.0

_space_group_name_H-M_alt    "P 1"
_space_group_IT_number       1

loop_
  _space_group_symop_operation_xyz
  'x, y, z'

loop_
  _atom_site_type_symbol
  _atom_site_label
  _atom_site_symmetry_multiplicity
  _atom_site_fract_x
  _atom_site_fract_y
  _atom_site_fract_z
  _atom_site_occupancy
  C   C1        1.0  0.007635245716843406  0.00010349964504439497  0.00014242623254894296  1.0000
  O   O1        1.0  0.007635245716843406  0.00010349964504439497  0.0002476350637935073  1.0000
  Cu  Cu1       1.0  0.0005238540549551385  0.00849311095138766  0.9995266723521357  1.0000
  Cu  Cu2       1.0  0.007190520860328532  0.0034931112560006895  0.9998485749939431  1.0000
  Cu  Cu3       1.0  0.007190520860328532  0.00849311095138766  0.9988828673298091  1.0000
  Cu  Cu4       1.0  0.0038571875174292177  0.0034931112560006895  0.9992047697103282  1.0000
  Cu  Cu5       1.0  0.007190520860328532  0.006767577137204383  0.9992161394150444  1.0000
  Cu  Cu6       1.0  0.0038571875174292177  0.0017675774418174119  0.9995380420568518  1.0000
  Cu  Cu7       1.0  0.0005238540549551385  0.006767577137204383  0.9998599446986592  1.0000
  Cu  Cu8       1.0  0.0005238540549551385  0.0017675774418174119  0.9988942367732369  1.0000
  Cu  Cu9       1.0  0.001791944554593529  0.00849311095138766  0.9991050489812544  1.0000
  Cu  Cu10      1.0  0.008458611718691217  0.0034931112560006895  0.999426951100485  1.0000
  Cu  Cu11      1.0  0.005125278136642373  0.00849311095138766  0.9997488537422925  1.0000
  Cu  Cu12      1.0  0.005125278136642373  0.0034931112560006895  0.9987831460781585  1.0000
  Cu  Cu13      1.0  0.0005238540549551385  0.005218645070183967  0.9988942367732369  1.0000
  Cu  Cu14      1.0  0.007190520860328532  0.00021864533818485353  0.9992161394150444  1.0000
  Cu  Cu15      1.0  0.0038571875174292177  0.005218645070183967  0.9995380420568518  1.0000
  Cu  Cu16      1.0  0.0005238540549551385  0.00021864533818485353  0.9998599446986592  1.0000
  Cu  Cu17      1.0  0.0007131745678342245  0.00849311095138766  0.9988759541605445  1.0000
  Cu  Cu18      1.0  0.00737984167214453  0.0034931112560006895  0.9991978565410636  1.0000
  Cu  Cu19      1.0  0.004046508090095686  0.00849311095138766  0.9995197591828711  1.0000
  Cu  Cu20      1.0  0.0007131745678342245  0.0034931112560006895  0.9998416618246785  1.0000
  Cu  Cu21      1.0  0.005968579164968514  0.005272334874056666  0.9999562091043892  1.0000
  Cu  Cu22      1.0  0.005968579164968514  0.0002723348491604078  0.9989905011789668  1.0000
  Cu  Cu23      1.0  0.0026352453437701404  0.005272334874056666  0.9993124038207744  1.0000
  Cu  Cu24      1.0  0.009301912268718298  0.0002723348491604078  0.9996343064625818  1.0000
  Cu  Cu25      1.0  0.004046508090095686  0.006713887919125972  0.9998634010220031  1.0000
  Cu  Cu26      1.0  0.004046508090095686  0.0017138879308418577  0.9988976936191576  1.0000
  Cu  Cu27      1.0  0.0007131745678342245  0.006713887919125972  0.9992195962609651  1.0000
  Cu  Cu28      1.0  0.00737984167214453  0.0017138879308418577  0.9995414983801957  1.0000
  Cu  Cu29      1.0  0.009301912268718298  0.00849311095138766  0.9999779483017138  1.0000
  Cu  Cu30      1.0  0.009301912268718298  0.0034931112560006895  0.9990122408988683  1.0000
  Cu  Cu31      1.0  0.005968579164968514  0.00849311095138766  0.9993341435406757  1.0000
  Cu  Cu32      1.0  0.0026352453437701404  0.0034931112560006895  0.9996560456599064  1.0000
  Cu  Cu33      1.0  0.004046508090095686  0.0002723348491604078  0.9998634010220031  1.0000
  Cu  Cu34      1.0  0.004046508090095686  0.005272334874056666  0.9988976936191576  1.0000
  Cu  Cu35      1.0  0.0007131745678342245  0.0002723348491604078  0.9992195962609651  1.0000
  Cu  Cu36      1.0  0.00737984167214453  0.005272334874056666  0.9995414983801957  1.0000
  Cu  Cu37      1.0  0.005968579164968514  0.0017138879308418577  0.9999562091043892  1.0000
  Cu  Cu38      1.0  0.005968579164968514  0.006713887919125972  0.9989905011789668  1.0000
  Cu  Cu39      1.0  0.0026352453437701404  0.0017138879308418577  0.9993124038207744  1.0000
  Cu  Cu40      1.0  0.009301912268718298  0.006713887919125972  0.9996343064625818  1.0000
  Zn  Zn1       1.0  0.009073564645186586  0.00849311095138766  0.9992465612268774  1.0000
  Zn  Zn2       1.0  0.0057402315414368  0.0034931112560006895  0.9995684638686848  1.0000
  Zn  Zn3       1.0  0.002406897959387956  0.00849311095138766  0.9998903665104922  1.0000
  Zn  Zn4       1.0  0.002406897959387956  0.0034931112560006895  0.9989246585850698  1.0000
  Zn  Zn5       1.0  0.006142812989567785  0.00849311095138766  0.9991050489812544  1.0000
  Zn  Zn6       1.0  0.002809479407518941  0.0034931112560006895  0.999426951100485  1.0000
  Zn  Zn7       1.0  0.00947614609331757  0.00849311095138766  0.9997488537422925  1.0000
  Zn  Zn8       1.0  0.00947614609331757  0.0034931112560006895  0.9987831460781585  1.0000
  Zn  Zn9       1.0  0.0057402315414368  0.004592143351379172  0.9993561952389619  1.0000
  Zn  Zn10      1.0  0.002406897959387956  0.009592143046766142  0.9996780973581926  1.0000
  Zn  Zn11      1.0  0.009073564645186586  0.004592143351379172  0.0  1.0000
  Zn  Zn12      1.0  0.009073564645186586  0.009592143046766142  0.9990342925971545  1.0000
  Zn  Zn13      1.0  0.009073564645186586  0.007394079441803466  0.9990342925971545  1.0000
  Zn  Zn14      1.0  0.0057402315414368  0.002394079307070779  0.9993561952389619  1.0000
  Zn  Zn15      1.0  0.002406897959387956  0.007394079441803466  0.9996780973581926  1.0000
  Zn  Zn16      1.0  0.009073564645186586  0.002394079307070779  0.0  1.0000
  Zn  Zn17      1.0  0.008562967007374776  0.00989650008439187  0.999418995912964  1.0000
  Zn  Zn18      1.0  0.005229633425325931  0.004896500096107754  0.9997408985547714  1.0000
  Zn  Zn19      1.0  0.005229633425325931  0.00989650008439187  0.9987751911519259  1.0000
  Zn  Zn20      1.0  0.001896299723702322  0.004896500096107754  0.9990970937937335  1.0000
  Zn  Zn21      1.0  0.008972003579605464  0.005229634571025749  0.9993151530976283  1.0000
  Zn  Zn22      1.0  0.005638670475855678  0.00022963494886306423  0.9996370557394357  1.0000
  Zn  Zn23      1.0  0.0023053371329563636  0.005229634571025749  0.9999589578586663  1.0000
  Zn  Zn24      1.0  0.0023053371329563636  0.00022963494886306423  0.9989932504558208  1.0000
  Zn  Zn25      1.0  0.003932236944471331  0.00708972240417774  0.9991953993846737  1.0000
  Zn  Zn26      1.0  0.0005989035417846343  0.0020897222694450527  0.9995173020264811  1.0000
  Zn  Zn27      1.0  0.007265570287370646  0.00708972240417774  0.9998392046682886  1.0000
  Zn  Zn28      1.0  0.007265570287370646  0.0020897222694450527  0.9988734970041546  1.0000
  Zn  Zn29      1.0  0.0023053371329563636  0.006756587636362601  0.9989932504558208  1.0000
  Zn  Zn30      1.0  0.008972003579605464  0.001756587794527058  0.9993151530976283  1.0000
  Zn  Zn31      1.0  0.005638670475855678  0.006756587636362601  0.9996370557394357  1.0000
  Zn  Zn32      1.0  0.0023053371329563636  0.001756587794527058  0.9999589578586663  1.0000
  Zn  Zn33      1.0  0.005229633425325931  0.005229634571025749  0.9991344512456359  1.0000
  Zn  Zn34      1.0  0.001896299723702322  0.00022963494886306423  0.9994563538874434  1.0000
  Zn  Zn35      1.0  0.008562967007374776  0.005229634571025749  0.9997782565292509  1.0000
  Zn  Zn36      1.0  0.008562967007374776  0.00022963494886306423  0.9988125486038285  1.0000
  Zn  Zn37      1.0  0.003932236944471331  0.00849311095138766  0.998924347129262  1.0000
  Zn  Zn38      1.0  0.0005989035417846343  0.0034931112560006895  0.9992462492484927  1.0000
  Zn  Zn39      1.0  0.007265570287370646  0.00849311095138766  0.9995681518903001  1.0000
  Zn  Zn40      1.0  0.003932236944471331  0.0034931112560006895  0.9998900545321076  1.0000
  Zn  Zn41      1.0  0.008562967007374776  0.005353198503358392  0.999083601381817  1.0000
  Zn  Zn42      1.0  0.005229633425325931  0.0003531988445835642  0.9994055040236244  1.0000
  Zn  Zn43      1.0  0.001896299723702322  0.005353198503358392  0.9997274066654319  1.0000
  Zn  Zn44      1.0  0.001896299723702322  0.0003531988445835642  0.9987616987400095  1.0000
  Zn  Zn45      1.0  0.005229633425325931  0.006633023704029958  0.9994055040236244  1.0000
  Zn  Zn46      1.0  0.001896299723702322  0.0016330238621944152  0.9997274066654319  1.0000
  Zn  Zn47      1.0  0.001896299723702322  0.006633023704029958  0.9987616987400095  1.0000
  Zn  Zn48      1.0  0.008562967007374776  0.0016330238621944152  0.999083601381817  1.0000
  Zn  Zn49      1.0  0.003932236944471331  0.00989650008439187  0.9991953993846737  1.0000
  Zn  Zn50      1.0  0.0005989035417846343  0.004896500096107754  0.9995173020264811  1.0000
  Zn  Zn51      1.0  0.007265570287370646  0.00989650008439187  0.9998392046682886  1.0000
  Zn  Zn52      1.0  0.007265570287370646  0.004896500096107754  0.9988734970041546  1.0000
  Zn  Zn53      1.0  0.008562967007374776  0.00708972240417774  0.999418995912964  1.0000
  Zn  Zn54      1.0  0.005229633425325931  0.0020897222694450527  0.9997408985547714  1.0000
  Zn  Zn55      1.0  0.005229633425325931  0.00708972240417774  0.9987751911519259  1.0000
  Zn  Zn56      1.0  0.001896299723702322  0.0020897222694450527  0.9990970937937335  1.0000
  Zn  Zn57      1.0  0.0023053371329563636  0.00849311095138766  0.9993286455095447  1.0000
  Zn  Zn58      1.0  0.008972003579605464  0.0034931112560006895  0.9996505476287754  1.0000
  Zn  Zn59      1.0  0.005638670475855678  0.00849311095138766  0.9999724502705828  1.0000
  Zn  Zn60      1.0  0.005638670475855678  0.0034931112560006895  0.9990067428677373  1.0000
  Zn  Zn61      1.0  0.008562967007374776  0.006756587636362601  0.9988125486038285  1.0000
  Zn  Zn62      1.0  0.005229633425325931  0.001756587794527058  0.9991344512456359  1.0000
  Zn  Zn63      1.0  0.001896299723702322  0.006756587636362601  0.9994563538874434  1.0000
  Zn  Zn64      1.0  0.008562967007374776  0.001756587794527058  0.9997782565292509  1.0000
