data_image0
_chemical_formula_structural       COCo6Sb6Co6Sb6Co6Sb6Co6Sb6
_chemical_formula_sum              "C1 O1 Co24 Sb24"
_cell_length_a       9.399299957825361
_cell_length_b       7.801914774574626
_cell_length_c       109.20458221435547
_cell_angle_alpha    72.63200267182212
_cell_angle_beta     87.23939365592459
_cell_angle_gamma    65.47902221810634

_space_group_name_H-M_alt    "P 1"
_space_group_IT_number       1

loop_
  _space_group_symop_operation_xyz
  'x, y, z'

loop_
  _atom_site_type_symbol
  _atom_site_label
  _atom_site_symmetry_multiplicity
  _atom_site_fract_x
  _atom_site_fract_y
  _atom_site_fract_z
  _atom_site_occupancy
  C   C1        1.0  0.00281619775376648  0.009607168191686798  0.9998172430509065  1.0000
  O   O1        1.0  0.00281619775376648  0.009607168191686798  0.9999271287725068  1.0000
  Co  Co1       1.0  0.0076388887722775665  0.00039283226676110525  0.999650424865921  1.0000
  Co  Co2       1.0  0.0009722221537130705  0.00039283235633951494  0.9992515345146916  1.0000
  Co  Co3       1.0  0.004305555299010647  0.00039283246098200476  0.9994509796877993  1.0000
  Co  Co4       1.0  0.009305555508911026  0.00039283216965065596  0.9994509796249162  1.0000
  Co  Co5       1.0  0.002638888781023416  0.00039283244223251186  0.9996504249303685  1.0000
  Co  Co6       1.0  0.005972222035644107  0.00039283236387155503  0.9992515344467946  1.0000
  Sb  Sb1       1.0  0.0073611109828386565  0.003726165552908952  0.9994842202551034  1.0000
  Sb  Sb2       1.0  0.0006944444189357177  0.0037261657385958516  0.9996836655617289  1.0000
  Sb  Sb3       1.0  0.004027777509571737  0.003726165747129852  0.9992847756227888  1.0000
  Sb  Sb4       1.0  0.007916666561716476  0.002059499260777842  0.9998166289358728  1.0000
  Sb  Sb5       1.0  0.0012499999431519805  0.002059498975135826  0.9994177385926454  1.0000
  Sb  Sb6       1.0  0.004583333088449557  0.0020594989547048407  0.9996171837684205  1.0000
  Co  Co7       1.0  0.0076388887722775665  0.00039283226676110525  0.9990520892057898  1.0000
  Co  Co8       1.0  0.0009722221537130705  0.00039283235633951494  0.9986531991274641  1.0000
  Co  Co9       1.0  0.004305555299010647  0.00039283246098200476  0.9988526440276682  1.0000
  Co  Co10      1.0  0.009305555508911026  0.00039283216965065596  0.9988526439647851  1.0000
  Co  Co11      1.0  0.002638888781023416  0.00039283244223251186  0.9990520892702374  1.0000
  Co  Co12      1.0  0.005972222035644107  0.00039283236387155503  0.998653199059567  1.0000
  Sb  Sb7       1.0  0.0073611109828386565  0.003726165552908952  0.9988858851407794  1.0000
  Sb  Sb8       1.0  0.0006944444189357177  0.0037261657385958516  0.999085330447405  1.0000
  Sb  Sb9       1.0  0.004027777509571737  0.003726165747129852  0.9986864399626576  1.0000
  Sb  Sb10      1.0  0.007916666561716476  0.002059499260777842  0.9992182938215487  1.0000
  Sb  Sb11      1.0  0.0012499999431519805  0.002059498975135826  0.9988194034783214  1.0000
  Sb  Sb12      1.0  0.004583333088449557  0.0020594989547048407  0.9990188486540964  1.0000
  Co  Co13      1.0  0.0076388887722775665  0.005392832046631788  0.9996504248815317  1.0000
  Co  Co14      1.0  0.0009722221537130705  0.005392832261283673  0.9992515345276349  1.0000
  Co  Co15      1.0  0.004305555299010647  0.005392832741146589  0.9994509796927405  1.0000
  Co  Co16      1.0  0.009305555508911026  0.00539283244981524  0.9994509796298575  1.0000
  Co  Co17      1.0  0.002638888781023416  0.0053928327223970954  0.9996504249353098  1.0000
  Co  Co18      1.0  0.005972222035644107  0.00539283264403614  0.9992515344517359  1.0000
  Sb  Sb13      1.0  0.0073611109828386565  0.008726166333367437  0.9994842202493752  1.0000
  Sb  Sb14      1.0  0.0006944444189357177  0.008726165518466535  0.9996836655773397  1.0000
  Sb  Sb15      1.0  0.004027777509571737  0.008726165527000534  0.9992847756383995  1.0000
  Sb  Sb16      1.0  0.007916666561716476  0.007059499040648525  0.9998166289514834  1.0000
  Sb  Sb17      1.0  0.0012499999431519805  0.00705949925530041  0.9994177385975866  1.0000
  Sb  Sb18      1.0  0.004583333088449557  0.007059499234869425  0.9996171837733617  1.0000
  Co  Co19      1.0  0.0076388887722775665  0.005392832046631788  0.9990520892214005  1.0000
  Co  Co20      1.0  0.0009722221537130705  0.005392832261283673  0.9986531991404074  1.0000
  Co  Co21      1.0  0.004305555299010647  0.005392832741146589  0.9988526440326094  1.0000
  Co  Co22      1.0  0.009305555508911026  0.00539283244981524  0.9988526439697264  1.0000
  Co  Co23      1.0  0.002638888781023416  0.0053928327223970954  0.9990520892751786  1.0000
  Co  Co24      1.0  0.005972222035644107  0.00539283264403614  0.9986531990645082  1.0000
  Sb  Sb19      1.0  0.0073611109828386565  0.008726166333367437  0.9988858851350512  1.0000
  Sb  Sb20      1.0  0.0006944444189357177  0.008726165518466535  0.9990853304630156  1.0000
  Sb  Sb21      1.0  0.004027777509571737  0.008726165527000534  0.9986864399782683  1.0000
  Sb  Sb22      1.0  0.007916666561716476  0.007059499040648525  0.9992182938371594  1.0000
  Sb  Sb23      1.0  0.0012499999431519805  0.00705949925530041  0.9988194034832627  1.0000
  Sb  Sb24      1.0  0.004583333088449557  0.007059499234869425  0.9990188486590377  1.0000
