data_image0
_chemical_formula_structural       COCa8In8Au8
_chemical_formula_sum              "C1 O1 Ca8 In8 Au8"
_cell_length_a       8.903895627015913
_cell_length_b       8.596942901611328
_cell_length_c       105.61558532714844
_cell_angle_alpha    90.0
_cell_angle_beta     115.92823030485208
_cell_angle_gamma    90.0

_space_group_name_H-M_alt    "P 1"
_space_group_IT_number       1

loop_
  _space_group_symop_operation_xyz
  'x, y, z'

loop_
  _atom_site_type_symbol
  _atom_site_label
  _atom_site_symmetry_multiplicity
  _atom_site_fract_x
  _atom_site_fract_y
  _atom_site_fract_z
  _atom_site_occupancy
  C   C1        1.0  0.008690114821051443  0.0010787296008213613  0.00032033351201855745  1.0000
  O   O1        1.0  0.008690114821051443  0.0010787296008213613  0.00043395333698590977  1.0000
  Ca  Ca1       1.0  0.0036926735946982785  0.003168743570462435  0.9997721864289434  1.0000
  Ca  Ca2       1.0  0.008430912089920351  0.003236189019127748  0.00016766469896260002  1.0000
  Ca  Ca3       1.0  0.005839458855581483  0.006910375768424551  0.9999893295491066  1.0000
  Ca  Ca4       1.0  0.0009771237835225224  0.006882969548223605  0.9995795964774995  1.0000
  Ca  Ca5       1.0  0.006192673436524721  0.0018829695222239652  0.999561424489324  1.0000
  Ca  Ca6       1.0  0.0011363635010279718  0.00187889646200231  0.9999735812079388  1.0000
  Ca  Ca7       1.0  0.0030026135351934606  0.008072654994737395  0.00018117479438577253  1.0000
  Ca  Ca8       1.0  0.008477123890522282  0.008168743596462075  0.9997903583023616  1.0000
  In  In1       1.0  0.006890421661378236  0.005680351880926254  0.9995026010539293  1.0000
  In  In2       1.0  0.0018904216288130919  0.005680351880926254  0.9999241249203066  1.0000
  In  In3       1.0  0.005481387415976717  0.0005156324376302617  9.229149540241034e-05  1.0000
  In  In4       1.0  0.0002793757912771801  0.0006803521257561944  0.9996384199214685  1.0000
  In  In5       1.0  0.002779375749407709  0.004371361021096122  0.9994276579861362  1.0000
  In  In6       1.0  0.0077793756656687665  0.004371361021096122  0.9998491817377563  1.0000
  In  In7       1.0  0.004390421586943621  0.00937136039710477  0.9997133629849744  1.0000
  In  In8       1.0  0.009320768613923846  0.009484366964378026  0.0001539923969210378  1.0000
  Au  Au1       1.0  0.002220624166853349  0.001197437672415744  0.9994747636208351  1.0000
  Au  Au2       1.0  0.00722062431572258  0.001197437672415744  0.9998962873810294  1.0000
  Au  Au3       1.0  0.00470664774657836  0.0037832595710844295  8.417410024848181e-05  1.0000
  Au  Au4       1.0  0.009720623924940849  0.003854275420270656  0.9996855254328357  1.0000
  Au  Au5       1.0  0.004949173402106154  0.006197437481751719  0.9996662576410271  1.0000
  Au  Au6       1.0  0.009688144380466404  0.006366026078761797  7.781908316696033e-05  1.0000
  Au  Au7       1.0  0.007449173011324423  0.008854275229606632  0.9994554956928334  1.0000
  Au  Au8       1.0  0.002449173327671539  0.008854275229606632  0.9998770192898949  1.0000
