data_image0
_chemical_formula_structural       HV18Co6
_chemical_formula_sum              "H1 V18 Co6"
_cell_length_a       6.584107008775139
_cell_length_b       6.584106922149658
_cell_length_c       102.25540161132812
_cell_angle_alpha    90.0
_cell_angle_beta     90.0
_cell_angle_gamma    60.00000043522195

_space_group_name_H-M_alt    "P 1"
_space_group_IT_number       1

loop_
  _space_group_symop_operation_xyz
  'x, y, z'

loop_
  _atom_site_type_symbol
  _atom_site_label
  _atom_site_symmetry_multiplicity
  _atom_site_fract_x
  _atom_site_fract_y
  _atom_site_fract_z
  _atom_site_occupancy
  H   H1        1.0  0.004999999895467198  0.007083333642095913  5.4771006213617736e-05  1.0000
  V   V1        1.0  0.005833333429155068  0.000416666535771741  0.9996057004001769  1.0000
  V   V2        1.0  0.009166666257246527  0.003750000280150122  0.9998685666057591  1.0000
  V   V3        1.0  0.002499999947733599  0.007083333434906585  0.9993428341945949  1.0000
  V   V4        1.0  0.004166666688444333  0.0037499997024389663  0.999474267297386  1.0000
  V   V5        1.0  0.007499999843200798  0.00708333384928524  0.9997371337944179  1.0000
  V   V6        1.0  0.000833333288689116  0.0004166666682427608  0.0  1.0000
  V   V7        1.0  0.000833333288689116  0.007916666764428829  0.9996057004001769  1.0000
  V   V8        1.0  0.004166666688444333  0.0012499999061271086  0.9998685666057591  1.0000
  V   V9        1.0  0.007499999843200798  0.004583333487172987  0.9993428341945949  1.0000
  V   V10       1.0  0.009166666257246527  0.006249999510661584  0.999474267297386  1.0000
  V   V11       1.0  0.002499999947733599  0.009583333797018838  0.9997371337944179  1.0000
  V   V12       1.0  0.005833333429155068  0.0029166663320835985  0.0  1.0000
  V   V13       1.0  0.008333333376888666  0.002916666539272926  0.9996057004001769  1.0000
  V   V14       1.0  0.001666666577378232  0.0062499999390281434  0.9998685666057591  1.0000
  V   V15       1.0  0.004999999895467198  0.009583332872607373  0.9993428341945949  1.0000
  V   V16       1.0  0.001666666577378232  0.0012499999220541315  0.999474267297386  1.0000
  V   V17       1.0  0.004999999895467198  0.00458333327998366  0.9997371337944179  1.0000
  V   V18       1.0  0.008333333376888666  0.007916666131896642  0.0  1.0000
  Co  Co1       1.0  0.008333333376888666  0.00041666646006087064  0.9994085506002655  1.0000
  Co  Co2       1.0  0.001666666577378232  0.003749999859816088  0.9996714170972975  1.0000
  Co  Co3       1.0  0.004999999895467198  0.007083333642095913  0.9999342833028796  1.0000
  Co  Co4       1.0  0.008333333376888666  0.00041666646006087064  0.9998028504915384  1.0000
  Co  Co5       1.0  0.001666666577378232  0.003749999859816088  0.9992771174974744  1.0000
  Co  Co6       1.0  0.004999999895467198  0.007083333642095913  0.9995399839945064  1.0000
