data_image0
_chemical_formula_structural       COAl6Ir2Al6Ir2Al6Ir2Al6Ir2
_chemical_formula_sum              "C1 O1 Al24 Ir8"
_cell_length_a       8.637086418182871
_cell_length_b       7.828901290893555
_cell_length_c       35.451656341552734
_cell_angle_alpha    90.0
_cell_angle_beta     120.00000172387948
_cell_angle_gamma    90.0

_space_group_name_H-M_alt    "P 1"
_space_group_IT_number       1

loop_
  _space_group_symop_operation_xyz
  'x, y, z'

loop_
  _atom_site_type_symbol
  _atom_site_label
  _atom_site_symmetry_multiplicity
  _atom_site_fract_x
  _atom_site_fract_y
  _atom_site_fract_z
  _atom_site_occupancy
  C   C1        1.0  0.005258342462431062  0.005828652030776941  0.0007591186298962712  1.0000
  O   O1        1.0  0.005258342462431062  0.005828652030776941  0.0010976080167368154  1.0000
  Al  Al1       1.0  0.009982597247402122  0.002500000133234696  0.9994066848800522  1.0000
  Al  Al2       1.0  0.009985178078843656  0.0074999999238658886  0.9994077066683326  1.0000
  Al  Al3       1.0  0.0016005445532427975  0.005828652030776941  0.00019496991067797882  1.0000
  Al  Al4       1.0  0.003494178574602352  0.0008153331125685177  0.9998995442938863  1.0000
  Al  Al5       1.0  0.0034941793216589252  0.004184666737542449  0.9998995448052124  1.0000
  Al  Al6       1.0  0.001600544926771084  0.009171348292793036  0.00019497037650273926  1.0000
  Ir  Ir1       1.0  0.0015340063409285385  0.002500000133234696  0.00016207052100841954  1.0000
  Ir  Ir2       1.0  0.0033058331615568046  0.0074999999238658886  0.9998075691820857  1.0000
  Al  Al7       1.0  1.4821799876376977e-05  0.002499999895315596  0.9982041386029875  1.0000
  Al  Al8       1.0  1.4821799876376977e-05  0.0074999999238658886  0.9982041386029875  1.0000
  Al  Al9       1.0  0.0016814885064768488  0.005790868574341854  0.9990162387099151  1.0000
  Al  Al10      1.0  0.0033481551615226353  0.0007908689026702121  0.9986101885986227  1.0000
  Al  Al11      1.0  0.0033481551615226353  0.00420913100692053  0.9986101885986227  1.0000
  Al  Al12      1.0  0.0016814885064768488  0.009209130797551722  0.9990162387099151  1.0000
  Ir  Ir3       1.0  0.0016814885064768488  0.002499999895315596  0.9990162387099151  1.0000
  Ir  Ir4       1.0  0.0033481551615226353  0.0074999999238658886  0.9986101885986227  1.0000
  Al  Al13      1.0  0.004982596908736476  0.002500000133234696  0.9994066849564883  1.0000
  Al  Al14      1.0  0.004985178238215726  0.0074999999238658886  0.999407706805437  1.0000
  Al  Al15      1.0  0.006600544642889586  0.005828652030776941  0.00019497022423115959  1.0000
  Al  Al16      1.0  0.00849417866424914  0.0008153331125685177  0.9998995441871161  1.0000
  Al  Al17      1.0  0.008494179660324572  0.004184666737542449  0.9998995447287764  1.0000
  Al  Al18      1.0  0.006600545140927301  0.009171348292793036  0.0001949702848996228  1.0000
  Ir  Ir5       1.0  0.0065340063060658985  0.002500000133234696  0.00016207039907107146  1.0000
  Ir  Ir6       1.0  0.008305833251203593  0.0074999999238658886  0.9998075694956389  1.0000
  Al  Al19      1.0  0.005014821941077851  0.002499999895315596  0.9982041387126591  1.0000
  Al  Al20      1.0  0.005014821941077851  0.0074999999238658886  0.9982041387126591  1.0000
  Al  Al21      1.0  0.006681488720633066  0.005790868574341854  0.9990162386183119  1.0000
  Al  Al22      1.0  0.008348155002150566  0.0007908689026702121  0.9986101886716799  1.0000
  Al  Al23      1.0  0.008348155002150566  0.00420913100692053  0.9986101886716799  1.0000
  Al  Al24      1.0  0.006681488720633066  0.009209130797551722  0.9990162386183119  1.0000
  Ir  Ir7       1.0  0.006681488720633066  0.002499999895315596  0.9990162386183119  1.0000
  Ir  Ir8       1.0  0.008348155002150566  0.0074999999238658886  0.9986101886716799  1.0000
