data_image0
_chemical_formula_structural       HPt4Rh12Pt4Rh12Pt4Rh12Pt4Rh12
_chemical_formula_sum              "H1 Pt16 Rh48"
_cell_length_a       7.772741794586182
_cell_length_b       15.979226130563827
_cell_length_c       101.0909652709961
_cell_angle_alpha    104.0763089708639
_cell_angle_beta     90.0
_cell_angle_gamma    90.0

_space_group_name_H-M_alt    "P 1"
_space_group_IT_number       1

loop_
  _space_group_symop_operation_xyz
  'x, y, z'

loop_
  _atom_site_type_symbol
  _atom_site_label
  _atom_site_symmetry_multiplicity
  _atom_site_fract_x
  _atom_site_fract_y
  _atom_site_fract_z
  _atom_site_occupancy
  H   H1        1.0  1.000000012862463e-10  0.005239488676288026  0.00030240750500738577  1.0000
  Pt  Pt1       1.0  0.0  1.8780850304223255e-05  0.9998078504446606  1.0000
  Pt  Pt2       1.0  0.0  0.005018780654869289  0.9996156288674836  1.0000
  Pt  Pt3       1.0  0.002499999894559232  0.002518780818307574  0.9997117396585986  1.0000
  Pt  Pt4       1.0  0.002499999894559232  0.007518780731781423  0.9995195180856086  1.0000
  Rh  Rh1       1.0  0.0  0.0012687809000267163  0.999663684292909  1.0000
  Rh  Rh2       1.0  0.0  0.006268780693325356  0.9994714627152987  1.0000
  Rh  Rh3       1.0  0.002499999894559232  0.0012687809000267163  0.9994714627704143  1.0000
  Rh  Rh4       1.0  0.002499999894559232  0.006268780693325356  0.9996636842377933  1.0000
  Rh  Rh5       1.0  0.0  0.002518780818307574  0.9995195181361041  1.0000
  Rh  Rh6       1.0  0.0  0.007518780731781423  0.9997117396081031  1.0000
  Rh  Rh7       1.0  0.002499999894559232  0.003768780856763641  0.9995675735064139  1.0000
  Rh  Rh8       1.0  0.002499999894559232  0.008768781250938329  0.999759794996893  1.0000
  Rh  Rh9       1.0  0.0  0.003768780856763641  0.9997597950289084  1.0000
  Rh  Rh10      1.0  0.0  0.008768781250938329  0.9995675734743985  1.0000
  Rh  Rh11      1.0  0.002499999894559232  1.8780850304223255e-05  0.999615628922166  1.0000
  Rh  Rh12      1.0  0.002499999894559232  0.005018780654869289  0.9998078503899781  1.0000
  Pt  Pt5       1.0  1.000000012862463e-10  0.009981219325902678  0.0001783135864920645  1.0000
  Pt  Pt6       1.0  0.0  0.005055762893150218  2.4559185428620125e-06  1.0000
  Pt  Pt7       1.0  0.002499999894559232  0.0025201527384996055  9.008193995539826e-05  1.0000
  Pt  Pt8       1.0  0.002499999894559232  0.0074923008454120255  0.9999022532816947  1.0000
  Rh  Rh13      1.0  0.0  0.001272174287418307  4.7657272461723425e-05  1.0000
  Rh  Rh14      1.0  0.0  0.006268780693325356  0.9998559057602879  1.0000
  Rh  Rh15      1.0  0.002499999894559232  0.0012687809000267163  0.9998559058154035  1.0000
  Rh  Rh16      1.0  0.002499999894559232  0.006277165077344073  4.988561932536989e-05  1.0000
  Rh  Rh17      1.0  0.009999999578236928  0.0024944914856575486  0.9999035474343383  1.0000
  Rh  Rh18      1.0  0.009999999578236928  0.007517093471839576  8.511441177382464e-05  1.0000
  Rh  Rh19      1.0  0.002499999894559232  0.003757076993107196  0.9999470298199679  1.0000
  Rh  Rh20      1.0  0.0025000001341973417  0.008761243861796402  0.00013212975516520593  1.0000
  Rh  Rh21      1.0  0.0  0.0037651085427107232  0.00013130433499891373  1.0000
  Rh  Rh22      1.0  0.0  0.00874703915202957  0.9999467665147791  1.0000
  Rh  Rh23      1.0  0.0025000001341973417  4.578254869984037e-05  1.7600778110485845e-06  1.0000
  Rh  Rh24      1.0  0.0025000001341973417  0.004967698018903403  0.00017522752176617784  1.0000
  Pt  Pt9       1.0  0.004999999789118464  1.8780850304223255e-05  0.9998078504446606  1.0000
  Pt  Pt10      1.0  0.004999999789118464  0.005018780654869289  0.9996156288674836  1.0000
  Pt  Pt11      1.0  0.007499999923315806  0.002518780818307574  0.9997117396585986  1.0000
  Pt  Pt12      1.0  0.007499999923315806  0.007518780731781423  0.9995195180856086  1.0000
  Rh  Rh25      1.0  0.004999999789118464  0.0012687809000267163  0.999663684292909  1.0000
  Rh  Rh26      1.0  0.004999999789118464  0.006268780693325356  0.9994714627152987  1.0000
  Rh  Rh27      1.0  0.007499999923315806  0.0012687809000267163  0.9994714627704143  1.0000
  Rh  Rh28      1.0  0.007499999923315806  0.006268780693325356  0.9996636842377933  1.0000
  Rh  Rh29      1.0  0.004999999789118464  0.002518780818307574  0.9995195181361041  1.0000
  Rh  Rh30      1.0  0.004999999789118464  0.007518780731781423  0.9997117396081031  1.0000
  Rh  Rh31      1.0  0.007499999923315806  0.003768780856763641  0.9995675735064139  1.0000
  Rh  Rh32      1.0  0.007499999923315806  0.008768781250938329  0.999759794996893  1.0000
  Rh  Rh33      1.0  0.004999999789118464  0.003768780856763641  0.9997597950289084  1.0000
  Rh  Rh34      1.0  0.004999999789118464  0.008768781250938329  0.9995675734743985  1.0000
  Rh  Rh35      1.0  0.007499999923315806  1.8780850304223255e-05  0.999615628922166  1.0000
  Rh  Rh36      1.0  0.007499999923315806  0.005018780654869289  0.9998078503899781  1.0000
  Pt  Pt13      1.0  0.005000000268394683  0.009981219325902678  0.0001783135864920645  1.0000
  Pt  Pt14      1.0  0.004999999789118464  0.005055762893150218  2.4559185428620125e-06  1.0000
  Pt  Pt15      1.0  0.007499999923315806  0.0025201527384996055  9.008193995539826e-05  1.0000
  Pt  Pt16      1.0  0.007499999923315806  0.0074923008454120255  0.9999022532816947  1.0000
  Rh  Rh37      1.0  0.004999999789118464  0.001272174287418307  4.7657272461723425e-05  1.0000
  Rh  Rh38      1.0  0.004999999789118464  0.006268780693325356  0.9998559057602879  1.0000
  Rh  Rh39      1.0  0.007499999923315806  0.0012687809000267163  0.9998559058154035  1.0000
  Rh  Rh40      1.0  0.007499999923315806  0.006277165077344073  4.988561932536989e-05  1.0000
  Rh  Rh41      1.0  0.004999999789118464  0.0024944914856575486  0.9999035474343383  1.0000
  Rh  Rh42      1.0  0.004999999789118464  0.007517093471839576  8.511441177382464e-05  1.0000
  Rh  Rh43      1.0  0.007499999923315806  0.003757076993107196  0.9999470298199679  1.0000
  Rh  Rh44      1.0  0.007499999923315806  0.008761243861796402  0.00013212975516520593  1.0000
  Rh  Rh45      1.0  0.004999999789118464  0.0037651085427107232  0.00013130433499891373  1.0000
  Rh  Rh46      1.0  0.004999999789118464  0.00874703915202957  0.9999467665147791  1.0000
  Rh  Rh47      1.0  0.007499999923315806  4.578254869984037e-05  1.7600778110485845e-06  1.0000
  Rh  Rh48      1.0  0.007499999923315806  0.004967698018903403  0.00017522752176617784  1.0000
