data_image0
_chemical_formula_structural       COCa4In4Pt4Ca4In4Pt4
_chemical_formula_sum              "C1 O1 Ca8 In8 Pt8"
_cell_length_a       9.701081231599469
_cell_length_b       7.4033122062683105
_cell_length_c       105.65348052978516
_cell_angle_alpha    90.0
_cell_angle_beta     62.65154711419188
_cell_angle_gamma    90.0

_space_group_name_H-M_alt    "P 1"
_space_group_IT_number       1

loop_
  _space_group_symop_operation_xyz
  'x, y, z'

loop_
  _atom_site_type_symbol
  _atom_site_label
  _atom_site_symmetry_multiplicity
  _atom_site_fract_x
  _atom_site_fract_y
  _atom_site_fract_z
  _atom_site_occupancy
  C   C1        1.0  0.005333356290613392  0.007710754500504352  0.9997349944933628  1.0000
  O   O1        1.0  0.005333356290613392  0.007710754500504352  0.9998485730016512  1.0000
  Ca  Ca1       1.0  0.00334125007290807  0.005356328418708361  0.9996518956125696  1.0000
  Ca  Ca2       1.0  0.001929005545827716  0.00025395495210361305  0.999707717124462  1.0000
  Ca  Ca3       1.0  0.006929033958531329  0.004833048094371002  0.9997077188369802  1.0000
  Ca  Ca4       1.0  0.008341186399399425  0.009730701058575071  0.9996518983887159  1.0000
  In  In1       1.0  0.004377507027673856  0.008548836004112105  0.9994146161660982  1.0000
  In  In2       1.0  0.009377507338951194  0.006538171835898933  0.9994146162432321  1.0000
  In  In3       1.0  0.0006224931755210727  0.0036212448543949645  0.9995831928973388  1.0000
  In  In4       1.0  0.005622480624991768  0.0014657513518082175  0.9995831940811629  1.0000
  Pt  Pt1       1.0  0.0012567780337545825  0.007376234721388578  0.9995504269560418  1.0000
  Pt  Pt2       1.0  0.0037927418543286257  0.0023676233083799294  0.9994392827857138  1.0000
  Pt  Pt3       1.0  0.008792741733276328  0.0027193837164594505  0.9994392828810844  1.0000
  Pt  Pt4       1.0  0.006256793368486737  0.007710754500504352  0.9995504280919116  1.0000
  Ca  Ca5       1.0  0.003253948236557163  0.005340961929768707  0.9992510996676749  1.0000
  Ca  Ca6       1.0  0.0018084168134765877  0.00034096186812764  0.9993120752103043  1.0000
  Ca  Ca7       1.0  0.006808417016671516  0.0047460451252622155  0.9993120752919975  1.0000
  Ca  Ca8       1.0  0.008253948331669684  0.00974604540704995  0.9992510997539271  1.0000
  In  In5       1.0  0.004377507027673856  0.008548836004112105  0.9989927950437627  1.0000
  In  In6       1.0  0.009377507338951194  0.006538171835898933  0.9989927951208968  1.0000
  In  In7       1.0  0.0006848580764010994  0.00354883547072818  0.9991485587096015  1.0000
  In  In8       1.0  0.005684858009390006  0.001538171428313104  0.9991485588026925  1.0000
  Pt  Pt5       1.0  0.0012696231957051254  0.007367623590167663  0.9991238920922654  1.0000
  Pt  Pt6       1.0  0.0037927418543286257  0.0023676233083799294  0.9990174616633783  1.0000
  Pt  Pt7       1.0  0.008792741733276328  0.0027193837164594505  0.999017461758749  1.0000
  Pt  Pt8       1.0  0.006269623182735237  0.0077193837466509934  0.9991238921830768  1.0000
