data_image0
_chemical_formula_structural       COAl18Pd12
_chemical_formula_sum              "C1 O1 Al18 Pd12"
_cell_length_a       9.06769168923358
_cell_length_b       6.767815968942283
_cell_length_c       98.4713363647461
_cell_angle_alpha    84.66047159621392
_cell_angle_beta     89.9381453596275
_cell_angle_gamma    90.26021545544606

_space_group_name_H-M_alt    "P 1"
_space_group_IT_number       1

loop_
  _space_group_symop_operation_xyz
  'x, y, z'

loop_
  _atom_site_type_symbol
  _atom_site_label
  _atom_site_symmetry_multiplicity
  _atom_site_fract_x
  _atom_site_fract_y
  _atom_site_fract_z
  _atom_site_occupancy
  C   C1        1.0  0.007554811420421947  0.0004153626844494082  0.9999797790146981  1.0000
  O   O1        1.0  0.007554811420421947  0.0004153626844494082  0.00010164152979190673  1.0000
  Al  Al1       1.0  0.0008549686415557651  0.005007255441454482  0.9995951050907758  1.0000
  Al  Al2       1.0  0.007521634780983072  0.0026263034331261044  0.9998704698949737  1.0000
  Al  Al3       1.0  0.0041883019680418335  0.008816779085083049  0.9997327875677378  1.0000
  Al  Al4       1.0  0.007593752087046194  0.008682847590872534  0.9997357661589367  1.0000
  Al  Al5       1.0  0.004260419274104956  0.004873323397624944  0.9995980839880886  1.0000
  Al  Al6       1.0  0.0009270858449099211  0.002492371436230255  0.9998734487022836  1.0000
  Al  Al7       1.0  0.0007828514895560922  0.008950711129879161  0.9997298089730532  1.0000
  Al  Al8       1.0  0.00744951829659168  0.0051411877192814905  0.9995921262815978  1.0000
  Al  Al9       1.0  0.004116184661978712  0.0027602352037570895  0.9998674913020069  1.0000
  Al  Al10      1.0  0.0008549686415557651  0.0035786843114171624  0.9991820575934475  1.0000
  Al  Al11      1.0  0.007521634780983072  0.0011977319575631952  0.9994574227025051  1.0000
  Al  Al12      1.0  0.0041883019680418335  0.0073882082314662015  0.9993197400686415  1.0000
  Al  Al13      1.0  0.007593752087046194  0.0072542761844147435  0.9993227189660261  1.0000
  Al  Al14      1.0  0.004260419274104956  0.0034447522675876254  0.9991850364907603  1.0000
  Al  Al15      1.0  0.0009270858449099211  0.0010637999606673465  0.9994604015098149  1.0000
  Al  Al16      1.0  0.0007828514895560922  0.00752213972342137  0.9993167614774928  1.0000
  Al  Al17      1.0  0.00744951829659168  0.0037126163128237003  0.9991790787860374  1.0000
  Al  Al18      1.0  0.004116184661978712  0.0013316639355095354  0.9994544438055626  1.0000
  Pd  Pd1       1.0  0.009217147822293834  0.005667969312220846  0.9998028201816647  1.0000
  Pd  Pd2       1.0  0.0058838150093525965  0.0018584456718141991  0.999665137704631  1.0000
  Pd  Pd3       1.0  0.0025504817855754934  0.009477492727651396  0.9999405025703629  1.0000
  Pd  Pd4       1.0  0.009159454963449411  0.0019655896523475187  0.9996627548932326  1.0000
  Pd  Pd5       1.0  0.005826122150508174  0.009584637401813433  0.9999381200571372  1.0000
  Pd  Pd6       1.0  0.002492788721313139  0.005775113204699539  0.9998004372810756  1.0000
  Pd  Pd7       1.0  0.009217147822293834  0.004239397905763055  0.999389772988754  1.0000
  Pd  Pd8       1.0  0.0058838150093525965  0.0004298742999089675  0.9992520905114992  1.0000
  Pd  Pd9       1.0  0.0025504817855754934  0.00804892187403455  0.9995274553739164  1.0000
  Pd  Pd10      1.0  0.009159454963449411  0.00053701817678461  0.9992497073981143  1.0000
  Pd  Pd11      1.0  0.005826122150508174  0.008156065442514699  0.9995250722624629  1.0000
  Pd  Pd12      1.0  0.002492788721313139  0.004346542074662219  0.9993873897837473  1.0000
