data_image0
_chemical_formula_structural       HCr12Se24Ti6
_chemical_formula_sum              "H1 Cr12 Se24 Ti6"
_cell_length_a       11.395597157572137
_cell_length_b       6.834993541891018
_cell_length_c       101.02848052978516
_cell_angle_alpha    87.15241103048324
_cell_angle_beta     80.62451349962188
_cell_angle_gamma    90.25581558599413

_space_group_name_H-M_alt    "P 1"
_space_group_IT_number       1

loop_
  _space_group_symop_operation_xyz
  'x, y, z'

loop_
  _atom_site_type_symbol
  _atom_site_label
  _atom_site_symmetry_multiplicity
  _atom_site_fract_x
  _atom_site_fract_y
  _atom_site_fract_z
  _atom_site_occupancy
  H   H1        1.0  0.006414393146542309  0.0013458443186431142  0.9999808455580806  1.0000
  Cr  Cr1       1.0  0.004437296810683225  0.002400968722597364  0.999024059093213  1.0000
  Cr  Cr2       1.0  0.009437296810683225  0.00795652452190153  0.9991946846887442  1.0000
  Cr  Cr3       1.0  0.0022254015010295986  0.00946205701303593  0.9989364523420808  1.0000
  Cr  Cr4       1.0  0.007225401501029598  0.005017612201149551  0.9991070778688689  1.0000
  Cr  Cr5       1.0  0.004437296810683225  0.0035120798409845532  0.9993653102150919  1.0000
  Cr  Cr6       1.0  0.009437296810683225  0.009067635094582877  0.9995359361074465  1.0000
  Cr  Cr7       1.0  0.0022254015010295986  0.0005731679295119567  0.9992777036888303  1.0000
  Cr  Cr8       1.0  0.007225401501029598  0.00612872331953674  0.9994483289907478  1.0000
  Cr  Cr9       1.0  0.004442330153347627  0.00420640216907914  0.9997131178372192  1.0000
  Cr  Cr10      1.0  0.009231027843696121  0.00043564196294174616  0.9996683015384326  1.0000
  Cr  Cr11      1.0  0.0022254015010295986  0.0016842790478991457  0.9996189551056985  1.0000
  Cr  Cr12      1.0  0.006750232746536371  0.006355120470313722  0.9997344653135274  1.0000
  Se  Se1       1.0  0.0035968535080575896  0.009068486903249528  0.9990994482358757  1.0000
  Se  Se2       1.0  0.008596853176698626  0.003512931784579946  0.9989288226441456  1.0000
  Se  Se3       1.0  0.003065844803655234  0.0039056494050651123  0.9992023146181205  1.0000
  Se  Se4       1.0  0.008065845135014198  0.008350093547231026  0.9990316887925055  1.0000
  Se  Se5       1.0  0.005695008196495335  0.0054988575304789535  0.998945369753995  1.0000
  Se  Se6       1.0  0.0006950084450145586  0.0010544129229912908  0.9991159952755294  1.0000
  Se  Se7       1.0  0.000967689701018783  0.006364168196460868  0.999015141688939  1.0000
  Se  Se8       1.0  0.005967690115217488  0.0019197238025473443  0.9991857672067113  1.0000
  Se  Se9       1.0  0.0035968535080575896  0.00017959835690474398  0.9994406995808197  1.0000
  Se  Se10      1.0  0.008596853176698626  0.004624042902967135  0.9992700734710352  1.0000
  Se  Se11      1.0  0.003065844803655234  0.005016760523452301  0.9995435657399994  1.0000
  Se  Se12      1.0  0.008065845135014198  0.009461204665618212  0.9993729402093737  1.0000
  Se  Se13      1.0  0.005695008196495335  0.006609968648866142  0.9992866208758738  1.0000
  Se  Se14      1.0  0.0006950084450145586  0.0021655239731652497  0.9994572463976376  1.0000
  Se  Se15      1.0  0.000967689701018783  0.007475279314848057  0.9993563928108179  1.0000
  Se  Se16      1.0  0.005967690115217488  0.0030308347845080727  0.9995270183290488  1.0000
  Se  Se17      1.0  0.0034810587926233662  0.0010760998098816906  0.9997931759446638  1.0000
  Se  Se18      1.0  0.008596853176698626  0.005735153748501403  0.9996113248888205  1.0000
  Se  Se19      1.0  0.0030996606486577045  0.005811860268848975  0.9999041997668282  1.0000
  Se  Se20      1.0  0.0074711280307416285  0.009121308127236879  0.9998320620529222  1.0000
  Se  Se21      1.0  0.00531393445295551  0.007610213263342457  0.9996217448515137  1.0000
  Se  Se22      1.0  0.0005627033964161275  0.0030536080350053235  0.9997983061833983  1.0000
  Se  Se23      1.0  0.0010991443582557688  0.008573163582382866  0.9997050650945171  1.0000
  Se  Se24      1.0  0.005860917641657282  0.0038296531145360787  0.9998806306891999  1.0000
  Ti  Ti1       1.0  0.0058313491558564115  0.008709290221762887  0.9990655686647413  1.0000
  Ti  Ti2       1.0  0.0008313489901769298  0.004264846083074364  0.9992361941923109  1.0000
  Ti  Ti3       1.0  0.0058313491558564115  0.009820401340150078  0.9994068197866202  1.0000
  Ti  Ti4       1.0  0.0008313489901769298  0.005375957201461554  0.9995774453141899  1.0000
  Ti  Ti5       1.0  0.005707916616300104  0.0008478957163360896  0.9997361424476319  1.0000
  Ti  Ti6       1.0  0.0011137827203722673  0.006071028089728419  0.9998834571393582  1.0000
