data_image0
_chemical_formula_structural       Ga6Pd14H
_chemical_formula_sum              "Ga6 Pd14 H1"
_cell_length_a       5.570364091091175
_cell_length_b       7.227116668191089
_cell_length_c       38.17922592163086
_cell_angle_alpha    85.91963831388233
_cell_angle_beta     86.76536201539373
_cell_angle_gamma    104.38509994156969

_space_group_name_H-M_alt    "P 1"
_space_group_IT_number       1

loop_
  _space_group_symop_operation_xyz
  'x, y, z'

loop_
  _atom_site_type_symbol
  _atom_site_label
  _atom_site_symmetry_multiplicity
  _atom_site_fract_x
  _atom_site_fract_y
  _atom_site_fract_z
  _atom_site_occupancy
  Ga  Ga1       1.0  0.0006922687653993285  0.004448508790250004  0.9987280827851736  1.0000
  Ga  Ga2       1.0  0.004069486741068111  0.0008670912367883585  0.9989270801583251  1.0000
  Ga  Ga3       1.0  0.007315050354804859  0.008029925876269281  0.9985290855155694  1.0000
  Ga  Ga4       1.0  0.0009106082171161237  0.005704639422457228  0.9997397148099003  1.0000
  Ga  Ga5       1.0  0.0040375866515364785  0.0021435037259313018  0.9999378891798592  1.0000
  Ga  Ga6       1.0  0.007305809825601206  0.009300355169870288  0.9995743168115837  1.0000
  Pd  Pd1       1.0  0.005692268457274408  0.004448508790250004  0.9987280830296931  1.0000
  Pd  Pd2       1.0  0.00930773053444178  0.0005839113777305985  0.9989428149442133  1.0000
  Pd  Pd3       1.0  0.0020768063382422372  0.00831310620276941  0.9985133511155174  1.0000
  Pd  Pd4       1.0  0.004543114950170736  0.006178789989817513  0.998076303535082  1.0000
  Pd  Pd5       1.0  0.006841422175818103  0.0014682273983633487  0.9983380404091904  1.0000
  Pd  Pd6       1.0  0.009246735337266221  0.00536424468424752  0.9981215627880551  1.0000
  Pd  Pd7       1.0  0.0021378019561818142  0.002282772703933342  0.9982927811548387  1.0000
  Pd  Pd8       1.0  0.00585847526856173  0.005692661144981695  0.9997613264718526  1.0000
  Pd  Pd9       1.0  0.00929672513897989  0.0020673771302037887  0.9999616932045052  1.0000
  Pd  Pd10      1.0  0.0019970817263789357  0.00941608855816302  0.9995894709139497  1.0000
  Pd  Pd11      1.0  0.004543115073649105  0.007428790182136659  0.9991181256474385  1.0000
  Pd  Pd12      1.0  0.006898044723204124  0.002705199036981963  0.9993665762140238  1.0000
  Pd  Pd13      1.0  0.009246735293285393  0.0066142448765666665  0.9991633849017902  1.0000
  Pd  Pd14      1.0  0.002236872852801026  0.0034565594897993583  0.9993265852381488  1.0000
  H   H1        1.0  0.006080480649048348  0.0013830191987416825  1.9144442067642866e-05  1.0000
