data_image0
_chemical_formula_structural       Ir8V8Ir8V8CO
_chemical_formula_sum              "Ir16 V16 C1 O1"
_cell_length_a       8.140087127685547
_cell_length_b       5.264407761760125
_cell_length_c       38.514862060546875
_cell_angle_alpha    86.31182914602353
_cell_angle_beta     90.0
_cell_angle_gamma    90.0

_space_group_name_H-M_alt    "P 1"
_space_group_IT_number       1

loop_
  _space_group_symop_operation_xyz
  'x, y, z'

loop_
  _atom_site_type_symbol
  _atom_site_label
  _atom_site_symmetry_multiplicity
  _atom_site_fract_x
  _atom_site_fract_y
  _atom_site_fract_z
  _atom_site_occupancy
  Ir  Ir1       1.0  0.00125  0.0033010254270109877  0.9973945170383937  1.0000
  Ir  Ir2       1.0  0.00125  0.0016343587532532636  0.9987569841310753  1.0000
  Ir  Ir3       1.0  0.0012500011441186807  0.005280653962600789  0.9993384716867957  1.0000
  Ir  Ir4       1.0  0.00125  0.006959139478758959  0.9979926040434693  1.0000
  Ir  Ir5       1.0  0.00375  0.009852903505437492  0.9976546620235153  1.0000
  Ir  Ir6       1.0  0.00375  0.008186237008956198  0.9990171291146381  1.0000
  Ir  Ir7       1.0  0.00375  0.004528123311761089  0.998419042106445  1.0000
  Ir  Ir8       1.0  0.003750000228823736  0.002854175363139282  0.9997594134902549  1.0000
  V   V1        1.0  0.0012499998855881318  0.0001470967033055071  0.9994821701696482  1.0000
  V   V2        1.0  0.00125  0.0018364092113106016  0.9980782053733537  1.0000
  V   V3        1.0  0.0012500010297068127  0.005258418534371727  0.9999537656497616  1.0000
  V   V4        1.0  0.00125  0.006866904678854299  0.9986585585714234  1.0000
  V   V5        1.0  0.003749999771176264  0.00802890488525512  0.9997028254340847  1.0000
  V   V6        1.0  0.00375  0.009650853047380153  0.9983334407812369  1.0000
  V   V7        1.0  0.00375  0.002953691260631594  0.9991155546727313  1.0000
  V   V8        1.0  0.00375  0.004620358111665749  0.997753087578491  1.0000
  Ir  Ir9       1.0  0.0062499999999999995  0.0033010254270109877  0.9973945170383937  1.0000
  Ir  Ir10      1.0  0.0062499999999999995  0.0016343587532532636  0.9987569841310753  1.0000
  Ir  Ir11      1.0  0.006250001372942416  0.005280653962600789  0.9993384716867957  1.0000
  Ir  Ir12      1.0  0.0062499999999999995  0.006959139478758959  0.9979926040434693  1.0000
  Ir  Ir13      1.0  0.008749999999999999  0.009852903505437492  0.9976546620235153  1.0000
  Ir  Ir14      1.0  0.008749999999999999  0.008186237008956198  0.9990171291146381  1.0000
  Ir  Ir15      1.0  0.008749999999999999  0.004528123311761089  0.998419042106445  1.0000
  Ir  Ir16      1.0  0.008749999999999999  0.002854175363139282  0.9997594134902549  1.0000
  V   V9        1.0  0.0062499999999999995  0.0001470967033055071  0.9994821701696482  1.0000
  V   V10       1.0  0.0062499999999999995  0.0018364092113106016  0.9980782053733537  1.0000
  V   V11       1.0  0.006250001372942416  0.005258418534371727  0.9999537656497616  1.0000
  V   V12       1.0  0.0062499999999999995  0.006866904678854299  0.9986585585714234  1.0000
  V   V13       1.0  0.008749999999999999  0.00802890488525512  0.9997028254340847  1.0000
  V   V14       1.0  0.008749999999999999  0.009650853047380153  0.9983334407812369  1.0000
  V   V15       1.0  0.008749999999999999  0.002953691260631594  0.9991155546727313  1.0000
  V   V16       1.0  0.008749999999999999  0.004620358111665749  0.997753087578491  1.0000
  C   C1        1.0  0.003749999771176264  0.0054912980729433574  0.9999284703950433  1.0000
  O   O1        1.0  0.003749999771176264  0.0054912980729433574  0.0002400382905094398  1.0000
