data_image0
_chemical_formula_structural       HPd8Ti4
_chemical_formula_sum              "H1 Pd8 Ti4"
_cell_length_a       4.637462139129639
_cell_length_b       5.000176394128151
_cell_length_c       98.76083374023438
_cell_angle_alpha    90.10594080651576
_cell_angle_beta     90.0
_cell_angle_gamma    90.0

_space_group_name_H-M_alt    "P 1"
_space_group_IT_number       1

loop_
  _space_group_symop_operation_xyz
  'x, y, z'

loop_
  _atom_site_type_symbol
  _atom_site_label
  _atom_site_symmetry_multiplicity
  _atom_site_fract_x
  _atom_site_fract_y
  _atom_site_fract_z
  _atom_site_occupancy
  H   H1        1.0  0.007500009254058136  0.0005591210877450337  9.751923557328927e-05  1.0000
  Pd  Pd1       1.0  1.1549999789422417e-08  0.009440878504349373  0.999945380006871  1.0000
  Pd  Pd2       1.0  0.0050000037594611175  0.0015337726245378174  0.9997424863334506  1.0000
  Pd  Pd3       1.0  0.009999996272671029  0.004371321607927705  6.168270915643603e-05  1.0000
  Pd  Pd4       1.0  0.005000008980934892  0.006421214108003043  0.9998841020568863  1.0000
  Pd  Pd5       1.0  3.849999802125795e-09  0.0036766296966168205  0.9995344740853509  1.0000
  Pd  Pd6       1.0  0.0050000037594611175  0.0058194866755666924  0.9993264618372424  1.0000
  Pd  Pd7       1.0  3.849999802125795e-09  0.008593822119199184  0.9996646530768628  1.0000
  Pd  Pd8       1.0  0.0050000037594611175  0.0007366795526192167  0.999456641057665  1.0000
  Ti  Ti1       1.0  6.249999867810853e-09  0.004059533472105772  0.9998054154615515  1.0000
  Ti  Ti2       1.0  0.005000007374327577  0.0016645533978060696  1.5582556291737944e-07  1.0000
  Ti  Ti3       1.0  3.849999802125795e-09  0.008278083073116137  0.9993915516347784  1.0000
  Ti  Ti4       1.0  0.0050000037594611175  0.006135226094166265  0.9995995635811242  1.0000
