data_image0
_chemical_formula_structural       HIr8Sn16
_chemical_formula_sum              "H1 Ir8 Sn16"
_cell_length_a       4.572421073913574
_cell_length_b       11.200098037719727
_cell_length_c       101.67866516113281
_cell_angle_alpha    90.0
_cell_angle_beta     90.0
_cell_angle_gamma    90.0

_space_group_name_H-M_alt    "P 1"
_space_group_IT_number       1

loop_
  _space_group_symop_operation_xyz
  'x, y, z'

loop_
  _atom_site_type_symbol
  _atom_site_label
  _atom_site_symmetry_multiplicity
  _atom_site_fract_x
  _atom_site_fract_y
  _atom_site_fract_z
  _atom_site_occupancy
  H   H1        1.0  0.002500005018739059  0.0033016709446461617  5.39649530217316e-05  1.0000
  Ir  Ir1       1.0  5.850000097548327e-09  0.0036756232877651297  0.9999848588849247  1.0000
  Ir  Ir2       1.0  1.449999947808086e-09  0.003783188773112137  0.9992324769516927  1.0000
  Ir  Ir3       1.0  1.449999947808086e-09  0.0004498553000816406  0.9994921075942585  1.0000
  Ir  Ir4       1.0  0.009999998891966701  0.007083067270107323  0.9997573206766734  1.0000
  Ir  Ir5       1.0  0.005000001482809267  0.007116522079836487  0.9993622922729757  1.0000
  Ir  Ir6       1.0  0.005000001482809267  0.003783188773112137  0.9996219229155414  1.0000
  Ir  Ir7       1.0  0.004999993335505599  0.00038347802659944685  0.9998778962188005  1.0000
  Ir  Ir8       1.0  0.005000001482809267  0.0004498553000816406  0.9991026619235128  1.0000
  Sn  Sn1       1.0  1.449999947808086e-09  0.00628318925207384  0.9992324769516927  1.0000
  Sn  Sn2       1.0  1.449999947808086e-09  0.002949855280124903  0.9994921075942585  1.0000
  Sn  Sn3       1.0  0.009999993188854134  0.009554948705756072  0.999749052240879  1.0000
  Sn  Sn4       1.0  2.5349999516224086e-08  0.006052953691896411  1.5083666886117185e-05  1.0000
  Sn  Sn5       1.0  0.005000001482809267  0.004616522266099371  0.9993622922729757  1.0000
  Sn  Sn6       1.0  0.005000001482809267  0.0012831887930688749  0.9996219229155414  1.0000
  Sn  Sn7       1.0  0.004999997409157434  0.00792825905659105  0.9998919968182051  1.0000
  Sn  Sn8       1.0  0.005000001482809267  0.007949855572823721  0.9991026619235128  1.0000
  Sn  Sn9       1.0  0.005000001482809267  0.00628318925207384  0.9996219229155414  1.0000
  Sn  Sn10      1.0  0.005000004334365551  0.0029277182689149  0.9998807293524549  1.0000
  Sn  Sn11      1.0  0.005000001482809267  0.002949855280124903  0.9991026619235128  1.0000
  Sn  Sn12      1.0  0.005000001482809267  0.00961652255879819  0.9993622922729757  1.0000
  Sn  Sn13      1.0  1.449999947808086e-09  0.007949855572823721  0.9994921075942585  1.0000
  Sn  Sn14      1.0  2.3500000225837847e-09  0.004609482526902321  0.9997453667636836  1.0000
  Sn  Sn15      1.0  0.0099999915593934  0.0011892460262835876  0.0  1.0000
  Sn  Sn16      1.0  1.449999947808086e-09  0.0012831887930688749  0.9992324769516927  1.0000
