data_image0
_chemical_formula_structural       COAl4Cu8Ti4Al4Cu8Ti4Al4Cu8Ti4Al4Cu8Ti4
_chemical_formula_sum              "C1 O1 Al16 Cu32 Ti16"
_cell_length_a       8.60367488861084
_cell_length_b       8.60367488861084
_cell_length_c       106.50230407714844
_cell_angle_alpha    90.0
_cell_angle_beta     90.0
_cell_angle_gamma    90.0

_space_group_name_H-M_alt    "P 1"
_space_group_IT_number       1

loop_
  _space_group_symop_operation_xyz
  'x, y, z'

loop_
  _atom_site_type_symbol
  _atom_site_label
  _atom_site_symmetry_multiplicity
  _atom_site_fract_x
  _atom_site_fract_y
  _atom_site_fract_z
  _atom_site_occupancy
  C   C1        1.0  0.004999996553413377  0.00250000260658938  0.0001626281746370027  1.0000
  O   O1        1.0  0.004999996553413377  0.00250000260658938  0.0002753020216741753  1.0000
  Al  Al1       1.0  1.000000012326866e-10  5.500000293618743e-10  0.999573134201191  1.0000
  Al  Al2       1.0  0.002500002823083515  0.0025000002251539  0.9998656529178758  1.0000
  Al  Al3       1.0  1.000000012326866e-10  5.500000293618743e-10  0.9990019051582903  1.0000
  Al  Al4       1.0  0.0025000002251539  0.002500000658142169  0.9992875196797407  1.0000
  Cu  Cu1       1.0  0.009999996570732908  0.00250000260658938  0.9999999983210323  1.0000
  Cu  Cu2       1.0  0.002500002823083515  2.150000100701084e-09  0.0  1.0000
  Cu  Cu3       1.0  0.0025000002251539  5.500000293618743e-10  0.9997159410421742  1.0000
  Cu  Cu4       1.0  1.000000012326866e-10  0.002500000658142169  0.9997159410421742  1.0000
  Cu  Cu5       1.0  1.000000012326866e-10  0.002500000658142169  0.9994303268005519  1.0000
  Cu  Cu6       1.0  0.0025000002251539  5.500000293618743e-10  0.9994303268005519  1.0000
  Cu  Cu7       1.0  0.0025000002251539  5.500000293618743e-10  0.9991447125589296  1.0000
  Cu  Cu8       1.0  1.000000012326866e-10  0.002500000658142169  0.9991447125589296  1.0000
  Ti  Ti1       1.0  0.010000000034639061  0.010000000034639061  0.9998559658335883  1.0000
  Ti  Ti2       1.0  0.0025000002251539  0.002500000658142169  0.999573134201191  1.0000
  Ti  Ti3       1.0  1.000000012326866e-10  5.500000293618743e-10  0.9992875196797407  1.0000
  Ti  Ti4       1.0  0.0025000002251539  0.002500000658142169  0.9990019051582903  1.0000
  Al  Al5       1.0  1.000000012326866e-10  0.005000000883296069  0.999573134201191  1.0000
  Al  Al6       1.0  0.002500002823083515  0.007500000242473431  0.9998656529178758  1.0000
  Al  Al7       1.0  1.000000012326866e-10  0.005000000883296069  0.9990019051582903  1.0000
  Al  Al8       1.0  0.0025000002251539  0.007500001108449969  0.9992875196797407  1.0000
  Cu  Cu9       1.0  0.009999996570732908  0.007500002840403045  0.9999999983210323  1.0000
  Cu  Cu10      1.0  0.002500002823083515  0.0050000021822608764  0.0  1.0000
  Cu  Cu11      1.0  0.0025000002251539  0.005000000883296069  0.9997159410421742  1.0000
  Cu  Cu12      1.0  1.000000012326866e-10  0.007500001108449969  0.9997159410421742  1.0000
  Cu  Cu13      1.0  1.000000012326866e-10  0.007500001108449969  0.9994303268005519  1.0000
  Cu  Cu14      1.0  0.0025000002251539  0.005000000883296069  0.9994303268005519  1.0000
  Cu  Cu15      1.0  0.0025000002251539  0.005000000883296069  0.9991447125589296  1.0000
  Cu  Cu16      1.0  1.000000012326866e-10  0.007500001108449969  0.9991447125589296  1.0000
  Ti  Ti5       1.0  0.010000000034639061  0.004999999584331261  0.9998559658335883  1.0000
  Ti  Ti6       1.0  0.0025000002251539  0.007500001108449969  0.999573134201191  1.0000
  Ti  Ti7       1.0  1.000000012326866e-10  0.005000000883296069  0.9992875196797407  1.0000
  Ti  Ti8       1.0  0.0025000002251539  0.007500001108449969  0.9990019051582903  1.0000
  Al  Al9       1.0  0.0050000004503078  5.500000293618743e-10  0.999573134201191  1.0000
  Al  Al10      1.0  0.007500002840403045  0.0025000002251539  0.9998656529178758  1.0000
  Al  Al11      1.0  0.0050000004503078  5.500000293618743e-10  0.9990019051582903  1.0000
  Al  Al12      1.0  0.007500000242473431  0.002500000658142169  0.9992875196797407  1.0000
  Cu  Cu17      1.0  0.004999996553413377  0.00250000260658938  0.9999999983210323  1.0000
  Cu  Cu18      1.0  0.007500002840403045  2.150000100701084e-09  0.0  1.0000
  Cu  Cu19      1.0  0.007500000242473431  5.500000293618743e-10  0.9997159410421742  1.0000
  Cu  Cu20      1.0  0.0050000004503078  0.002500000658142169  0.9997159410421742  1.0000
  Cu  Cu21      1.0  0.0050000004503078  0.002500000658142169  0.9994303268005519  1.0000
  Cu  Cu22      1.0  0.007500000242473431  5.500000293618743e-10  0.9994303268005519  1.0000
  Cu  Cu23      1.0  0.007500000242473431  5.500000293618743e-10  0.9991447125589296  1.0000
  Cu  Cu24      1.0  0.0050000004503078  0.002500000658142169  0.9991447125589296  1.0000
  Ti  Ti9       1.0  0.0050000000173195305  0.010000000034639061  0.9998559658335883  1.0000
  Ti  Ti10      1.0  0.007500000242473431  0.002500000658142169  0.999573134201191  1.0000
  Ti  Ti11      1.0  0.0050000004503078  5.500000293618743e-10  0.9992875196797407  1.0000
  Ti  Ti12      1.0  0.007500000242473431  0.002500000658142169  0.9990019051582903  1.0000
  Al  Al13      1.0  0.0050000004503078  0.005000000883296069  0.999573134201191  1.0000
  Al  Al14      1.0  0.007500002840403045  0.007500000242473431  0.9998656529178758  1.0000
  Al  Al15      1.0  0.0050000004503078  0.005000000883296069  0.9990019051582903  1.0000
  Al  Al16      1.0  0.007500000242473431  0.007500001108449969  0.9992875196797407  1.0000
  Cu  Cu25      1.0  0.004999996553413377  0.007500002840403045  0.9999999983210323  1.0000
  Cu  Cu26      1.0  0.007500002840403045  0.0050000021822608764  0.0  1.0000
  Cu  Cu27      1.0  0.007500000242473431  0.005000000883296069  0.9997159410421742  1.0000
  Cu  Cu28      1.0  0.0050000004503078  0.007500001108449969  0.9997159410421742  1.0000
  Cu  Cu29      1.0  0.0050000004503078  0.007500001108449969  0.9994303268005519  1.0000
  Cu  Cu30      1.0  0.007500000242473431  0.005000000883296069  0.9994303268005519  1.0000
  Cu  Cu31      1.0  0.007500000242473431  0.005000000883296069  0.9991447125589296  1.0000
  Cu  Cu32      1.0  0.0050000004503078  0.007500001108449969  0.9991447125589296  1.0000
  Ti  Ti13      1.0  0.0050000000173195305  0.004999999584331261  0.9998559658335883  1.0000
  Ti  Ti14      1.0  0.007500000242473431  0.007500001108449969  0.999573134201191  1.0000
  Ti  Ti15      1.0  0.0050000004503078  0.005000000883296069  0.9992875196797407  1.0000
  Ti  Ti16      1.0  0.007500000242473431  0.007500001108449969  0.9990019051582903  1.0000
