data_image0
_chemical_formula_structural       HNa24Ag12As12
_chemical_formula_sum              "H1 Na24 Ag12 As12"
_cell_length_a       5.768052577972412
_cell_length_b       17.487300736901734
_cell_length_c       105.14430236816406
_cell_angle_alpha    98.79817117376246
_cell_angle_beta     90.0
_cell_angle_gamma    90.0

_space_group_name_H-M_alt    "P 1"
_space_group_IT_number       1

loop_
  _space_group_symop_operation_xyz
  'x, y, z'

loop_
  _atom_site_type_symbol
  _atom_site_label
  _atom_site_symmetry_multiplicity
  _atom_site_fract_x
  _atom_site_fract_y
  _atom_site_fract_z
  _atom_site_occupancy
  H   H1        1.0  0.0025182456765015914  0.009542211039677723  0.00024274356346686712  1.0000
  Na  Na1       1.0  0.0075182499584796674  0.001620973141486397  0.00013587542769402582  1.0000
  Na  Na2       1.0  0.007518249312630788  0.008488799252248772  0.999393990158783  1.0000
  Na  Na3       1.0  0.007518249312630788  0.005155466206335191  0.999765377103884  1.0000
  Na  Na4       1.0  0.002518249551594873  0.00495009976339606  0.9993918325424368  1.0000
  Na  Na5       1.0  0.002518249551594873  0.0016167666097000718  0.999763219484796  1.0000
  Na  Na6       1.0  0.0025182518120659535  0.008272304060206391  0.00012622784933629077  1.0000
  Na  Na7       1.0  0.007518249312630788  0.003969444549831687  0.9995010932999961  1.0000
  Na  Na8       1.0  0.007518245437537506  0.0006071616882691353  0.9998689496207208  1.0000
  Na  Na9       1.0  0.007518249312630788  0.007302778026874897  0.9991297063658626  1.0000
  Na  Na10      1.0  0.0025182482598971124  0.002656593179184372  1.522117381818868e-05  1.0000
  Na  Na11      1.0  0.002518249551594873  0.009469454465813145  0.9992847294012237  1.0000
  Na  Na12      1.0  0.002518249551594873  0.006136121419899564  0.9996561163463247  1.0000
  Na  Na13      1.0  0.007518249312630788  0.005155466206335191  0.999208296589492  1.0000
  Na  Na14      1.0  0.007518249312630788  0.0018221331604216103  0.9995796838180351  1.0000
  Na  Na15      1.0  0.007518244791688626  0.008499347269742288  0.9999446880343776  1.0000
  Na  Na16      1.0  0.002518249551594873  0.0016167666097000718  0.9992061389704039  1.0000
  Na  Na17      1.0  0.002518249551594873  0.008283433240439269  0.9995775261226953  1.0000
  Na  Na18      1.0  0.0025182476140482323  0.005213952820622482  0.9999541334384037  1.0000
  Na  Na19      1.0  0.0075182499584796674  0.004127477701975609  2.7004386664766768e-05  1.0000
  Na  Na20      1.0  0.007518249312630788  0.000636111396135699  0.9993153997279633  1.0000
  Na  Na21      1.0  0.007518249312630788  0.007302778026874897  0.9996867868802547  1.0000
  Na  Na22      1.0  0.002518249551594873  0.002802788158421169  0.9994704227715498  1.0000
  Na  Na23      1.0  0.002518249551594873  0.009469454465813145  0.9998418096321735  1.0000
  Na  Na24      1.0  0.002518249551594873  0.006136121419899564  0.9990990358319326  1.0000
  Ag  Ag1       1.0  0.00501824967430616  0.003386116461908835  0.9992072177813189  1.0000
  Ag  Ag2       1.0  0.00501824967430616  5.278320043043982e-05  0.9995786047209362  1.0000
  Ag  Ag3       1.0  0.005054801491681508  0.006736211612217869  0.9999487181891246  1.0000
  Ag  Ag4       1.0  1.8249649632714397e-05  0.003386116461908835  0.9992072177813189  1.0000
  Ag  Ag5       1.0  1.8249649632714397e-05  5.278320043043982e-05  0.9995786047209362  1.0000
  Ag  Ag6       1.0  0.009981750093188245  0.006736229288532642  0.9999487260082858  1.0000
  Ag  Ag7       1.0  0.00501824967430616  0.003386116461908835  0.999764298579153  1.0000
  Ag  Ag8       1.0  0.005142939519590116  0.00994721679956956  0.00012229576420064132  1.0000
  Ag  Ag9       1.0  0.00501824967430616  0.00671944972338723  0.9993929113560936  1.0000
  Ag  Ag10      1.0  1.8249649632714397e-05  0.003386116461908835  0.999764298579153  1.0000
  Ag  Ag11      1.0  0.009893545219920535  0.009947215075051046  0.00012229175214127972  1.0000
  Ag  Ag12      1.0  1.8249649632714397e-05  0.00671944972338723  0.9993929113560936  1.0000
  As  As1       1.0  0.002518249551594873  0.004346046196401964  0.9991002661950559  1.0000
  As  As2       1.0  0.002518249551594873  0.0010127128271411622  0.9994716534153734  1.0000
  As  As3       1.0  0.002518249551594873  0.007679379242315545  0.9998430399952968  1.0000
  As  As4       1.0  0.007518249312630788  0.00242618694298052  0.9993141693730656  1.0000
  As  As5       1.0  0.007518249312630788  0.009092853250372497  0.9996855565171314  1.0000
  As  As6       1.0  0.007518249312630788  0.005778286846062579  5.33752962024509e-05  1.0000
  As  As7       1.0  0.002518249551594873  0.004346046196401964  0.999657346709448  1.0000
  As  As8       1.0  0.002518252457914834  0.0010032333644321505  4.021311349189476e-05  1.0000
  As  As9       1.0  0.002518249551594873  0.007679379242315545  0.999285959764347  1.0000
  As  As10      1.0  0.007518249312630788  0.005759520204458915  0.9994998629478403  1.0000
  As  As11      1.0  0.007518248666781907  0.002493074333646046  0.9998904517130238  1.0000
  As  As12      1.0  0.007518249312630788  0.009092853250372497  0.9991284760027394  1.0000
