data_image0
_chemical_formula_structural       HIr3Sn6
_chemical_formula_sum              "H1 Ir3 Sn6"
_cell_length_a       4.572421073913574
_cell_length_b       4.572421160442107
_cell_length_c       103.60029602050781
_cell_angle_alpha    90.0
_cell_angle_beta     90.0
_cell_angle_gamma    119.99999937399886

_space_group_name_H-M_alt    "P 1"
_space_group_IT_number       1

loop_
  _space_group_symop_operation_xyz
  'x, y, z'

loop_
  _atom_site_type_symbol
  _atom_site_label
  _atom_site_symmetry_multiplicity
  _atom_site_fract_x
  _atom_site_fract_y
  _atom_site_fract_z
  _atom_site_occupancy
  H   H1        1.0  0.009999999482709241  0.009999997629260685  0.00015877285718830515  1.0000
  Ir  Ir1       1.0  0.0033333335020615273  0.0066666666541230725  0.9993486295306581  1.0000
  Ir  Ir2       1.0  0.009999999482709241  0.009999997629260685  3.984927330961158e-05  1.0000
  Ir  Ir3       1.0  0.006666667041840681  0.0033333335622539287  0.9997089920847467  1.0000
  Sn  Sn1       1.0  0.0033333335020615273  0.0066666666541230725  0.9996189013023914  1.0000
  Sn  Sn2       1.0  3.9999998877456395e-10  3.4999998872299277e-10  0.9992585390359691  1.0000
  Sn  Sn3       1.0  0.006666666273243903  0.0033333312103300053  0.0  1.0000
  Sn  Sn4       1.0  1.1241469286489554e-09  0.009999999510799825  0.9997924751702948  1.0000
  Sn  Sn5       1.0  0.006666667041840681  0.0033333335622539287  0.9994387200253471  1.0000
  Sn  Sn6       1.0  0.0033333335020615273  0.0066666666541230725  0.9990783577589247  1.0000
