data_image0
_chemical_formula_structural       Pt8V4CO
_chemical_formula_sum              "Pt8 V4 C1 O1"
_cell_length_a       4.720427361970623
_cell_length_b       4.841635072314429
_cell_length_c       38.290283203125
_cell_angle_alpha    94.40477207601059
_cell_angle_beta     90.62537926840348
_cell_angle_gamma    80.99404037542068

_space_group_name_H-M_alt    "P 1"
_space_group_IT_number       1

loop_
  _space_group_symop_operation_xyz
  'x, y, z'

loop_
  _atom_site_type_symbol
  _atom_site_label
  _atom_site_symmetry_multiplicity
  _atom_site_fract_x
  _atom_site_fract_y
  _atom_site_fract_z
  _atom_site_occupancy
  Pt  Pt1       1.0  0.008728207020247165  0.003808464836530846  0.9987301082359274  1.0000
  Pt  Pt2       1.0  0.0024782072584833134  0.0013084647779338144  0.9982125208293848  1.0000
  Pt  Pt3       1.0  0.00792663302493436  0.008617908384119511  0.9983982007082394  1.0000
  Pt  Pt4       1.0  0.0041766332580247915  0.0011179081106666973  0.9989157882698027  1.0000
  Pt  Pt5       1.0  0.0012257483167815205  0.00888209192839799  0.999805348942692  1.0000
  Pt  Pt6       1.0  0.004978206900582324  0.006308464992789597  0.9992476960736032  1.0000
  Pt  Pt7       1.0  0.00042257948978654706  0.0036101869360934216  0.9994335614673577  1.0000
  Pt  Pt8       1.0  0.006638332582704209  0.005914096423774732  0.9999521230625164  1.0000
  V   V1        1.0  0.009577420391503697  0.008713186375937054  0.9990817418970288  1.0000
  V   V2        1.0  0.0033274203856374714  0.006213186610325178  0.998564154493003  1.0000
  V   V3        1.0  0.001992505221666421  0.003875786965945093  4.031989323439532e-05  1.0000
  V   V4        1.0  0.005886701087593791  0.0011851601189666622  0.9995924317778719  1.0000
  C   C1        1.0  0.0012257483167815205  0.00888209192839799  0.000327674560436279  1.0000
  O   O1        1.0  0.0012257483167815205  0.00888209192839799  0.0006410698532502355  1.0000
