data_image0
_chemical_formula_structural       COGa16Pt8Ga16Pt8
_chemical_formula_sum              "C1 O1 Ga32 Pt16"
_cell_length_a       8.544017791748047
_cell_length_b       10.464241999116636
_cell_length_c       109.61698150634766
_cell_angle_alpha    95.05115259364155
_cell_angle_beta     90.0
_cell_angle_gamma    90.0

_space_group_name_H-M_alt    "P 1"
_space_group_IT_number       1

loop_
  _space_group_symop_operation_xyz
  'x, y, z'

loop_
  _atom_site_type_symbol
  _atom_site_label
  _atom_site_symmetry_multiplicity
  _atom_site_fract_x
  _atom_site_fract_y
  _atom_site_fract_z
  _atom_site_occupancy
  C   C1        1.0  0.005000000191845075  0.0028099130264060894  0.00017751036225844302  1.0000
  O   O1        1.0  0.005000000191845075  0.0028099130264060894  0.0002869821297633292  1.0000
  Ga  Ga1       1.0  0.0025000000959225373  0.004218750257320694  0.9994708668996921  1.0000
  Ga  Ga2       1.0  0.0025000000959225373  0.001093750007147797  0.9996967498332517  1.0000
  Ga  Ga3       1.0  0.0025000000959225373  0.00807398500023925  0.9999291248384087  1.0000
  Ga  Ga4       1.0  0.0025000000959225373  0.007343750328798664  0.9992449836927536  1.0000
  Ga  Ga5       1.0  0.0  0.005781250114364752  0.9993579251587824  1.0000
  Ga  Ga6       1.0  0.0  0.002656250042886782  0.999583808365721  1.0000
  Ga  Ga7       1.0  0.0  0.009502841781122148  0.9998074682162671  1.0000
  Ga  Ga8       1.0  9.999999910817625e-11  0.006284924994105641  3.467669309462377e-05  1.0000
  Ga  Ga9       1.0  0.0  0.007656249871339653  0.999583808013558  1.0000
  Ga  Ga10      1.0  0.01000000038369015  0.00453792191101489  0.9998039739938086  1.0000
  Ga  Ga11      1.0  0.01000000038369015  0.0014413133361435803  1.2114165189247173e-05  1.0000
  Ga  Ga12      1.0  0.0  0.0007812500178694926  0.9993579252368158  1.0000
  Ga  Ga13      1.0  0.0025000000959225373  0.0060937500142955936  0.9996967500263444  1.0000
  Ga  Ga14      1.0  0.0024999998779167707  0.003076863589657071  0.9999260548809351  1.0000
  Ga  Ga15      1.0  0.0025000000959225373  0.002343749964261015  0.999244983768534  1.0000
  Ga  Ga16      1.0  0.0025000000959225373  0.009218750443163417  0.9994708665505329  1.0000
  Pt  Pt1       1.0  0.01000000038369015  0.003885910586113868  2.5655157263399793e-05  1.0000
  Pt  Pt2       1.0  0.0  0.0032812502001383173  0.999357925334864  1.0000
  Pt  Pt3       1.0  0.0  0.0001562500058075851  0.999583808268893  1.0000
  Pt  Pt4       1.0  9.999999910817625e-11  0.007038635890166287  0.9998169535120084  1.0000
  Pt  Pt5       1.0  0.0025000000959225373  0.006718749814157277  0.9994708669924836  1.0000
  Pt  Pt6       1.0  0.0025000000959225373  0.0035937501000691584  0.999696749930549  1.0000
  Pt  Pt7       1.0  0.0025000000959225373  0.0005133486189163784  0.9999201328884141  1.0000
  Pt  Pt8       1.0  0.0025000000959225373  0.009843750243025098  0.999244983788549  1.0000
  Ga  Ga17      1.0  0.007500000069761845  0.004218750257320694  0.9994708668996921  1.0000
  Ga  Ga18      1.0  0.007500000069761845  0.001093750007147797  0.9996967498332517  1.0000
  Ga  Ga19      1.0  0.007500000069761845  0.00807398500023925  0.9999291248384087  1.0000
  Ga  Ga20      1.0  0.007500000069761845  0.007343750328798664  0.9992449836927536  1.0000
  Ga  Ga21      1.0  0.005000000191845075  0.005781250114364752  0.9993579251587824  1.0000
  Ga  Ga22      1.0  0.005000000191845075  0.002656250042886782  0.999583808365721  1.0000
  Ga  Ga23      1.0  0.005000000191845075  0.009502841781122148  0.9998074682162671  1.0000
  Ga  Ga24      1.0  0.005000000191845075  0.006284924994105641  3.467669309462377e-05  1.0000
  Ga  Ga25      1.0  0.005000000191845075  0.007656249871339653  0.999583808013558  1.0000
  Ga  Ga26      1.0  0.005000000191845075  0.00453792191101489  0.9998039739938086  1.0000
  Ga  Ga27      1.0  0.005000000191845075  0.0014413133361435803  1.2114165189247173e-05  1.0000
  Ga  Ga28      1.0  0.005000000191845075  0.0007812500178694926  0.9993579252368158  1.0000
  Ga  Ga29      1.0  0.007500000069761845  0.0060937500142955936  0.9996967500263444  1.0000
  Ga  Ga30      1.0  0.007500000069761845  0.003076863589657071  0.9999260548809351  1.0000
  Ga  Ga31      1.0  0.007500000069761845  0.002343749964261015  0.999244983768534  1.0000
  Ga  Ga32      1.0  0.007500000069761845  0.009218750443163417  0.9994708665505329  1.0000
  Pt  Pt9       1.0  0.005000000191845075  0.003885910586113868  2.5655157263399793e-05  1.0000
  Pt  Pt10      1.0  0.005000000191845075  0.0032812502001383173  0.999357925334864  1.0000
  Pt  Pt11      1.0  0.005000000191845075  0.0001562500058075851  0.999583808268893  1.0000
  Pt  Pt12      1.0  0.005000000191845075  0.007038635890166287  0.9998169535120084  1.0000
  Pt  Pt13      1.0  0.007500000069761845  0.006718749814157277  0.9994708669924836  1.0000
  Pt  Pt14      1.0  0.007500000069761845  0.0035937501000691584  0.999696749930549  1.0000
  Pt  Pt15      1.0  0.007500000069761845  0.0005133486189163784  0.9999201328884141  1.0000
  Pt  Pt16      1.0  0.007500000069761845  0.009843750243025098  0.999244983788549  1.0000
