data_image0
_chemical_formula_structural       HHf24
_chemical_formula_sum              "H1 Hf24"
_cell_length_a       5.565560817718506
_cell_length_b       10.691602054184244
_cell_length_c       102.13278198242188
_cell_angle_alpha    98.6426387475447
_cell_angle_beta     90.0
_cell_angle_gamma    105.08651174546449

_space_group_name_H-M_alt    "P 1"
_space_group_IT_number       1

loop_
  _space_group_symop_operation_xyz
  'x, y, z'

loop_
  _atom_site_type_symbol
  _atom_site_label
  _atom_site_symmetry_multiplicity
  _atom_site_fract_x
  _atom_site_fract_y
  _atom_site_fract_z
  _atom_site_occupancy
  H   H1        1.0  0.009867978442258417  0.0015552475791098903  0.0002476012037401049  1.0000
  Hf  Hf1       1.0  0.0022153548011978994  0.0012500000694109453  0.9998623549341781  1.0000
  Hf  Hf2       1.0  0.004715354985684886  0.006250000438384918  0.9999410093639788  1.0000
  Hf  Hf3       1.0  0.009715354630931084  0.006250000438384918  9.831803689168642e-05  1.0000
  Hf  Hf4       1.0  0.007215354446444097  0.0012500000694109453  1.9663607090996338e-05  1.0000
  Hf  Hf5       1.0  0.00013202150499735162  0.003750000116902645  0.9999016821469233  1.0000
  Hf  Hf6       1.0  0.00263202146115886  0.008750000029225661  0.9999803365695406  1.0000
  Hf  Hf7       1.0  0.007632021441078456  0.008750000029225661  0.00013764524245345078  1.0000
  Hf  Hf8       1.0  0.005132021484916947  0.003750000116902645  5.89908198362843e-05  1.0000
  Hf  Hf9       1.0  0.0022153548011978994  0.0012500000694109453  0.9995477370047526  1.0000
  Hf  Hf10      1.0  0.004715354985684886  0.006250000438384918  0.9996263914345533  1.0000
  Hf  Hf11      1.0  0.009715354630931084  0.006250000438384918  0.9997837001074663  1.0000
  Hf  Hf12      1.0  0.007215354446444097  0.0012500000694109453  0.9997050456776656  1.0000
  Hf  Hf13      1.0  0.00013202150499735162  0.003750000116902645  0.9995870642174979  1.0000
  Hf  Hf14      1.0  0.00263202146115886  0.008750000029225661  0.9996657186401151  1.0000
  Hf  Hf15      1.0  0.007632021441078456  0.008750000029225661  0.999823027313028  1.0000
  Hf  Hf16      1.0  0.005132021484916947  0.003750000116902645  0.9997443728904108  1.0000
  Hf  Hf17      1.0  0.0022153548011978994  0.0012500000694109453  0.999233119367127  1.0000
  Hf  Hf18      1.0  0.004715354985684886  0.006250000438384918  0.9993117737969277  1.0000
  Hf  Hf19      1.0  0.009715354630931084  0.006250000438384918  0.9994690827616404  1.0000
  Hf  Hf20      1.0  0.007215354446444097  0.0012500000694109453  0.9993904283318397  1.0000
  Hf  Hf21      1.0  0.00013202150499735162  0.003750000116902645  0.9992724465798722  1.0000
  Hf  Hf22      1.0  0.00263202146115886  0.008750000029225661  0.9993511010024895  1.0000
  Hf  Hf23      1.0  0.007632021441078456  0.008750000029225661  0.9995084099672021  1.0000
  Hf  Hf24      1.0  0.005132021484916947  0.003750000116902645  0.999429755544585  1.0000
