data_image0
_chemical_formula_structural       COGa9Ni6Ga9Ni6
_chemical_formula_sum              "C1 O1 Ga18 Ni12"
_cell_length_a       4.967723369598389
_cell_length_b       10.866962583209064
_cell_length_c       98.75128173828125
_cell_angle_alpha    79.10660597391278
_cell_angle_beta     90.0
_cell_angle_gamma    90.0

_space_group_name_H-M_alt    "P 1"
_space_group_IT_number       1

loop_
  _space_group_symop_operation_xyz
  'x, y, z'

loop_
  _atom_site_type_symbol
  _atom_site_label
  _atom_site_symmetry_multiplicity
  _atom_site_fract_x
  _atom_site_fract_y
  _atom_site_fract_z
  _atom_site_occupancy
  C   C1        1.0  0.006470402186258857  0.0014054754287599533  0.00012914013372152666  1.0000
  O   O1        1.0  0.006470402186258857  0.0014054754287599533  0.0002506571864910652  1.0000
  Ga  Ga1       1.0  0.0063982206674824925  0.008333333240240165  0.9991891795004016  1.0000
  Ga  Ga2       1.0  0.0063982206674824925  0.005000000013963975  0.9994664634346595  1.0000
  Ga  Ga3       1.0  0.0063982206674824925  0.0016666666131380944  0.9993278216006094  1.0000
  Ga  Ga4       1.0  0.0036063493064119067  0.006111111089389372  0.9992353932308025  1.0000
  Ga  Ga5       1.0  0.0036063493064119067  0.002777777688563491  0.999512677470482  1.0000
  Ga  Ga6       1.0  0.0036063493064119067  0.009444444664764944  0.9993740353630144  1.0000
  Ga  Ga7       1.0  2.284950008820236e-06  0.007222222513914152  0.9994202493952069  1.0000
  Ga  Ga8       1.0  2.284950008820236e-06  0.003888888938538579  0.9992816075647868  1.0000
  Ga  Ga9       1.0  2.284950008820236e-06  0.0005555555377126982  0.9995588915026746  1.0000
  Ni  Ni1       1.0  0.0014180212342992766  0.008333333240240165  0.9991891795004016  1.0000
  Ni  Ni2       1.0  0.0014180212342992766  0.005000000013963975  0.9994664634346595  1.0000
  Ni  Ni3       1.0  0.0014180212342992766  0.0016666666131380944  0.9993278216006094  1.0000
  Ni  Ni4       1.0  0.00858654939575666  0.006111111089389372  0.9992353932308025  1.0000
  Ni  Ni5       1.0  0.00858654939575666  0.002777777688563491  0.999512677470482  1.0000
  Ni  Ni6       1.0  0.00858654939575666  0.009444444664764944  0.9993740353630144  1.0000
  Ga  Ga10      1.0  0.0063982206674824925  0.008333333240240165  0.9996051055741314  1.0000
  Ga  Ga11      1.0  0.006397168559323506  0.00498399694910598  0.9998856454680851  1.0000
  Ga  Ga12      1.0  0.006383166447032277  0.0017052890489277141  0.9997413555364149  1.0000
  Ga  Ga13      1.0  0.0036063493064119067  0.006111111089389372  0.9996513196063239  1.0000
  Ga  Ga14      1.0  0.0035569425922274862  0.0028225409570658473  0.999930849896744  1.0000
  Ga  Ga15      1.0  0.0037456044075961856  0.0094379632856032  0.9997929445361088  1.0000
  Ga  Ga16      1.0  0.009997715148034603  0.0071845148930600785  0.9998505885640512  1.0000
  Ga  Ga17      1.0  5.442944914875856e-05  0.0038781485468930847  0.9996943440361559  1.0000
  Ga  Ga18      1.0  0.009383862155239679  0.0006018901461794742  0.9999702023070776  1.0000
  Ni  Ni7       1.0  0.0014180212342992766  0.008333333240240165  0.9996051055741314  1.0000
  Ni  Ni8       1.0  0.0013887877379423214  0.005007760144168997  0.9998728490421883  1.0000
  Ni  Ni9       1.0  0.0014792933175920954  0.0016398447838229155  0.9997371623605621  1.0000
  Ni  Ni10      1.0  0.00858654939575666  0.006111111089389372  0.9996513196063239  1.0000
  Ni  Ni11      1.0  0.008566925291399914  0.002822324340898129  0.9999199053967776  1.0000
  Ni  Ni12      1.0  0.008745551959667005  0.00937175379464886  0.9997951833667944  1.0000
