data_image0
_chemical_formula_structural       COGa10Rh6Ga10Rh6
_chemical_formula_sum              "C1 O1 Ga20 Rh12"
_cell_length_a       6.7581274046346955
_cell_length_b       8.020861322755557
_cell_length_c       34.66259765625
_cell_angle_alpha    75.26593970665854
_cell_angle_beta     78.5988689312942
_cell_angle_gamma    100.93681089111821

_space_group_name_H-M_alt    "P 1"
_space_group_IT_number       1

loop_
  _space_group_symop_operation_xyz
  'x, y, z'

loop_
  _atom_site_type_symbol
  _atom_site_label
  _atom_site_symmetry_multiplicity
  _atom_site_fract_x
  _atom_site_fract_y
  _atom_site_fract_z
  _atom_site_occupancy
  C   C1        1.0  0.004109021457691972  0.005461082706683072  0.9998886857082607  1.0000
  O   O1        1.0  0.004109021457691972  0.005461082706683072  0.00023488003089571172  1.0000
  Ga  Ga1       1.0  0.00546995430574901  0.005395996046838996  0.998531207621533  1.0000
  Ga  Ga2       1.0  0.00466308548346965  0.004593330404153995  0.9993533120391478  1.0000
  Ga  Ga3       1.0  0.0017800573038885543  0.00045569159856426633  0.9983322544780848  1.0000
  Ga  Ga4       1.0  0.00821994283942611  0.009544308315804537  0.9980805062476199  1.0000
  Ga  Ga5       1.0  0.0012026141291563955  0.0026116073144741184  0.9989433163427602  1.0000
  Ga  Ga6       1.0  0.008584902928543244  0.007169364533554387  0.99907632629012  1.0000
  Ga  Ga7       1.0  0.00471915847579822  0.008751609648090547  0.9986516671799087  1.0000
  Ga  Ga8       1.0  0.005151905450806305  0.0011379635317490021  0.9992122473344267  1.0000
  Ga  Ga9       1.0  0.009062342212650855  0.003464462518916105  0.9981464554083285  1.0000
  Ga  Ga10      1.0  0.0009376580502240336  0.006535537798788048  0.9982663057189228  1.0000
  Rh  Rh1       1.0  0.005137754672994051  0.002243835469168337  0.9984279469017097  1.0000
  Rh  Rh2       1.0  0.004954855036713111  0.007728519871314569  0.999354195781559  1.0000
  Rh  Rh3       1.0  0.008296354335022538  0.0005135832211453781  0.9987220326042507  1.0000
  Rh  Rh4       1.0  0.0017383817556797716  0.00949308348528064  0.9990786411089477  1.0000
  Rh  Rh5       1.0  0.008055777645430187  0.004195903854653654  0.9988621293797283  1.0000
  Rh  Rh6       1.0  0.002053194807837707  0.005799360685521688  0.9989781964605832  1.0000
  Ga  Ga11      1.0  0.00546995430574901  0.005395996046838996  0.9970748249989282  1.0000
  Ga  Ga12      1.0  0.004530046091138531  0.004604003774452418  0.9978815535297683  1.0000
  Ga  Ga13      1.0  0.0017800573038885543  0.00045569159856426633  0.9968758720704258  1.0000
  Ga  Ga14      1.0  0.00821994283942611  0.009544308315804537  0.9966241236250151  1.0000
  Ga  Ga15      1.0  0.0014285636744819682  0.0027413631510488814  0.9974034085743252  1.0000
  Ga  Ga16      1.0  0.008571436655399247  0.007258636918448903  0.9975529695124546  1.0000
  Ga  Ga17      1.0  0.004735986543936738  0.008721216281740551  0.9972151400383894  1.0000
  Ga  Ga18      1.0  0.005264013712368954  0.0012787835395508629  0.9977412380658336  1.0000
  Ga  Ga19      1.0  0.009062342212650855  0.003464462518916105  0.9966900727857236  1.0000
  Ga  Ga20      1.0  0.0009376580502240336  0.006535537798788048  0.996809923096318  1.0000
  Rh  Rh7       1.0  0.005137754672994051  0.002243835469168337  0.9969715642791048  1.0000
  Rh  Rh8       1.0  0.004862245516305316  0.007756164600329447  0.9979848142429848  1.0000
  Rh  Rh9       1.0  0.008269839632806284  0.0004978329136633564  0.9972812930176308  1.0000
  Rh  Rh10      1.0  0.0017301605348146024  0.009502166845576466  0.9976750850936621  1.0000
  Rh  Rh11      1.0  0.008048063825237355  0.004217886996381731  0.9974136034869908  1.0000
  Rh  Rh12      1.0  0.0019519362553410244  0.005782112824909683  0.9975427746240048  1.0000
