data_image0
_chemical_formula_structural       HNb2Pt2Nb2Pt2Nb2Pt2
_chemical_formula_sum              "H1 Nb6 Pt6"
_cell_length_a       4.66895866394043
_cell_length_b       5.072866916656494
_cell_length_c       101.26433563232422
_cell_angle_alpha    90.0
_cell_angle_beta     90.0
_cell_angle_gamma    90.0

_space_group_name_H-M_alt    "P 1"
_space_group_IT_number       1

loop_
  _space_group_symop_operation_xyz
  'x, y, z'

loop_
  _atom_site_type_symbol
  _atom_site_label
  _atom_site_symmetry_multiplicity
  _atom_site_fract_x
  _atom_site_fract_y
  _atom_site_fract_z
  _atom_site_occupancy
  H   H1        1.0  0.0058333344397333365  0.008591230204229458  8.318688696133835e-05  1.0000
  Nb  Nb1       1.0  0.00750000210641539  0.0014769881165864539  0.9994549069000949  1.0000
  Nb  Nb2       1.0  0.0025000016994942355  0.00788319424983031  0.9994549069000949  1.0000
  Pt  Pt1       1.0  0.00750000210641539  0.0064302466540860324  0.999314570635329  1.0000
  Pt  Pt2       1.0  0.0025000016994942355  0.0029299356205362316  0.999314570635329  1.0000
  Nb  Nb3       1.0  0.0074999997127615375  0.0014087694726538983  0.9997355970877619  1.0000
  Nb  Nb4       1.0  0.0025000020984365444  0.007951463656121927  0.9997355970877619  1.0000
  Pt  Pt3       1.0  0.00750000210641539  0.0064302466540860324  0.9995952431648607  1.0000
  Pt  Pt4       1.0  0.0025000016994942355  0.0029299356205362316  0.9995952431648607  1.0000
  Nb  Nb5       1.0  0.0074999997127615375  0.0015035827276247483  0.0  1.0000
  Nb  Nb6       1.0  0.0025000026968500077  0.007856482050036223  0.0  1.0000
  Pt  Pt5       1.0  0.007500000510646155  0.006413625974555046  0.9998845605288482  1.0000
  Pt  Pt6       1.0  0.002499998507955765  0.0029465023249006235  0.9998845581744302  1.0000
