data_image0
_chemical_formula_structural       HTi12Pt20Ti12Pt20
_chemical_formula_sum              "H1 Ti24 Pt40"
_cell_length_a       11.107154846191406
_cell_length_b       8.284223556518555
_cell_length_c       103.07353973388672
_cell_angle_alpha    90.0
_cell_angle_beta     90.0
_cell_angle_gamma    90.0

_space_group_name_H-M_alt    "P 1"
_space_group_IT_number       1

loop_
  _space_group_symop_operation_xyz
  'x, y, z'

loop_
  _atom_site_type_symbol
  _atom_site_label
  _atom_site_symmetry_multiplicity
  _atom_site_fract_x
  _atom_site_fract_y
  _atom_site_fract_z
  _atom_site_occupancy
  H   H1        1.0  0.007459272140356373  0.003750000008993698  0.9999659148547138  1.0000
  Ti  Ti1       1.0  0.00479546812031498  0.0012500000404716417  1.7388669032065376e-06  1.0000
  Ti  Ti2       1.0  0.0026920681383587244  0.0012500000404716417  0.9997343442763557  1.0000
  Ti  Ti3       1.0  0.00769206817860619  0.0012500000404716417  0.9996910275809388  1.0000
  Ti  Ti4       1.0  0.009795468495957995  0.0012500000404716417  0.9999584221714863  1.0000
  Ti  Ti5       1.0  0.006243767814065036  0.003750000008993698  0.9998463835130575  1.0000
  Ti  Ti6       1.0  0.006243767814065036  0.008750000395722718  0.9998463835130575  1.0000
  Ti  Ti7       1.0  0.009795468495957995  0.006250000089936981  0.9997343442763557  1.0000
  Ti  Ti8       1.0  0.00769206817860619  0.006250000089936981  1.7388669032065376e-06  1.0000
  Ti  Ti9       1.0  0.0026920681383587244  0.006250000089936981  0.9999584221714863  1.0000
  Ti  Ti10      1.0  0.00479546812031498  0.006250000089936981  0.9996910275809388  1.0000
  Ti  Ti11      1.0  0.0012437680253642321  0.008750000395722718  0.99957898892251  1.0000
  Ti  Ti12      1.0  0.0012437680253642321  0.003750000008993698  0.99957898892251  1.0000
  Pt  Pt1       1.0  0.00020453215051692558  0.0012500000404716417  0.999692766447842  1.0000
  Pt  Pt2       1.0  0.007283003667950121  0.0012500000404716417  0.9999601610383896  1.0000
  Pt  Pt3       1.0  0.0022830037954004296  0.0012500000404716417  0.0  1.0000
  Pt  Pt4       1.0  0.0052045322955755  0.0012500000404716417  0.9997326059877254  1.0000
  Pt  Pt5       1.0  0.0038127598322734617  0.003750000008993698  0.9998463835130575  1.0000
  Pt  Pt6       1.0  0.008674776466647709  0.003750000008993698  0.9998463835130575  1.0000
  Pt  Pt7       1.0  0.008674776466647709  0.008750000395722718  0.9998463835130575  1.0000
  Pt  Pt8       1.0  0.0038127598322734617  0.008750000395722718  0.9998463835130575  1.0000
  Pt  Pt9       1.0  0.006243767814065036  0.008750000395722718  0.99957898892251  1.0000
  Pt  Pt10      1.0  0.006243767814065036  0.003750000008993698  0.99957898892251  1.0000
  Pt  Pt11      1.0  0.0052045322955755  0.006250000089936981  0.9999601610383896  1.0000
  Pt  Pt12      1.0  0.0022830037954004296  0.006250000089936981  0.999692766447842  1.0000
  Pt  Pt13      1.0  0.007283003667950121  0.006250000089936981  0.9997326059877254  1.0000
  Pt  Pt14      1.0  0.00020453215051692558  0.006250000089936981  0.0  1.0000
  Pt  Pt15      1.0  0.008812759537125379  0.008750000395722718  0.99957898892251  1.0000
  Pt  Pt16      1.0  0.0036747764264002426  0.008750000395722718  0.99957898892251  1.0000
  Pt  Pt17      1.0  0.0036747764264002426  0.003750000008993698  0.99957898892251  1.0000
  Pt  Pt18      1.0  0.008812759537125379  0.003750000008993698  0.99957898892251  1.0000
  Pt  Pt19      1.0  0.0012437680253642321  0.003750000008993698  0.9998463835130575  1.0000
  Pt  Pt20      1.0  0.0012437680253642321  0.008750000395722718  0.9998463835130575  1.0000
  Ti  Ti13      1.0  0.00479546812031498  0.0012500000404716417  0.999466950264081  1.0000
  Ti  Ti14      1.0  0.0026920681383587244  0.0012500000404716417  0.9991995556735336  1.0000
  Ti  Ti15      1.0  0.00769206817860619  0.0012500000404716417  0.9991562389781167  1.0000
  Ti  Ti16      1.0  0.009795468495957995  0.0012500000404716417  0.9994236335686643  1.0000
  Ti  Ti17      1.0  0.006243767814065036  0.003750000008993698  0.9993115946210989  1.0000
  Ti  Ti18      1.0  0.006243767814065036  0.008750000395722718  0.9993115946210989  1.0000
  Ti  Ti19      1.0  0.009795468495957995  0.006250000089936981  0.9991995556735336  1.0000
  Ti  Ti20      1.0  0.00769206817860619  0.006250000089936981  0.999466950264081  1.0000
  Ti  Ti21      1.0  0.0026920681383587244  0.006250000089936981  0.9994236335686643  1.0000
  Ti  Ti22      1.0  0.00479546812031498  0.006250000089936981  0.9991562389781167  1.0000
  Ti  Ti23      1.0  0.0012437680253642321  0.008750000395722718  0.9990442000305513  1.0000
  Ti  Ti24      1.0  0.0012437680253642321  0.003750000008993698  0.9990442000305513  1.0000
  Pt  Pt21      1.0  0.00020453215051692558  0.0012500000404716417  0.9991579778450199  1.0000
  Pt  Pt22      1.0  0.007283003667950121  0.0012500000404716417  0.9994253724355674  1.0000
  Pt  Pt23      1.0  0.0022830037954004296  0.0012500000404716417  0.9994652113971779  1.0000
  Pt  Pt24      1.0  0.0052045322955755  0.0012500000404716417  0.9991978170957668  1.0000
  Pt  Pt25      1.0  0.0038127598322734617  0.003750000008993698  0.9993115946210989  1.0000
  Pt  Pt26      1.0  0.008674776466647709  0.003750000008993698  0.9993115946210989  1.0000
  Pt  Pt27      1.0  0.008674776466647709  0.008750000395722718  0.9993115946210989  1.0000
  Pt  Pt28      1.0  0.0038127598322734617  0.008750000395722718  0.9993115946210989  1.0000
  Pt  Pt29      1.0  0.006243767814065036  0.008750000395722718  0.9990442000305513  1.0000
  Pt  Pt30      1.0  0.006243767814065036  0.003750000008993698  0.9990442000305513  1.0000
  Pt  Pt31      1.0  0.0052045322955755  0.006250000089936981  0.9994253724355674  1.0000
  Pt  Pt32      1.0  0.0022830037954004296  0.006250000089936981  0.9991579778450199  1.0000
  Pt  Pt33      1.0  0.007283003667950121  0.006250000089936981  0.9991978170957668  1.0000
  Pt  Pt34      1.0  0.00020453215051692558  0.006250000089936981  0.9994652113971779  1.0000
  Pt  Pt35      1.0  0.008812759537125379  0.008750000395722718  0.9990442000305513  1.0000
  Pt  Pt36      1.0  0.0036747764264002426  0.008750000395722718  0.9990442000305513  1.0000
  Pt  Pt37      1.0  0.0036747764264002426  0.003750000008993698  0.9990442000305513  1.0000
  Pt  Pt38      1.0  0.008812759537125379  0.003750000008993698  0.9990442000305513  1.0000
  Pt  Pt39      1.0  0.0012437680253642321  0.003750000008993698  0.9993115946210989  1.0000
  Pt  Pt40      1.0  0.0012437680253642321  0.008750000395722718  0.9993115946210989  1.0000
