data_image0
_chemical_formula_structural       COAl8Ca12Si8
_chemical_formula_sum              "C1 O1 Al8 Ca12 Si8"
_cell_length_a       9.851045964791638
_cell_length_b       6.157196387564191
_cell_length_c       105.06175994873047
_cell_angle_alpha    85.63483086355382
_cell_angle_beta     87.55454696897884
_cell_angle_gamma    91.84487503169858

_space_group_name_H-M_alt    "P 1"
_space_group_IT_number       1

loop_
  _space_group_symop_operation_xyz
  'x, y, z'

loop_
  _atom_site_type_symbol
  _atom_site_label
  _atom_site_symmetry_multiplicity
  _atom_site_fract_x
  _atom_site_fract_y
  _atom_site_fract_z
  _atom_site_occupancy
  C   C1        1.0  0.004462473899829643  0.003066772380802389  9.855790802131578e-05  1.0000
  O   O1        1.0  0.004462473899829643  0.003066772380802389  0.00021277667158049285  1.0000
  Al  Al1       1.0  0.007149960477058029  0.0013643733062958347  0.9996628018112522  1.0000
  Al  Al2       1.0  0.006929818690170192  0.005426272721365936  0.9999437375801549  1.0000
  Al  Al3       1.0  0.003800417657265192  0.006968960428468695  0.9994610359101879  1.0000
  Al  Al4       1.0  0.004673534106080982  0.0013170359735745999  0.9997330659994235  1.0000
  Al  Al5       1.0  0.005483293860890879  0.0030310398079639762  0.999106593026484  1.0000
  Al  Al6       1.0  0.006316627168974454  0.00719770660263919  0.9993846973945536  1.0000
  Al  Al7       1.0  0.002133751041098042  0.008635627081834452  0.998904827124743  1.0000
  Al  Al8       1.0  0.0029670845385548054  0.0028022936445941168  0.9991829312576477  1.0000
  Ca  Ca1       1.0  0.006968712913154728  0.000468787239677939  0.9999700287638486  1.0000
  Ca  Ca2       1.0  0.00592309453303541  0.00629740915622368  0.9996770563744728  1.0000
  Ca  Ca3       1.0  0.002055016107931931  0.0038557420363490194  0.9996656819772216  1.0000
  Ca  Ca4       1.0  0.0035616146576181226  0.007780885729531183  0.9999338485283481  1.0000
  Ca  Ca5       1.0  0.008895362405137667  0.004477591568319166  0.9994581551759539  1.0000
  Ca  Ca6       1.0  0.009611651341477248  0.008476615044092108  0.9997325426751527  1.0000
  Ca  Ca7       1.0  0.005058522602493011  0.002083333556694101  0.9994228666755411  1.0000
  Ca  Ca8       1.0  0.004225189294409437  0.007916667156432688  0.9991447622574892  1.0000
  Ca  Ca9       1.0  0.0003883494680931326  0.005522408991759927  0.9991094734741889  1.0000
  Ca  Ca10      1.0  0.001221682799848356  0.00968907578778522  0.999387577558493  1.0000
  Ca  Ca11      1.0  0.007228695788970518  0.006144258525080154  0.9989019466728206  1.0000
  Ca  Ca12      1.0  0.008062028718307714  0.00031092483737259007  0.9991800508091154  1.0000
  Si  Si1       1.0  0.008743654028697947  0.0036308913818866397  0.9997827142326424  1.0000
  Si  Si2       1.0  0.008120488979147012  0.009407149020123918  0.9994816639831386  1.0000
  Si  Si3       1.0  0.004542198497279813  0.00328583131892602  0.9999330488260234  1.0000
  Si  Si4       1.0  0.0028298891551762086  0.008926185412449642  0.9996421736869657  1.0000
  Si  Si5       1.0  0.007287156049809815  0.005240481943654744  0.9992035596148108  1.0000
  Si  Si6       1.0  0.006453822362979862  0.0010738152790758747  0.9989254552476762  1.0000
  Si  Si7       1.0  0.001996555657719445  0.004759518303578563  0.9993640693210554  1.0000
  Si  Si8       1.0  0.0011632224443224645  0.000592851514303667  0.9990859649525828  1.0000
