data_image0
_chemical_formula_structural       Si8Pt8Si8Pt8CO
_chemical_formula_sum              "Si16 Pt16 C1 O1"
_cell_length_a       5.684826850891113
_cell_length_b       7.0240479526909505
_cell_length_c       27.855712890625
_cell_angle_alpha    117.3960540777885
_cell_angle_beta     90.0
_cell_angle_gamma    90.0

_space_group_name_H-M_alt    "P 1"
_space_group_IT_number       1

loop_
  _space_group_symop_operation_xyz
  'x, y, z'

loop_
  _atom_site_type_symbol
  _atom_site_label
  _atom_site_symmetry_multiplicity
  _atom_site_fract_x
  _atom_site_fract_y
  _atom_site_fract_z
  _atom_site_occupancy
  Si  Si1       1.0  0.006934997362217544  0.00845860689449833  0.0004012940137882909  1.0000
  Si  Si2       1.0  0.006784810838557732  0.004166571627052578  0.9991793814064777  1.0000
  Si  Si3       1.0  0.003215189240078759  0.0008334280473874612  0.9987590697363706  1.0000
  Si  Si4       1.0  0.0034802377926598563  0.005926635090432887  3.921695620571184e-05  1.0000
  Si  Si5       1.0  0.001519763393440551  0.000926634146607681  3.921669691232771e-05  1.0000
  Si  Si6       1.0  0.0017848109630655097  0.005833428169845795  0.9987590699003627  1.0000
  Si  Si7       1.0  0.008215189607049051  0.009166571376162334  0.9991793815271509  1.0000
  Si  Si8       1.0  0.00806500308338924  0.0034586038599210855  0.0004012940468505766  1.0000
  Pt  Pt1       1.0  0.004880692427435924  0.002165003304965245  0.9997026634792139  1.0000
  Pt  Pt2       1.0  0.0049474859352869075  0.0072179618032075414  0.9984099481488757  1.0000
  Pt  Pt3       1.0  0.005074187670892822  0.007678568216493603  0.9994856650158153  1.0000
  Pt  Pt4       1.0  0.00505251447100163  0.002782037695011969  0.9982677120593259  1.0000
  Pt  Pt5       1.0  0.009925812447061914  0.0026785678700261225  0.999485664825832  1.0000
  Pt  Pt6       1.0  0.009947485974605152  0.007782037742800587  0.9982677119471837  1.0000
  Pt  Pt7       1.0  0.00011930740709979311  0.007165002456717275  0.999702663530577  1.0000
  Pt  Pt8       1.0  5.2514303694304085e-05  0.0022179622034372176  0.9984099480455301  1.0000
  Si  Si9       1.0  0.006784810838557732  0.009166571376162334  0.9979185901956968  1.0000
  Si  Si10      1.0  0.006784810838557732  0.004166571627052578  0.9966577990110399  1.0000
  Si  Si11      1.0  0.003215189240078759  0.0008334280473874612  0.9962374873409329  1.0000
  Si  Si12      1.0  0.003215189240078759  0.005833428169845795  0.997498278836379  1.0000
  Si  Si13      1.0  0.0017848109630655097  0.0008334280473874612  0.9974982786723869  1.0000
  Si  Si14      1.0  0.0017848109630655097  0.005833428169845795  0.9962374872374544  1.0000
  Si  Si15      1.0  0.008215189607049051  0.009166571376162334  0.9966577988642427  1.0000
  Si  Si16      1.0  0.008215189607049051  0.004166571627052578  0.9979185903424941  1.0000
  Pt  Pt9       1.0  0.0049474859352869075  0.0022179622034372176  0.9971491569815464  1.0000
  Pt  Pt10      1.0  0.0049474859352869075  0.0072179618032075414  0.9958883654859675  1.0000
  Pt  Pt11      1.0  0.00505251447100163  0.007782037742800587  0.9970069206157296  1.0000
  Pt  Pt12      1.0  0.00505251447100163  0.002782037695011969  0.9957461293964176  1.0000
  Pt  Pt13      1.0  0.009947485974605152  0.002782037695011969  0.9970069207278718  1.0000
  Pt  Pt14      1.0  0.009947485974605152  0.007782037742800587  0.9957461295517459  1.0000
  Pt  Pt15      1.0  5.2514303694304085e-05  0.0072179618032075414  0.9971491570848922  1.0000
  Pt  Pt16      1.0  5.2514303694304085e-05  0.0022179622034372176  0.9958883659175628  1.0000
  C   C1        1.0  0.007053628372624738  0.0015967262978299074  0.0004790985337225246  1.0000
  O   O1        1.0  0.007053628372624738  0.0015967262978299074  0.0009098896810713812  1.0000
