data_image0
_chemical_formula_structural       HAl4Fe12Al4Fe12
_chemical_formula_sum              "H1 Al8 Fe24"
_cell_length_a       7.999782562255859
_cell_length_b       5.656700611114502
_cell_length_c       101.99913024902344
_cell_angle_alpha    90.0
_cell_angle_beta     90.0
_cell_angle_gamma    90.0

_space_group_name_H-M_alt    "P 1"
_space_group_IT_number       1

loop_
  _space_group_symop_operation_xyz
  'x, y, z'

loop_
  _atom_site_type_symbol
  _atom_site_label
  _atom_site_symmetry_multiplicity
  _atom_site_fract_x
  _atom_site_fract_y
  _atom_site_fract_z
  _atom_site_occupancy
  H   H1        1.0  0.0024999966471476016  0.0061660301336234685  0.00012078984260873662  1.0000
  Al  Al1       1.0  4.750000266724529e-09  0.001168668525558248  0.999772556670242  1.0000
  Al  Al2       1.0  7.500000187406476e-10  0.0011676534339476882  0.9993868575686483  1.0000
  Al  Al3       1.0  0.0024999966471476016  0.0061660301336234685  0.0  1.0000
  Al  Al4       1.0  0.0025000008382130992  0.006167653489925492  0.9995829322257154  1.0000
  Fe  Fe1       1.0  0.0024999950172887968  0.0011681000215713428  0.9999620671637409  1.0000
  Fe  Fe2       1.0  0.0025000008382130992  0.0011676534339476882  0.9995829322257154  1.0000
  Fe  Fe3       1.0  0.009999999627460844  0.00883234643104702  0.9999680615721698  1.0000
  Fe  Fe4       1.0  7.500000187406476e-10  0.008667653147473047  0.9995829322257154  1.0000
  Fe  Fe5       1.0  0.009999994039373513  0.0035024076856739225  0.9999680516379776  1.0000
  Fe  Fe6       1.0  7.500000187406476e-10  0.0036676535030967395  0.9995829322257154  1.0000
  Fe  Fe7       1.0  7.500000187406476e-10  0.006167653489925492  0.9993868575686483  1.0000
  Fe  Fe8       1.0  5.6499999339322814e-09  0.006168242903268417  0.9998024942348961  1.0000
  Fe  Fe9       1.0  0.0025000008382130992  0.0036676535030967395  0.9993868575686483  1.0000
  Fe  Fe10      1.0  0.0025000064263004298  0.0037576118090373897  0.9997814319944006  1.0000
  Fe  Fe11      1.0  0.0025000008382130992  0.008667653147473047  0.9993868575686483  1.0000
  Fe  Fe12      1.0  0.0024999992083542945  0.008578063636473222  0.9997814466035068  1.0000
  Al  Al5       1.0  0.005000004936143808  0.001168668525558248  0.999772556670242  1.0000
  Al  Al6       1.0  0.00500000074507831  0.0011676534339476882  0.9993868575686483  1.0000
  Al  Al7       1.0  0.007499996926551967  0.0061660301336234685  0.0  1.0000
  Al  Al8       1.0  0.007500001117617465  0.006167653489925492  0.9995829322257154  1.0000
  Fe  Fe13      1.0  0.007499995063856191  0.0011681000215713428  0.9999620671637409  1.0000
  Fe  Fe14      1.0  0.007500001117617465  0.0011676534339476882  0.9995829322257154  1.0000
  Fe  Fe15      1.0  0.0049999993480564775  0.00883234643104702  0.9999680615721698  1.0000
  Fe  Fe16      1.0  0.00500000074507831  0.008667653147473047  0.9995829322257154  1.0000
  Fe  Fe17      1.0  0.004999993759969147  0.0035024076856739225  0.9999680516379776  1.0000
  Fe  Fe18      1.0  0.00500000074507831  0.0036676535030967395  0.9995829322257154  1.0000
  Fe  Fe19      1.0  0.00500000074507831  0.006167653489925492  0.9993868575686483  1.0000
  Fe  Fe20      1.0  0.005000005867491697  0.006168242903268417  0.9998024942348961  1.0000
  Fe  Fe21      1.0  0.007500001117617465  0.0036676535030967395  0.9993868575686483  1.0000
  Fe  Fe22      1.0  0.007500006705704796  0.0037576118090373897  0.9997814319944006  1.0000
  Fe  Fe23      1.0  0.007500001117617465  0.008667653147473047  0.9993868575686483  1.0000
  Fe  Fe24      1.0  0.007499999254921688  0.008578063636473222  0.9997814466035068  1.0000
