data_image0
_chemical_formula_structural       HGa12Os4Ga12Os4
_chemical_formula_sum              "H1 Ga24 Os8"
_cell_length_a       6.587897777557373
_cell_length_b       6.872280120849609
_cell_length_c       30.472614288330078
_cell_angle_alpha    90.0
_cell_angle_beta     90.0
_cell_angle_gamma    90.0

_space_group_name_H-M_alt    "P 1"
_space_group_IT_number       1

loop_
  _space_group_symop_operation_xyz
  'x, y, z'

loop_
  _atom_site_type_symbol
  _atom_site_label
  _atom_site_symmetry_multiplicity
  _atom_site_fract_x
  _atom_site_fract_y
  _atom_site_fract_z
  _atom_site_occupancy
  H   H1        1.0  0.0058146243124640494  0.009400977745198935  3.634945481548877e-05  1.0000
  Ga  Ga1       1.0  0.00931639780887465  0.008094269429142611  0.0  1.0000
  Ga  Ga2       1.0  0.00931639780887465  0.0031037759260963064  9.780034658565064e-10  1.0000
  Ga  Ga3       1.0  0.0042778579970407845  0.008202931587689222  0.9996692089097399  1.0000
  Ga  Ga4       1.0  0.007229749926044941  0.008247913501816792  0.9989307131136526  1.0000
  Ga  Ga5       1.0  0.0007640475209113492  0.0005990257891291665  0.9992679257746695  1.0000
  Ga  Ga6       1.0  0.00568360153517456  0.005599022406582028  0.9981840221375231  1.0000
  Ga  Ga7       1.0  0.004277866196425649  0.0029951167489614366  0.9996692113547485  1.0000
  Ga  Ga8       1.0  0.0022297499090806966  0.007950131181249296  0.998518285140087  1.0000
  Ga  Ga9       1.0  0.007229749926044941  0.002950131040309832  0.9989307131136526  1.0000
  Ga  Ga10      1.0  0.00568360153517456  0.0005990224011612787  0.9981840221375231  1.0000
  Ga  Ga11      1.0  0.0022297499090806966  0.003247913631914759  0.998518285140087  1.0000
  Ga  Ga12      1.0  0.000729157512571817  0.0055990196962077176  0.9992509525245196  1.0000
  Os  Os1       1.0  0.007351390910624723  0.0005990232820329296  0.9995948615752672  1.0000
  Os  Os2       1.0  0.00199661199268585  0.0055990229486568895  0.9999702584256016  1.0000
  Os  Os3       1.0  0.004080506719994169  0.0005990224011612787  0.9989184015170226  1.0000
  Os  Os4       1.0  0.009080506595589708  0.005599022406582028  0.9985305962477152  1.0000
  Ga  Ga13      1.0  0.009137453868111945  0.007950131181249296  0.9978497591349592  1.0000
  Ga  Ga14      1.0  0.009137453868111945  0.003247913631914759  0.9978497591349592  1.0000
  Ga  Ga15      1.0  0.004137453709778997  0.008247913501816792  0.9974373311613937  1.0000
  Ga  Ga16      1.0  0.007229749926044941  0.008247913501816792  0.9967688054007667  1.0000
  Ga  Ga17      1.0  0.0006836018716320772  0.0005990224011612787  0.9971030681588298  1.0000
  Ga  Ga18      1.0  0.00568360153517456  0.005599022406582028  0.9960221144246373  1.0000
  Ga  Ga19      1.0  0.004137453709778997  0.002950131040309832  0.9974373311613937  1.0000
  Ga  Ga20      1.0  0.0022297499090806966  0.007950131181249296  0.9963563771827003  1.0000
  Ga  Ga21      1.0  0.007229749926044941  0.002950131040309832  0.9967688054007667  1.0000
  Ga  Ga22      1.0  0.00568360153517456  0.0005990224011612787  0.9960221144246373  1.0000
  Ga  Ga23      1.0  0.0022297499090806966  0.003247913631914759  0.9963563771827003  1.0000
  Ga  Ga24      1.0  0.0006836018716320772  0.005599022406582028  0.9971030681588298  1.0000
  Os  Os5       1.0  0.00728669663309236  0.0005990224011612787  0.9974496422690219  1.0000
  Os  Os6       1.0  0.0022866968988655254  0.005599022406582028  0.9978374475383293  1.0000
  Os  Os7       1.0  0.004080506719994169  0.0005990224011612787  0.9967564938041368  1.0000
  Os  Os8       1.0  0.009080506595589708  0.005599022406582028  0.9963686887793303  1.0000
