data_image0
_chemical_formula_structural       HIn2Sb2
_chemical_formula_sum              "H1 In2 Sb2"
_cell_length_a       4.7402143478393555
_cell_length_b       4.74021424965938
_cell_length_c       38.75481033325195
_cell_angle_alpha    90.0
_cell_angle_beta     90.0
_cell_angle_gamma    120.00000068515203

_space_group_name_H-M_alt    "P 1"
_space_group_IT_number       1

loop_
  _space_group_symop_operation_xyz
  'x, y, z'

loop_
  _atom_site_type_symbol
  _atom_site_label
  _atom_site_symmetry_multiplicity
  _atom_site_fract_x
  _atom_site_fract_y
  _atom_site_fract_z
  _atom_site_occupancy
  H   H1        1.0  0.005000000196472671  0.008333333333333333  0.00042766907199000406  1.0000
  In  In1       1.0  0.0066666739406640516  0.0016666686404104836  0.0  1.0000
  In  In2       1.0  0.0033333343311121367  0.005000000816721579  0.9989316947483355  1.0000
  Sb  Sb1       1.0  0.006666667645394391  0.0016666670523407458  0.9991852771872703  1.0000
  Sb  Sb2       1.0  0.0033333264863113564  0.004999998094316315  0.00021952011331246782  1.0000
