data_image0
_chemical_formula_structural       CONa12Al4Se12
_chemical_formula_sum              "C1 O1 Na12 Al4 Se12"
_cell_length_a       13.413304088690934
_cell_length_b       7.3677568435668945
_cell_length_c       100.55510711669922
_cell_angle_alpha    90.0
_cell_angle_beta     90.15986539600368
_cell_angle_gamma    90.0

_space_group_name_H-M_alt    "P 1"
_space_group_IT_number       1

loop_
  _space_group_symop_operation_xyz
  'x, y, z'

loop_
  _atom_site_type_symbol
  _atom_site_label
  _atom_site_symmetry_multiplicity
  _atom_site_fract_x
  _atom_site_fract_y
  _atom_site_fract_z
  _atom_site_occupancy
  C   C1        1.0  0.007269930391543038  8.185154425366617e-05  7.593960461251757e-05  1.0000
  O   O1        1.0  0.007269930391543038  8.185154425366617e-05  0.00019527739523083438  1.0000
  Na  Na1       1.0  0.007742449860161677  0.005223114817122902  0.9998752381626026  1.0000
  Na  Na2       1.0  0.007266327651044657  8.185154425366617e-05  0.9999036898855135  1.0000
  Na  Na3       1.0  0.002186114994570849  0.00468106112276205  0.9995460429320198  1.0000
  Na  Na4       1.0  0.002914602065658316  0.00968106069804067  0.999508213784383  1.0000
  Na  Na5       1.0  0.006151055614741866  0.004918148181131097  0.9995951628839335  1.0000
  Na  Na6       1.0  0.008949661767656509  0.009918148262030408  0.9994590935058325  1.0000
  Na  Na7       1.0  0.004156075557593581  0.005359621279748133  0.9997942079017367  1.0000
  Na  Na8       1.0  0.0008453738094670146  0.009810300380110264  0.9999716477718904  1.0000
  Na  Na9       1.0  0.009029911895742098  0.004915390020267542  0.9994940124004044  1.0000
  Na  Na10      1.0  0.006070805486656276  0.009915389595546163  0.9995602439893616  1.0000
  Na  Na11      1.0  0.0006777863861637275  0.00491986880833892  0.9998706017044741  1.0000
  Na  Na12      1.0  0.004249037482827715  0.009673445039208984  0.9998185099324256  1.0000
  Al  Al1       1.0  0.009246785653368755  0.001437299620498099  0.9997808782597751  1.0000
  Al  Al2       1.0  0.005851369372890392  0.0063495856353501775  0.9992752061250016  1.0000
  Al  Al3       1.0  0.0008513693506718255  0.008547218435774944  0.9996550364899964  1.0000
  Al  Al4       1.0  0.00424934770955734  0.0035472181020652885  0.9993992202264064  1.0000
  Se  Se1       1.0  0.0057821035484365456  0.0029836922138652875  0.9992756975246855  1.0000
  Se  Se2       1.0  0.009322213797139444  0.008035567207878739  0.9997913133506493  1.0000
  Se  Se3       1.0  0.004318613811743263  0.006913111017929488  0.9993987288268259  1.0000
  Se  Se4       1.0  0.0007821033179189217  0.0019131113162456949  0.9996555275932247  1.0000
  Se  Se5       1.0  0.007310438725851618  0.0073572907040997055  0.9993919942598847  1.0000
  Se  Se6       1.0  0.007790278656546756  0.00235729087601074  0.9996622624262593  1.0000
  Se  Se7       1.0  0.002790278356596113  0.002539512780505415  0.9992824320915233  1.0000
  Se  Se8       1.0  0.0022393778967677784  0.007602319546645443  0.9998036780773468  1.0000
  Se  Se9       1.0  0.009258953651111205  0.0025432569017143276  3.4460757482933377e-06  1.0000
  Se  Se10      1.0  0.005909262624269329  0.007332112310603389  0.9998472363393951  1.0000
  Se  Se11      1.0  0.0007759372492190441  0.0073946242189818785  0.9994325215933798  1.0000
  Se  Se12      1.0  0.004324780019309179  0.0023946243908929124  0.9996217348267226  1.0000
