data_image0
_chemical_formula_structural       COAl8Pd4Al8Pd4
_chemical_formula_sum              "C1 O1 Al16 Pd8"
_cell_length_a       8.406768798828125
_cell_length_b       5.944483280181885
_cell_length_c       103.6270751953125
_cell_angle_alpha    90.0
_cell_angle_beta     90.0
_cell_angle_gamma    90.0

_space_group_name_H-M_alt    "P 1"
_space_group_IT_number       1

loop_
  _space_group_symop_operation_xyz
  'x, y, z'

loop_
  _atom_site_type_symbol
  _atom_site_label
  _atom_site_symmetry_multiplicity
  _atom_site_fract_x
  _atom_site_fract_y
  _atom_site_fract_z
  _atom_site_occupancy
  C   C1        1.0  0.0037500001949771393  0.0062499999999999995  0.000192999569743896  1.0000
  O   O1        1.0  0.0037500001949771393  0.0062499999999999995  0.0003087996567006866  1.0000
  Al  Al1       1.0  0.0012499999911374027  0.008749999874663949  0.0  1.0000
  Al  Al2       1.0  0.0012499999911374027  0.008749999874663949  0.9995943738538652  1.0000
  Al  Al3       1.0  0.0012499999911374027  0.003750000125336051  0.0  1.0000
  Al  Al4       1.0  0.0012499999911374027  0.003750000125336051  0.9995943738538652  1.0000
  Al  Al5       1.0  0.0037500001949771393  0.003750000125336051  0.9993915607807977  1.0000
  Al  Al6       1.0  0.0037500001949771393  0.003750000125336051  0.9997971866393406  1.0000
  Al  Al7       1.0  0.0037500001949771393  0.008749999874663949  0.9993915607807977  1.0000
  Al  Al8       1.0  0.0037500001949771393  0.008749999874663949  0.9997971866393406  1.0000
  Pd  Pd1       1.0  0.0012499999911374027  0.0012500000156670063  0.9997971866393406  1.0000
  Pd  Pd2       1.0  0.006250000177251945  0.0012500000156670063  0.9993915607807977  1.0000
  Pd  Pd3       1.0  0.0037500001949771393  0.0062499999999999995  0.0  1.0000
  Pd  Pd4       1.0  0.0037500001949771393  0.0062499999999999995  0.9995943738538652  1.0000
  Al  Al9       1.0  0.006250000177251945  0.008749999874663949  0.0  1.0000
  Al  Al10      1.0  0.006250000177251945  0.008749999874663949  0.9995943738538652  1.0000
  Al  Al11      1.0  0.006250000177251945  0.003750000125336051  0.0  1.0000
  Al  Al12      1.0  0.006250000177251945  0.003750000125336051  0.9995943738538652  1.0000
  Al  Al13      1.0  0.008750000602656613  0.003750000125336051  0.9993915607807977  1.0000
  Al  Al14      1.0  0.008750000602656613  0.003750000125336051  0.9997971866393406  1.0000
  Al  Al15      1.0  0.008750000602656613  0.008749999874663949  0.9993915607807977  1.0000
  Al  Al16      1.0  0.008750000602656613  0.008749999874663949  0.9997971866393406  1.0000
  Pd  Pd5       1.0  0.006250000177251945  0.0012500000156670063  0.9997971866393406  1.0000
  Pd  Pd6       1.0  0.0012499999911374027  0.0012500000156670063  0.9993915607807977  1.0000
  Pd  Pd7       1.0  0.008750000602656613  0.0062499999999999995  0.0  1.0000
  Pd  Pd8       1.0  0.008750000602656613  0.0062499999999999995  0.9995943738538652  1.0000
