data_image0
_chemical_formula_structural       Pt6Sn24H
_chemical_formula_sum              "Pt6 Sn24 H1"
_cell_length_a       9.383889661374178
_cell_length_b       9.383889525897187
_cell_length_c       34.546878814697266
_cell_angle_alpha    93.806631830984
_cell_angle_beta     93.80663177594593
_cell_angle_gamma    76.89524783109239

_space_group_name_H-M_alt    "P 1"
_space_group_IT_number       1

loop_
  _space_group_symop_operation_xyz
  'x, y, z'

loop_
  _atom_site_type_symbol
  _atom_site_label
  _atom_site_symmetry_multiplicity
  _atom_site_fract_x
  _atom_site_fract_y
  _atom_site_fract_z
  _atom_site_occupancy
  Pt  Pt1       1.0  0.0034746374231628156  0.00400045018861377  0.9980752550927509  1.0000
  Pt  Pt2       1.0  0.001802308298669066  0.0023019887667414898  0.9997314159566394  1.0000
  Pt  Pt3       1.0  0.007641304000898967  0.008167117372299476  0.9989304488263848  1.0000
  Pt  Pt4       1.0  0.004724637506728493  0.005250450384536774  0.9993580454709964  1.0000
  Pt  Pt5       1.0  0.000557970788110538  0.001083783609023994  0.9985028517421826  1.0000
  Pt  Pt6       1.0  0.009030957080319785  0.009466941604547753  0.0001215565174117494  1.0000
  Sn  Sn1       1.0  0.005136814367539975  0.008170678272901622  0.9993587316524167  1.0000
  Sn  Sn2       1.0  0.0009701474085738083  0.004004011905561768  0.9985035379266293  1.0000
  Sn  Sn3       1.0  0.009421490101047283  0.0023015685527146778  0.00021140424515692007  1.0000
  Sn  Sn4       1.0  0.007092566660043744  0.0051575196137213395  0.9999296692473186  1.0000
  Sn  Sn5       1.0  0.002923912497068126  0.0009416737151055905  0.9990723649343504  1.0000
  Sn  Sn6       1.0  0.008757245269840635  0.006775006874285142  0.9982171711951868  1.0000
  Sn  Sn7       1.0  0.004748241427997355  0.0027783812659833984  0.9998148144749684  1.0000
  Sn  Sn8       1.0  0.000561532308460434  0.008579293657862636  0.9989311345736595  1.0000
  Sn  Sn9       1.0  0.006394865329240488  0.004412626882349856  0.9980759412714777  1.0000
  Sn  Sn10      1.0  0.003332527548106774  0.006366391897497055  0.9986447678539259  1.0000
  Sn  Sn11      1.0  0.0018069083590642465  0.004432028566018111  0.00035726539101606605  1.0000
  Sn  Sn12      1.0  0.007499194288853399  0.0005330586362742717  0.9994999615824763  1.0000
  Sn  Sn13      1.0  0.00383119743647696  0.006573431491367998  9.160526353713566e-05  1.0000
  Sn  Sn14      1.0  0.009442029150782658  0.002475893698865402  0.9992161293593766  1.0000
  Sn  Sn15      1.0  0.005275362034957544  0.008309226858044954  0.9983609356222222  1.0000
  Sn  Sn16      1.0  0.007229127720250319  0.005246888667588776  0.9989297626407054  1.0000
  Sn  Sn17      1.0  0.003062460806858451  0.0010802220961624587  0.9980745689120595  1.0000
  Sn  Sn18      1.0  0.001632599186535143  0.00937134097462656  0.9998160202125335  1.0000
  Sn  Sn19      1.0  0.0018044092027851837  0.004838273690800688  0.9993573592850948  1.0000
  Sn  Sn20      1.0  0.007637742786182969  0.0006716070683527556  0.9985021659958191  1.0000
  Sn  Sn21      1.0  0.006298973241411434  0.008892988428996353  0.00021228916126922267  1.0000
  Sn  Sn22      1.0  0.004866747381784535  0.0028845086756534894  0.9987885327098214  1.0000
  Sn  Sn23      1.0  0.0034955502919513802  0.0012828645451501168  0.0004369259576523424  1.0000
  Sn  Sn24      1.0  0.009077363574589367  0.007011912072942709  0.9996381768903184  1.0000
  H   H1        1.0  0.00729588011076366  0.0028452889719329587  0.00014900783222099784  1.0000
