data_image0
_chemical_formula_structural       HTiAlTiAlTiAlTiAlTiAlTiAlTiAlTiAl
_chemical_formula_sum              "H1 Ti8 Al8"
_cell_length_a       5.680596351623535
_cell_length_b       5.680596351623535
_cell_length_c       98.61612701416016
_cell_angle_alpha    90.0
_cell_angle_beta     90.0
_cell_angle_gamma    90.0

_space_group_name_H-M_alt    "P 1"
_space_group_IT_number       1

loop_
  _space_group_symop_operation_xyz
  'x, y, z'

loop_
  _atom_site_type_symbol
  _atom_site_label
  _atom_site_symmetry_multiplicity
  _atom_site_fract_x
  _atom_site_fract_y
  _atom_site_fract_z
  _atom_site_occupancy
  H   H1        1.0  0.003750192133973985  0.002500001357489679  0.0001249341143957444  1.0000
  Ti  Ti1       1.0  0.003750192133973985  0.002500001357489679  0.0  1.0000
  Al  Al1       1.0  0.0012498080398109254  0.009999999527829677  0.9997981800061628  1.0000
  Ti  Ti2       1.0  0.0037499960521314647  0.0025000007016975634  0.9995874633886666  1.0000
  Al  Al2       1.0  0.0012499960062260168  6.999999949697415e-10  0.9993801943299427  1.0000
  Ti  Ti3       1.0  0.003750192133973985  0.007500001285352546  0.0  1.0000
  Al  Al3       1.0  0.0012498080398109254  0.004999999436018781  0.9997981800061628  1.0000
  Ti  Ti4       1.0  0.0037499960521314647  0.00750000062956043  0.9995874633886666  1.0000
  Al  Al4       1.0  0.0012499960062260168  0.005000000747603012  0.9993801943299427  1.0000
  Ti  Ti5       1.0  0.00875019222578488  0.002500001357489679  0.0  1.0000
  Al  Al5       1.0  0.006249808377543865  0.009999999527829677  0.9997981800061628  1.0000
  Ti  Ti6       1.0  0.008749996143942361  0.0025000007016975634  0.9995874633886666  1.0000
  Al  Al6       1.0  0.006249995934088884  6.999999949697415e-10  0.9993801943299427  1.0000
  Ti  Ti7       1.0  0.00875019222578488  0.007500001285352546  0.0  1.0000
  Al  Al7       1.0  0.006249808377543865  0.004999999436018781  0.9997981800061628  1.0000
  Ti  Ti8       1.0  0.008749996143942361  0.00750000062956043  0.9995874633886666  1.0000
  Al  Al8       1.0  0.006249995934088884  0.005000000747603012  0.9993801943299427  1.0000
