data_image0
_chemical_formula_structural       COV8Pt16V8Pt16
_chemical_formula_sum              "C1 O1 V16 Pt32"
_cell_length_a       4.7204005365902955
_cell_length_b       17.13165220011326
_cell_length_c       103.04280853271484
_cell_angle_alpha    95.36666857662048
_cell_angle_beta     71.26973210569625
_cell_angle_gamma    84.6333320305897

_space_group_name_H-M_alt    "P 1"
_space_group_IT_number       1

loop_
  _space_group_symop_operation_xyz
  'x, y, z'

loop_
  _atom_site_type_symbol
  _atom_site_label
  _atom_site_symmetry_multiplicity
  _atom_site_fract_x
  _atom_site_fract_y
  _atom_site_fract_z
  _atom_site_occupancy
  C   C1        1.0  0.008808445449001027  0.0047287404253082395  0.00013455162880196016  1.0000
  O   O1        1.0  0.008808445449001027  0.0047287404253082395  0.0002510077394701826  1.0000
  V   V1        1.0  0.007700393956220539  0.005002785962190888  0.999283735818956  1.0000
  V   V2        1.0  0.0002003934633830914  2.7861499604353917e-06  0.9991692104652825  1.0000
  V   V3        1.0  0.005200393545673591  2.7861499604353917e-06  0.9993982609025355  1.0000
  V   V4        1.0  0.0027003936395583648  0.005002785962190888  0.9995127861348198  1.0000
  V   V5        1.0  0.006450393638977008  0.007502786596677949  0.9995700489712275  1.0000
  V   V6        1.0  0.008950393832848055  0.0025027862089358564  0.9994555237257611  1.0000
  V   V7        1.0  0.0039503935161858805  0.0025027862089358564  0.999226473002733  1.0000
  V   V8        1.0  0.001450393322314834  0.007502786596677949  0.9993409985374221  1.0000
  Pt  Pt1       1.0  0.007299606984997827  0.005804359904636312  0.9995311464274818  1.0000
  Pt  Pt2       1.0  0.009799606903483865  0.0008043600676642382  0.9994166211946308  1.0000
  Pt  Pt3       1.0  0.004799607003482445  0.0008043600676642382  0.9991875707546962  1.0000
  Pt  Pt4       1.0  0.002299607084996408  0.005804359904636312  0.9993020956983245  1.0000
  Pt  Pt5       1.0  0.006851180830507728  0.00670121221361651  0.9993226383526095  1.0000
  Pt  Pt6       1.0  0.009351180804070767  0.0017012122664904314  0.9992081131172355  1.0000
  Pt  Pt7       1.0  0.004351180487408593  0.0017012122664904314  0.9994371634330991  1.0000
  Pt  Pt8       1.0  0.0018511805138455534  0.00670121221361651  0.9995516886684731  1.0000
  Pt  Pt9       1.0  0.006049606667754295  0.008304360539123375  0.9993593585408613  1.0000
  Pt  Pt10      1.0  0.008549606861625344  0.003304360151381281  0.999244833295395  1.0000
  Pt  Pt11      1.0  0.0035496069616239236  0.003304360151381281  0.9994738836051296  1.0000
  Pt  Pt12      1.0  0.0010496067677528765  0.008304360539123375  0.9995884088505959  1.0000
  Pt  Pt13      1.0  0.005601180733572205  0.009201212407487556  0.9991508504558968  1.0000
  Pt  Pt14      1.0  0.008101180707135244  0.004201212460361478  0.9994944262594144  1.0000
  Pt  Pt15      1.0  0.003101180390473069  0.004201212460361478  0.9992653758256091  1.0000
  Pt  Pt16      1.0  0.0006011804169100304  0.009201212407487556  0.9993799007717604  1.0000
  V   V9        1.0  0.007700393956220539  0.005002785962190888  0.999741836568625  1.0000
  V   V10       1.0  0.0002003934633830914  2.7861499604353917e-06  0.9996273115041743  1.0000
  V   V11       1.0  0.005259078984390885  0.009997214319803362  0.99984261783953  1.0000
  V   V12       1.0  0.002426150470152819  0.004984116180390142  0.999960299475622  1.0000
  V   V13       1.0  0.00603932967011239  0.007391486109978434  1.7227863248332063e-05  1.0000
  V   V14       1.0  0.008793584146106257  0.002495518468071314  0.9999019672927817  1.0000
  V   V15       1.0  0.0039503935161858805  0.0025027862089358564  0.9996845740416248  1.0000
  V   V16       1.0  0.0015792860806884256  0.007499245806378913  0.9997958611446057  1.0000
  Pt  Pt17      1.0  0.0069243969627857845  0.0057961723778398085  0.9999859990480501  1.0000
  Pt  Pt18      1.0  0.009606580289449197  0.0008216218609880582  0.9998714611456339  1.0000
  Pt  Pt19      1.0  0.004799607003482445  0.0008043600676642382  0.9996456715043653  1.0000
  Pt  Pt20      1.0  0.0023021847378777173  0.005792228864502778  0.9997598024333176  1.0000
  Pt  Pt21      1.0  0.006860044986113405  0.006715853443189269  0.9997790397270199  1.0000
  Pt  Pt22      1.0  0.009351180804070767  0.0017012122664904314  0.9996662138669045  1.0000
  Pt  Pt23      1.0  0.0041295784039216115  0.0017053034963465954  0.9998938417632436  1.0000
  Pt  Pt24      1.0  0.00145982445446051  0.006657572722228106  1.1049735933090615e-05  1.0000
  Pt  Pt25      1.0  0.006025302404996528  0.008338189274314869  0.9998325807029288  1.0000
  Pt  Pt26      1.0  0.008549606861625344  0.003304360151381281  0.999702934045064  1.0000
  Pt  Pt27      1.0  0.003249442297967041  0.0033002088875930314  0.9999301589431653  1.0000
  Pt  Pt28      1.0  0.0003346869008287516  0.008223477538424818  3.2320357355115174e-05  1.0000
  Pt  Pt29      1.0  0.005601180733572205  0.009201212407487556  0.9996089514947885  1.0000
  Pt  Pt30      1.0  0.007791805258624296  0.004204900416409629  0.9999507354203885  1.0000
  Pt  Pt31      1.0  0.003101180390473069  0.004201212460361478  0.9997234765752782  1.0000
  Pt  Pt32      1.0  0.0006091386500608792  0.009225122876174408  0.9998398466959252  1.0000
