data_image0
_chemical_formula_structural       HCu6Ru2Cu6Ru2Cu6Ru2Cu6Ru2
_chemical_formula_sum              "H1 Cu24 Ru8"
_cell_length_a       5.301018270726782
_cell_length_b       8.492112159729004
_cell_length_c       107.10713195800781
_cell_angle_alpha    90.0
_cell_angle_beta     119.99999979619837
_cell_angle_gamma    90.0

_space_group_name_H-M_alt    "P 1"
_space_group_IT_number       1

loop_
  _space_group_symop_operation_xyz
  'x, y, z'

loop_
  _atom_site_type_symbol
  _atom_site_label
  _atom_site_symmetry_multiplicity
  _atom_site_fract_x
  _atom_site_fract_y
  _atom_site_fract_z
  _atom_site_occupancy
  H   H1        1.0  0.0080229301067032  0.00125  0.00019853812739122555  1.0000
  Cu  Cu1       1.0  0.003287995268375739  0.00125  0.9992849705873977  1.0000
  Cu  Cu2       1.0  0.00835600271068507  0.00125  0.9995357998292965  1.0000
  Cu  Cu3       1.0  0.00835600271068507  0.00125  0.9992849705796613  1.0000
  Cu  Cu4       1.0  0.006712005177930417  0.00375  0.9996171658528904  1.0000
  Cu  Cu5       1.0  0.0016439975327546521  0.00375  0.9993663363277236  1.0000
  Cu  Cu6       1.0  0.0016439975327546521  0.00375  0.9996171658556067  1.0000
  Ru  Ru1       1.0  0.006666666964204104  0.00375  0.999368580333792  1.0000
  Ru  Ru2       1.0  0.003333333482102052  0.00125  0.9995335561064963  1.0000
  Cu  Cu7       1.0  0.003287995268375739  0.00125  0.9997798971597213  1.0000
  Cu  Cu8       1.0  0.00835600271068507  0.00125  3.0726401620017066e-05  1.0000
  Cu  Cu9       1.0  0.00835600271068507  0.00125  0.9997798971519848  1.0000
  Cu  Cu10      1.0  0.006712005177930417  0.00375  0.0001120924252139061  1.0000
  Cu  Cu11      1.0  0.0016439975327546521  0.00375  0.9998612631782949  1.0000
  Cu  Cu12      1.0  0.0016439975327546521  0.00375  0.0001120924279302001  1.0000
  Ru  Ru3       1.0  0.006666666964204104  0.00375  0.9998635069061154  1.0000
  Ru  Ru4       1.0  0.003333333482102052  0.00125  2.8482678819749285e-05  1.0000
  Cu  Cu13      1.0  0.003287995268375739  0.00625  0.9992849705873977  1.0000
  Cu  Cu14      1.0  0.00835600271068507  0.00625  0.9995357998292965  1.0000
  Cu  Cu15      1.0  0.00835600271068507  0.00625  0.9992849705796613  1.0000
  Cu  Cu16      1.0  0.006712005177930417  0.008749999999999999  0.9996171658528904  1.0000
  Cu  Cu17      1.0  0.0016439975327546521  0.008749999999999999  0.9993663363277236  1.0000
  Cu  Cu18      1.0  0.0016439975327546521  0.008749999999999999  0.9996171658556067  1.0000
  Ru  Ru5       1.0  0.006666666964204104  0.008749999999999999  0.999368580333792  1.0000
  Ru  Ru6       1.0  0.003333333482102052  0.00625  0.9995335561064963  1.0000
  Cu  Cu19      1.0  0.003287995268375739  0.00625  0.9997798971597213  1.0000
  Cu  Cu20      1.0  0.00835600271068507  0.00625  3.0726401620017066e-05  1.0000
  Cu  Cu21      1.0  0.00835600271068507  0.00625  0.9997798971519848  1.0000
  Cu  Cu22      1.0  0.006712005177930417  0.008749999999999999  0.0001120924252139061  1.0000
  Cu  Cu23      1.0  0.0016439975327546521  0.008749999999999999  0.9998612631782949  1.0000
  Cu  Cu24      1.0  0.0016439975327546521  0.008749999999999999  0.0001120924279302001  1.0000
  Ru  Ru7       1.0  0.006666666964204104  0.008749999999999999  0.9998635069061154  1.0000
  Ru  Ru8       1.0  0.003333333482102052  0.00625  2.8482678819749285e-05  1.0000
