data_image0
_chemical_formula_structural       HIn16Ir8
_chemical_formula_sum              "H1 In16 Ir8"
_cell_length_a       5.497457027435303
_cell_length_b       9.662758341368784
_cell_length_c       100.26543426513672
_cell_angle_alpha    90.0
_cell_angle_beta     90.0
_cell_angle_gamma    106.52694571289577

_space_group_name_H-M_alt    "P 1"
_space_group_IT_number       1

loop_
  _space_group_symop_operation_xyz
  'x, y, z'

loop_
  _atom_site_type_symbol
  _atom_site_label
  _atom_site_symmetry_multiplicity
  _atom_site_fract_x
  _atom_site_fract_y
  _atom_site_fract_z
  _atom_site_occupancy
  H   H1        1.0  0.005002284663691496  0.0008565943246876163  0.0  1.0000
  In  In1       1.0  2.4306244727327175e-08  0.0058565821035033785  0.9995992812514101  1.0000
  In  In2       1.0  0.005000024360455832  0.0058565821035033785  0.9994098211602793  1.0000
  In  In3       1.0  0.00500002441571153  0.0008565821598036678  0.9991582771543139  1.0000
  In  In4       1.0  2.4446205277503973e-08  0.0008565821598036678  0.9993477366509762  1.0000
  In  In5       1.0  0.005856606474978967  0.0025697462783385414  0.9995045512058447  1.0000
  In  In6       1.0  0.004143442330637552  0.009143417928668216  0.9995045512058447  1.0000
  In  In7       1.0  0.00914344191604386  0.004143417783896043  0.9992530069026451  1.0000
  In  In8       1.0  0.0008566062649759332  0.00756974602096579  0.9992530069026451  1.0000
  In  In9       1.0  0.005000024360455832  0.0058565821035033785  0.9990961923477767  1.0000
  In  In10      1.0  0.009999975683959725  0.005856473122228996  0.9999222024986549  1.0000
  In  In11      1.0  2.4446205277503973e-08  0.0008565821598036678  0.9996613657607131  1.0000
  In  In12      1.0  0.005002284663691496  0.0008565943246876163  0.9998771209780923  1.0000
  In  In13      1.0  0.0008702562095805736  0.0029272388395582536  2.930551485691932e-05  1.0000
  In  In14      1.0  0.00912451022321613  0.00878526846371528  2.919137690019724e-05  1.0000
  In  In15      1.0  0.003868291132888561  0.0040706223140579674  0.9997491687617956  1.0000
  In  In16      1.0  0.006131498262818148  0.007641582777305241  0.9997491378494324  1.0000
  Ir  Ir1       1.0  0.0036908036584765436  0.0032381406995448  0.9992530069026451  1.0000
  Ir  Ir2       1.0  0.006309244961898891  0.008475023306389495  0.9992530069026451  1.0000
  Ir  Ir3       1.0  0.0013092451481845665  0.003475023563762246  0.9995045512058447  1.0000
  Ir  Ir4       1.0  0.008690803657431951  0.008238140643244511  0.9995045512058447  1.0000
  Ir  Ir5       1.0  0.008495520605204527  0.003229999275560048  0.9997532224426648  1.0000
  Ir  Ir6       1.0  0.0015088604302441202  0.008484484972159475  0.9997531915303016  1.0000
  Ir  Ir7       1.0  0.006020318826414886  0.0034909879129520057  0.9999802868292559  1.0000
  Ir  Ir8       1.0  0.003978445276014312  0.008222576830398976  0.9999801019495448  1.0000
