data_image0
_chemical_formula_structural       HNi16Mo8Ni16Mo8
_chemical_formula_sum              "H1 Ni32 Mo16"
_cell_length_a       4.525578341435845
_cell_length_b       15.722998777531668
_cell_length_c       101.67904663085938
_cell_angle_alpha    95.69714994822785
_cell_angle_beta     71.9274945309778
_cell_angle_gamma    84.30284985740957

_space_group_name_H-M_alt    "P 1"
_space_group_IT_number       1

loop_
  _space_group_symop_operation_xyz
  'x, y, z'

loop_
  _atom_site_type_symbol
  _atom_site_label
  _atom_site_symmetry_multiplicity
  _atom_site_fract_x
  _atom_site_fract_y
  _atom_site_fract_z
  _atom_site_occupancy
  H   H1        1.0  0.0026587715927735363  0.009671151375428913  0.9999788885698294  1.0000
  Ni  Ni1       1.0  0.006779615731009965  0.00698436220057795  0.9993499074968882  1.0000
  Ni  Ni2       1.0  0.009279615533888674  0.001984362594820534  0.9992386363438449  1.0000
  Ni  Ni3       1.0  0.004279615551206311  0.001984362594820534  0.999461178573447  1.0000
  Ni  Ni4       1.0  0.0017796157483276035  0.00698436220057795  0.9995724497264904  1.0000
  Ni  Ni5       1.0  0.007185129566639993  0.006173334529317894  0.9995544010105487  1.0000
  Ni  Ni6       1.0  0.009685129429616655  0.0011733348033645685  0.9994431298548304  1.0000
  Ni  Ni7       1.0  0.004685129446934294  0.0011733348033645685  0.999220587460613  1.0000
  Ni  Ni8       1.0  0.0021851295839576314  0.006173334529317894  0.9993318586163312  1.0000
  Ni  Ni9       1.0  0.005529615769472657  0.009484362123652567  0.999183000764175  1.0000
  Ni  Ni10      1.0  0.008029615692547273  0.004484362277503332  0.9995168142296015  1.0000
  Ni  Ni11      1.0  0.0030296157098649123  0.004484362277503332  0.999294271835384  1.0000
  Ni  Ni12      1.0  0.0005296157867902952  0.009484362123652567  0.9994055429937772  1.0000
  Ni  Ni13      1.0  0.005935129364710866  0.00867333493317615  0.9993874942885349  1.0000
  Ni  Ni14      1.0  0.008435129528177302  0.0036733346062432764  0.9992762231194423  1.0000
  Ni  Ni15      1.0  0.0034351295454949403  0.0036733346062432764  0.9994987653490445  1.0000
  Ni  Ni16      1.0  0.0009351293820285033  0.00867333493317615  0.9991649518943174  1.0000
  Mo  Mo1       1.0  0.007607372509397723  0.005328848643802433  0.999313065313515  1.0000
  Mo  Mo2       1.0  0.0001073724460291443  0.0003288486774572875  0.9992017939889526  1.0000
  Mo  Mo3       1.0  0.005107372509887935  0.0003288486774572875  0.9994243363820492  1.0000
  Mo  Mo4       1.0  0.002607372526715362  0.005328848643802433  0.9995356075431172  1.0000
  Mo  Mo5       1.0  0.006357372547860416  0.00782884856687705  0.9995912432046213  1.0000
  Mo  Mo6       1.0  0.008857372470935033  0.0028288487207278152  0.9994799720462283  1.0000
  Mo  Mo7       1.0  0.003857372488252671  0.0028288487207278152  0.9992574296520108  1.0000
  Mo  Mo8       1.0  0.0013573725651780536  0.00782884856687705  0.999368700810404  1.0000
  Ni  Ni17      1.0  0.006831388231153536  0.006983398229380782  0.9997906016353644  1.0000
  Ni  Ni18      1.0  0.009279615533888674  0.001984362594820534  0.9996837209676644  1.0000
  Ni  Ni19      1.0  0.004512434978457775  0.0019885824328242947  0.9998995984583864  1.0000
  Ni  Ni20      1.0  0.002187470034248106  0.006935614585803279  8.883090623539908e-06  1.0000
  Ni  Ni21      1.0  0.007531746216421477  0.006184768045048489  0.9999909453499031  1.0000
  Ni  Ni22      1.0  0.009892627295190339  0.00117839396940696  0.9998817633537662  1.0000
  Ni  Ni23      1.0  0.004685129446934294  0.0011733348033645685  0.9996656720844326  1.0000
  Ni  Ni24      1.0  0.0022526313313582483  0.006165560257867421  0.9997736320598286  1.0000
  Ni  Ni25      1.0  0.005529615769472657  0.009484362123652567  0.9996280853879946  1.0000
  Ni  Ni26      1.0  0.008315971259734954  0.004475012958849905  0.9999568700247475  1.0000
  Ni  Ni27      1.0  0.0030296157098649123  0.004484362277503332  0.9997393564592036  1.0000
  Ni  Ni28      1.0  0.0006299613354848267  0.009502152079880795  0.9998500005654444  1.0000
  Ni  Ni29      1.0  0.005995513733386693  0.008710700476069652  0.9998328240476558  1.0000
  Ni  Ni30      1.0  0.008435129528177302  0.0036733346062432764  0.999721307743262  1.0000
  Ni  Ni31      1.0  0.003719643928394426  0.0036712030519776193  0.9999371647513762  1.0000
  Ni  Ni32      1.0  0.0009351293820285033  0.00867333493317615  0.9996100365181371  1.0000
  Mo  Mo9       1.0  0.007491194822898032  0.005326719733846793  0.9997652252401208  1.0000
  Mo  Mo10      1.0  0.0001073724460291443  0.0003288486774572875  0.9996468786127721  1.0000
  Mo  Mo11      1.0  0.0052924847667181404  0.00033957150482179064  0.9998586540025627  1.0000
  Mo  Mo12      1.0  0.0029137030370646284  0.005308406685018806  0.9999726156853757  1.0000
  Mo  Mo13      1.0  0.006898275274846517  0.0078066349203819215  1.3904300854578612e-05  1.0000
  Mo  Mo14      1.0  0.009131435360654442  0.002827652050249137  0.9999154847789468  1.0000
  Mo  Mo15      1.0  0.003857372488252671  0.0028288487207278152  0.9997025142758305  1.0000
  Mo  Mo16      1.0  0.0011924322975550886  0.007857422980922566  0.99983040035958  1.0000
