data_image0
_chemical_formula_structural       COIr10W10
_chemical_formula_sum              "C1 O1 Ir10 W10"
_cell_length_a       7.154405047987154
_cell_length_b       7.393100272953273
_cell_length_c       98.7453842163086
_cell_angle_alpha    81.12048966246049
_cell_angle_beta     84.72312868812438
_cell_angle_gamma    54.158514794309156

_space_group_name_H-M_alt    "P 1"
_space_group_IT_number       1

loop_
  _space_group_symop_operation_xyz
  'x, y, z'

loop_
  _atom_site_type_symbol
  _atom_site_label
  _atom_site_symmetry_multiplicity
  _atom_site_fract_x
  _atom_site_fract_y
  _atom_site_fract_z
  _atom_site_occupancy
  C   C1        1.0  0.004321981159169933  0.006764343594255284  4.37785060542972e-05  1.0000
  O   O1        1.0  0.004321981159169933  0.006764343594255284  0.00016530281637308175  1.0000
  Ir  Ir1       1.0  0.00725428619723875  0.00795626729349722  0.9995079540133142  1.0000
  Ir  Ir2       1.0  0.0052052506339399516  0.006038418652263124  0.9996450696272788  1.0000
  Ir  Ir3       1.0  0.003207050844170873  0.0040115155691993285  0.9997895006584924  1.0000
  Ir  Ir4       1.0  0.009254286911811247  0.00995626706295735  0.9993624009766718  1.0000
  Ir  Ir5       1.0  0.0012542867047233986  0.0019562670454162743  0.9992168480342521  1.0000
  Ir  Ir6       1.0  0.008829790957537368  0.008087861079561675  0.9997554108074748  1.0000
  Ir  Ir7       1.0  0.006539394284595095  0.0061671219194260355  0.9998851533579964  1.0000
  Ir  Ir8       1.0  0.004849656064652678  0.00406321350836535  0.9993190720775014  1.0000
  Ir  Ir9       1.0  0.0008784713376230028  0.00010819044590234629  0.9996080511646634  1.0000
  Ir  Ir10      1.0  0.0028496559662522  0.00206321358228846  0.999464625111848  1.0000
  W   W1        1.0  0.006241299802809084  0.001975747820967228  0.9995816756648552  1.0000
  W   W2        1.0  0.004198316708438012  0.00019509594992294155  0.9997289592184344  1.0000
  W   W3        1.0  0.002116392974450424  0.008086893187991911  0.999847335616131  1.0000
  W   W4        1.0  0.00824129990120956  0.003975747747044118  0.9994361226305086  1.0000
  W   W5        1.0  0.00024129975820147642  0.005975747516504249  0.9992905695211102  1.0000
  W   W6        1.0  0.001862642878453409  0.006043732972124803  0.9995364564923577  1.0000
  W   W7        1.0  0.009758700470233953  0.004058408819437005  0.9996857529211154  1.0000
  W   W8        1.0  0.0076000207414021435  0.002271470645348451  0.9998187956053433  1.0000
  W   W9        1.0  0.003862643070110917  0.008043732741584934  0.9993909034591997  1.0000
  W   W10       1.0  0.005862643121917325  4.373285129497352e-05  0.9992453502902451  1.0000
