data_image0
_chemical_formula_structural       V10Sb8V10Sb8H
_chemical_formula_sum              "V20 Sb16 H1"
_cell_length_a       9.937262535095215
_cell_length_b       6.920693874359131
_cell_length_c       109.74905395507812
_cell_angle_alpha    90.0
_cell_angle_beta     90.0
_cell_angle_gamma    90.0

_space_group_name_H-M_alt    "P 1"
_space_group_IT_number       1

loop_
  _space_group_symop_operation_xyz
  'x, y, z'

loop_
  _atom_site_type_symbol
  _atom_site_label
  _atom_site_symmetry_multiplicity
  _atom_site_fract_x
  _atom_site_fract_y
  _atom_site_fract_z
  _atom_site_occupancy
  V   V1        1.0  0.009635361559168807  0.001250000123805038  0.9998894385407174  1.0000
  V   V2        1.0  0.0009528988905623573  0.0037500002368444207  0.999747281731047  1.0000
  V   V3        1.0  0.0065536258184400635  0.0012499990472394896  0.9995659587654261  1.0000
  V   V4        1.0  0.0029152110039851343  0.0012499990472394896  0.9993592035413487  1.0000
  V   V5        1.0  0.008592696209683804  0.003749999160278872  0.9991745752728114  1.0000
  V   V6        1.0  0.004734418598653068  0.003749999160278872  0.9994625808818377  1.0000
  V   V7        1.0  0.005876140612741393  0.0012499990472394896  0.9992978604647137  1.0000
  V   V8        1.0  0.00046535428160516217  0.003750001044268582  0.0  1.0000
  V   V9        1.0  0.00808459383299864  0.003750000775127195  0.9998333070458744  1.0000
  V   V10       1.0  0.0035926962096838044  0.0012499990472394896  0.9996273018420611  1.0000
  Sb  Sb1       1.0  0.0018340626267097568  0.003749999160278872  0.9995196443352422  1.0000
  Sb  Sb2       1.0  0.009104198006713067  0.0012499990472394896  0.9996526939111624  1.0000
  Sb  Sb3       1.0  0.00036463855798148505  0.0012499990472394896  0.999272467852513  1.0000
  Sb  Sb4       1.0  0.007634774195715441  0.003749999160278872  0.9994055174284332  1.0000
  Sb  Sb5       1.0  0.007945175612225557  0.0012499995855222638  7.012770934474372e-05  1.0000
  Sb  Sb6       1.0  0.0041041980067130675  0.003749999160278872  0.9991999673419127  1.0000
  Sb  Sb7       1.0  0.0053646388157121295  0.003749999160278872  0.9997251949648621  1.0000
  Sb  Sb8       1.0  0.002505572980021545  0.0012499995855222638  0.9998890958449994  1.0000
  V   V11       1.0  0.009635361559168807  0.00625000021531311  0.9998894385407174  1.0000
  V   V12       1.0  0.0009528988905623573  0.008750000193781799  0.999747281731047  1.0000
  V   V13       1.0  0.0065536258184400635  0.006249999138747561  0.9995659587654261  1.0000
  V   V14       1.0  0.0029152110039851343  0.006249999138747561  0.9993592035413487  1.0000
  V   V15       1.0  0.008592696209683804  0.00874999911721625  0.9991745752728114  1.0000
  V   V16       1.0  0.004734418598653068  0.00874999911721625  0.9994625808818377  1.0000
  V   V17       1.0  0.005876140612741393  0.006249999138747561  0.9992978604647137  1.0000
  V   V18       1.0  0.00046535428160516217  0.008750001270347347  0.0  1.0000
  V   V19       1.0  0.00808459383299864  0.008750000732064573  0.9998333070458744  1.0000
  V   V20       1.0  0.0035926962096838044  0.006249999138747561  0.9996273018420611  1.0000
  Sb  Sb9       1.0  0.0018340626267097568  0.00874999911721625  0.9995196443352422  1.0000
  Sb  Sb10      1.0  0.009104198006713067  0.006249999138747561  0.9996526939111624  1.0000
  Sb  Sb11      1.0  0.00036463855798148505  0.006249999138747561  0.999272467852513  1.0000
  Sb  Sb12      1.0  0.007634774195715441  0.00874999911721625  0.9994055174284332  1.0000
  Sb  Sb13      1.0  0.007945175612225557  0.0062499996770303354  7.012770934474372e-05  1.0000
  Sb  Sb14      1.0  0.0041041980067130675  0.00874999911721625  0.9991999673419127  1.0000
  Sb  Sb15      1.0  0.0053646388157121295  0.00874999911721625  0.9997251949648621  1.0000
  Sb  Sb16      1.0  0.002505572980021545  0.0062499996770303354  0.9998890958449994  1.0000
  H   H1        1.0  0.006224817747883272  0.0012499991818101831  0.9999768476728026  1.0000
