data_image0
_chemical_formula_structural       COSi32
_chemical_formula_sum              "C1 O1 Si32"
_cell_length_a       7.775730133056641
_cell_length_b       9.523286148662729
_cell_length_c       106.05458068847656
_cell_angle_alpha    95.051152365771
_cell_angle_beta     90.0
_cell_angle_gamma    90.0

_space_group_name_H-M_alt    "P 1"
_space_group_IT_number       1

loop_
  _space_group_symop_operation_xyz
  'x, y, z'

loop_
  _atom_site_type_symbol
  _atom_site_label
  _atom_site_symmetry_multiplicity
  _atom_site_fract_x
  _atom_site_fract_y
  _atom_site_fract_z
  _atom_site_occupancy
  C   C1        1.0  0.0037500001245639267  0.0017446241713924117  0.00017647620250388777  1.0000
  O   O1        1.0  0.0037500001245639267  0.0017446241713924117  0.0002896257170349366  1.0000
  Si  Si1       1.0  0.001249999961672638  0.0045143962337449006  0.9997928762179444  1.0000
  Si  Si2       1.0  0.001249999961672638  0.0015838676641499556  1.2522222782904022e-05  1.0000
  Si  Si3       1.0  0.001249999961672638  0.0007814750968095353  0.9993635469902354  1.0000
  Si  Si4       1.0  0.001249999961672638  0.0076564747669398215  0.9995760234142077  1.0000
  Si  Si5       1.0  0.001249999961672638  0.008281474986852964  0.9993635470006065  1.0000
  Si  Si6       1.0  0.001249999961672638  0.005156475065393372  0.9995760237874997  1.0000
  Si  Si7       1.0  0.0012500000814456443  0.002001168756670908  0.9997921981900951  1.0000
  Si  Si8       1.0  0.001249999961672638  0.009218524887482383  0.9999430152990858  1.0000
  Si  Si9       1.0  0.0037500001245639267  0.004218975128225699  0.9994697853442785  1.0000
  Si  Si10      1.0  0.0037500001245639267  0.0010939751085905967  0.9996822618493862  1.0000
  Si  Si11      1.0  0.0037500001245639267  0.007849931573083195  0.9998972195175103  1.0000
  Si  Si12      1.0  0.0037500001245639267  0.007343975049685291  0.9992573088383947  1.0000
  Si  Si13      1.0  0.0037500001245639267  0.004843974955436801  0.9992573086465633  1.0000
  Si  Si14      1.0  0.0037500001245639267  0.0017189750339772088  0.9994697851524471  1.0000
  Si  Si15      1.0  0.0037500001245639267  0.008593974704107495  0.9996822618574287  1.0000
  Si  Si16      1.0  0.0037500001245639267  0.005386405251641457  0.9998984591885819  1.0000
  Si  Si17      1.0  0.006250000287455215  0.0045143962337449006  0.9997928762179444  1.0000
  Si  Si18      1.0  0.006250000287455215  0.0015838676641499556  1.2522222782904022e-05  1.0000
  Si  Si19      1.0  0.006250000287455215  0.0007814750968095353  0.9993635469902354  1.0000
  Si  Si20      1.0  0.006250000287455215  0.0076564747669398215  0.9995760234142077  1.0000
  Si  Si21      1.0  0.006250000287455215  0.008281474986852964  0.9993635470006065  1.0000
  Si  Si22      1.0  0.006250000287455215  0.005156475065393372  0.9995760237874997  1.0000
  Si  Si23      1.0  0.006250000287455215  0.002001168756670908  0.9997921981900951  1.0000
  Si  Si24      1.0  0.006250000287455215  0.009218524887482383  0.9999430152990858  1.0000
  Si  Si25      1.0  0.008749999731708466  0.004218975128225699  0.9994697853442785  1.0000
  Si  Si26      1.0  0.008749999731708466  0.0010939751085905967  0.9996822618493862  1.0000
  Si  Si27      1.0  0.008750000689892517  0.007849931573083195  0.9998972195175103  1.0000
  Si  Si28      1.0  0.008749999731708466  0.007343975049685291  0.9992573088383947  1.0000
  Si  Si29      1.0  0.008749999731708466  0.004843974955436801  0.9992573086465633  1.0000
  Si  Si30      1.0  0.008749999731708466  0.0017189750339772088  0.9994697851524471  1.0000
  Si  Si31      1.0  0.008749999731708466  0.008593974704107495  0.9996822618574287  1.0000
  Si  Si32      1.0  0.008749999731708466  0.005386405251641457  0.9998984591885819  1.0000
