data_image0
_chemical_formula_structural       HVRhVRhVRhVRhVRhVRhVRhVRhVRhVRhVRhVRh
_chemical_formula_sum              "H1 V12 Rh12"
_cell_length_a       5.488143444061279
_cell_length_b       7.332531929016113
_cell_length_c       100.1847915649414
_cell_angle_alpha    90.0
_cell_angle_beta     90.0
_cell_angle_gamma    90.0

_space_group_name_H-M_alt    "P 1"
_space_group_IT_number       1

loop_
  _space_group_symop_operation_xyz
  'x, y, z'

loop_
  _atom_site_type_symbol
  _atom_site_label
  _atom_site_symmetry_multiplicity
  _atom_site_fract_x
  _atom_site_fract_y
  _atom_site_fract_z
  _atom_site_occupancy
  H   H1        1.0  0.00499999868314973  0.0025000020931645684  3.4625917484482446e-06  1.0000
  V   V1        1.0  0.0025000006991524634  0.0025000005690156107  0.9993261261005187  1.0000
  Rh  Rh1       1.0  6.000000217759002e-10  4.5000001125163463e-10  0.9994630766612197  1.0000
  V   V2        1.0  0.0025000006991524634  0.0025000005690156107  0.9996000272219207  1.0000
  Rh  Rh2       1.0  0.009999999402665856  0.010000000243863832  0.9997355281941688  1.0000
  V   V3        1.0  0.0024999988324832653  0.0025000020931645684  0.9998804852546042  1.0000
  Rh  Rh3       1.0  0.00999999600872186  1.950000099227282e-09  0.0  1.0000
  V   V4        1.0  0.0025000006991524634  0.007500000690947527  0.9993261261005187  1.0000
  Rh  Rh4       1.0  6.000000217759002e-10  0.005000000629981569  0.9994630766612197  1.0000
  V   V5        1.0  0.0025000006991524634  0.007500000690947527  0.9996000272219207  1.0000
  Rh  Rh5       1.0  0.009999999402665856  0.004999999613882264  0.9997355281941688  1.0000
  V   V6        1.0  0.0024999988324832653  0.007500002215096484  0.9998804852546042  1.0000
  Rh  Rh6       1.0  0.00999999600872186  0.005000002154130527  0.0  1.0000
  V   V7        1.0  0.007500000570182592  0.0025000005690156107  0.9993261261005187  1.0000
  Rh  Rh7       1.0  0.005000000719516127  4.5000001125163463e-10  0.9994630766612197  1.0000
  V   V8        1.0  0.007500000570182592  0.0025000005690156107  0.9996000272219207  1.0000
  Rh  Rh8       1.0  0.004999999361938529  0.010000000243863832  0.9997355281941688  1.0000
  V   V9        1.0  0.007499999212604993  0.0025000020931645684  0.9998804852546042  1.0000
  Rh  Rh9       1.0  0.0049999963073889325  1.950000099227282e-09  0.0  1.0000
  V   V10       1.0  0.007500000570182592  0.007500000690947527  0.9993261261005187  1.0000
  Rh  Rh10      1.0  0.005000000719516127  0.005000000629981569  0.9994630766612197  1.0000
  V   V11       1.0  0.007500000570182592  0.007500000690947527  0.9996000272219207  1.0000
  Rh  Rh11      1.0  0.004999999361938529  0.004999999613882264  0.9997355281941688  1.0000
  V   V12       1.0  0.007499999212604993  0.007500002215096484  0.9998804852546042  1.0000
  Rh  Rh12      1.0  0.0049999963073889325  0.005000002154130527  0.0  1.0000
