data_image0
_chemical_formula_structural       COCuAuCuAuCuAuCuAuCuAuCuAuCuAuCuAuCuAuCuAuCuAuCuAu
_chemical_formula_sum              "C1 O1 Cu12 Au12"
_cell_length_a       7.397346496582031
_cell_length_b       5.785843849182129
_cell_length_c       98.92921447753906
_cell_angle_alpha    90.0
_cell_angle_beta     90.0
_cell_angle_gamma    90.0

_space_group_name_H-M_alt    "P 1"
_space_group_IT_number       1

loop_
  _space_group_symop_operation_xyz
  'x, y, z'

loop_
  _atom_site_type_symbol
  _atom_site_label
  _atom_site_symmetry_multiplicity
  _atom_site_fract_x
  _atom_site_fract_y
  _atom_site_fract_z
  _atom_site_occupancy
  C   C1        1.0  0.0024999998992803626  0.004999999896981934  0.00010197397594635552  1.0000
  O   O1        1.0  0.0024999998992803626  0.004999999896981934  0.00022327246979798488  1.0000
  Cu  Cu1       1.0  0.0012499999496401813  0.00374999992273645  0.0  1.0000
  Au  Au1       1.0  0.0037499998489205436  0.0012499999742454835  0.9998537882176473  1.0000
  Cu  Cu2       1.0  0.0012499999496401813  0.00374999992273645  0.9997075764352946  1.0000
  Au  Au2       1.0  0.0037499998489205436  0.0012499999742454835  0.9995613646529419  1.0000
  Cu  Cu3       1.0  0.0012499999496401813  0.00374999992273645  0.9994151528705892  1.0000
  Au  Au3       1.0  0.0037499998489205436  0.0012499999742454835  0.9992689413894855  1.0000
  Cu  Cu4       1.0  0.0012499999496401813  0.008749999819718383  0.0  1.0000
  Au  Au4       1.0  0.0037499998489205436  0.006249999871227417  0.9998537882176473  1.0000
  Cu  Cu5       1.0  0.0012499999496401813  0.008749999819718383  0.9997075764352946  1.0000
  Au  Au5       1.0  0.0037499998489205436  0.006249999871227417  0.9995613646529419  1.0000
  Cu  Cu6       1.0  0.0012499999496401813  0.008749999819718383  0.9994151528705892  1.0000
  Au  Au6       1.0  0.0037499998489205436  0.006249999871227417  0.9992689413894855  1.0000
  Cu  Cu7       1.0  0.00625  0.00374999992273645  0.0  1.0000
  Au  Au7       1.0  0.008749999395682174  0.0012499999742454835  0.9998537882176473  1.0000
  Cu  Cu8       1.0  0.00625  0.00374999992273645  0.9997075764352946  1.0000
  Au  Au8       1.0  0.008749999395682174  0.0012499999742454835  0.9995613646529419  1.0000
  Cu  Cu9       1.0  0.00625  0.00374999992273645  0.9994151528705892  1.0000
  Au  Au9       1.0  0.008749999395682174  0.0012499999742454835  0.9992689413894855  1.0000
  Cu  Cu10      1.0  0.00625  0.008749999819718383  0.0  1.0000
  Au  Au10      1.0  0.008749999395682174  0.006249999871227417  0.9998537882176473  1.0000
  Cu  Cu11      1.0  0.00625  0.008749999819718383  0.9997075764352946  1.0000
  Au  Au11      1.0  0.008749999395682174  0.006249999871227417  0.9995613646529419  1.0000
  Cu  Cu12      1.0  0.00625  0.008749999819718383  0.9994151528705892  1.0000
  Au  Au12      1.0  0.008749999395682174  0.006249999871227417  0.9992689413894855  1.0000
