data_image0
_chemical_formula_structural       COV6Co2V6Co2
_chemical_formula_sum              "C1 O1 V12 Co4"
_cell_length_a       4.655666828155518
_cell_length_b       4.655666828155518
_cell_length_c       102.58966827392578
_cell_angle_alpha    90.0
_cell_angle_beta     90.0
_cell_angle_gamma    90.0

_space_group_name_H-M_alt    "P 1"
_space_group_IT_number       1

loop_
  _space_group_symop_operation_xyz
  'x, y, z'

loop_
  _atom_site_type_symbol
  _atom_site_label
  _atom_site_symmetry_multiplicity
  _atom_site_fract_x
  _atom_site_fract_y
  _atom_site_fract_z
  _atom_site_occupancy
  C   C1        1.0  0.0012500015523153709  0.006109472010108729  7.404211801571441e-05  1.0000
  O   O1        1.0  0.0012500015523153709  0.006109472010108729  0.00019101261724775265  1.0000
  V   V1        1.0  0.0037499998559707387  0.0011094254926581693  0.9993265760167434  1.0000
  V   V2        1.0  0.008749999263850443  0.0011094254926581693  0.9993265760167434  1.0000
  V   V3        1.0  0.0012499999519902463  0.006109425200598834  0.9992131223133144  1.0000
  V   V4        1.0  0.0012499999519902463  0.006109425200598834  0.9994400294296721  1.0000
  V   V5        1.0  0.006249999759951231  0.0036094252966183413  0.9995534831331011  1.0000
  V   V6        1.0  0.006249999759951231  0.008609425104579327  0.9995534831331011  1.0000
  Co  Co1       1.0  0.006249999759951231  0.006109425200598834  0.9993265760167434  1.0000
  Co  Co2       1.0  0.0012499999519902463  0.0011094254926581693  0.9995534831331011  1.0000
  V   V7        1.0  0.0037539650615482484  0.0011094273930442548  0.9997750046656662  1.0000
  V   V8        1.0  0.008746021655753217  0.0011094286933084185  0.9997750052466666  1.0000
  V   V9        1.0  0.0012499999519902463  0.006109425200598834  0.99966693683653  1.0000
  V   V10       1.0  0.0012500015523153709  0.006109472010108729  0.9999052091934464  1.0000
  V   V11       1.0  0.0062500113623083844  0.0033282871801487784  0.9999999982569986  1.0000
  V   V12       1.0  0.00625001656336504  0.00889057422328412  0.0  1.0000
  Co  Co3       1.0  0.0062500253651532256  0.006109434802549582  0.9997842501260352  1.0000
  Co  Co4       1.0  0.0012500001520308868  0.0011094366949340416  0.9999880732224937  1.0000
