data_image0
_chemical_formula_structural       COGa15Pt25
_chemical_formula_sum              "C1 O1 Ga15 Pt25"
_cell_length_a       5.572155414425786
_cell_length_b       9.766344483807758
_cell_length_c       104.3263931274414
_cell_angle_alpha    90.95488063654561
_cell_angle_beta     93.56286583035674
_cell_angle_gamma    92.503709517318

_space_group_name_H-M_alt    "P 1"
_space_group_IT_number       1

loop_
  _space_group_symop_operation_xyz
  'x, y, z'

loop_
  _atom_site_type_symbol
  _atom_site_label
  _atom_site_symmetry_multiplicity
  _atom_site_fract_x
  _atom_site_fract_y
  _atom_site_fract_z
  _atom_site_occupancy
  C   C1        1.0  0.005179146395429389  0.006323632767782059  0.00017765955314159661  1.0000
  O   O1        1.0  0.005179146395429389  0.006323632767782059  0.0002926834120038144  1.0000
  Ga  Ga1       1.0  1.010780261861177e-05  0.009642418480423296  0.9991345757229136  1.0000
  Ga  Ga2       1.0  1.0107734999876698e-05  0.006309084734661473  0.9993539281673172  1.0000
  Ga  Ga3       1.0  0.009989892308842865  0.006201380943784983  2.968391522954611e-05  1.0000
  Ga  Ga4       1.0  1.0107739294544074e-05  0.002975751370777881  0.999573280612555  1.0000
  Ga  Ga5       1.0  0.009906934238614147  0.009621147099152745  0.9997960460098295  1.0000
  Ga  Ga6       1.0  0.007041425726841188  0.002216545177147996  0.9998117316999585  1.0000
  Ga  Ga7       1.0  0.006789919832260481  0.008940744724630235  3.0132874136156192e-05  1.0000
  Ga  Ga8       1.0  0.007155598684547398  0.005593921130328283  0.9995888333342043  1.0000
  Ga  Ga9       1.0  0.00715559852137974  0.002260587766444691  0.9991501281502666  1.0000
  Ga  Ga10      1.0  0.007155598847715057  0.008927254494211875  0.9993694808895223  1.0000
  Ga  Ga11      1.0  0.002864616642010006  0.000357581849901374  0.9995577285592279  1.0000
  Ga  Ga12      1.0  0.002829891170016628  0.006991754320246482  0.9997814416955458  1.0000
  Ga  Ga13      1.0  0.0028646166189354506  0.003690914975111071  0.999338375827891  1.0000
  Ga  Ga14      1.0  0.0027873378467386098  0.0036806298486926348  1.4993614027351505e-05  1.0000
  Ga  Ga15      1.0  0.0028646166146407835  0.0070242483389946625  0.9991190230969887  1.0000
  Pt  Pt1       1.0  0.00501010774727921  0.0013090847843056429  0.9993539282124274  1.0000
  Pt  Pt2       1.0  0.00501010773117792  0.007975751416603269  0.9995732809503975  1.0000
  Pt  Pt3       1.0  0.005010107568010261  0.004642418052719676  0.9991345757664598  1.0000
  Pt  Pt4       1.0  0.004961749531228126  0.004611452310655363  0.9997930656097225  1.0000
  Pt  Pt5       1.0  0.004654432152999564  0.001360035646286076  9.436472066847143e-06  1.0000
  Pt  Pt6       1.0  1.010774895383296e-05  0.0013090847843056429  0.99935392816387  1.0000
  Pt  Pt7       1.0  1.010773285254299e-05  0.007975751416603269  0.999573280616176  1.0000
  Pt  Pt8       1.0  1.0107737147210328e-05  0.004642418052719676  0.9991345757184583  1.0000
  Pt  Pt9       1.0  0.009982894945851393  0.0046375949306514015  0.9997843350326052  1.0000
  Pt  Pt10      1.0  0.009633275073268567  0.00109509530736664  8.852388139681635e-08  1.0000
  Pt  Pt11      1.0  0.005010107821351084  0.002975751370777881  0.9995732809470546  1.0000
  Pt  Pt12      1.0  0.004908078882209594  0.009634694611305884  0.9997892500899251  1.0000
  Pt  Pt13      1.0  0.005010107649594091  0.006309084734661473  0.9993539282155965  1.0000
  Pt  Pt14      1.0  0.004982926031681488  0.006289123959482634  1.1284585872997793e-05  1.0000
  Pt  Pt15      1.0  0.005010107842809571  0.009642418480423296  0.99913457577161  1.0000
  Pt  Pt16      1.0  0.0020971093150537372  0.008671418991565783  0.9993358099479087  1.0000
  Pt  Pt17      1.0  0.0020971092893005837  0.005338085245803958  0.9995551626781155  1.0000
  Pt  Pt18      1.0  0.0020971092935952508  0.0020047518819203665  0.9991164572090693  1.0000
  Pt  Pt19      1.0  0.0020836250118190583  0.001996248790270862  0.9997702864034095  1.0000
  Pt  Pt20      1.0  0.002038639177714415  0.008539156993477202  0.9999905293964664  1.0000
  Pt  Pt21      1.0  0.00792310586228254  0.0006134176389561402  0.9995913992145871  1.0000
  Pt  Pt22      1.0  0.007904636591318246  0.007236277825908691  0.999810545465637  1.0000
  Pt  Pt23      1.0  0.007923106014182266  0.003946750859635395  0.9993720467696441  1.0000
  Pt  Pt24      1.0  0.008013873625573301  0.0037926251871386635  1.5067579972420533e-05  1.0000
  Pt  Pt25      1.0  0.007923106207397746  0.0072800846053972185  0.9991526940399933  1.0000
