data_image0
_chemical_formula_structural       COSn4Rh8Sn4Rh8Sn4Rh8Sn4Rh8
_chemical_formula_sum              "C1 O1 Sn16 Rh32"
_cell_length_a       8.64061450958252
_cell_length_b       8.128945350646973
_cell_length_c       103.6705322265625
_cell_angle_alpha    90.0
_cell_angle_beta     90.0
_cell_angle_gamma    90.0

_space_group_name_H-M_alt    "P 1"
_space_group_IT_number       1

loop_
  _space_group_symop_operation_xyz
  'x, y, z'

loop_
  _atom_site_type_symbol
  _atom_site_label
  _atom_site_symmetry_multiplicity
  _atom_site_fract_x
  _atom_site_fract_y
  _atom_site_fract_z
  _atom_site_occupancy
  C   C1        1.0  0.0025000001120956705  0.0029992280563684087  0.0001208041443214694  1.0000
  O   O1        1.0  0.0025000001120956705  0.0029992280563684087  0.0002365556897314043  1.0000
  Sn  Sn1       1.0  0.0012499995171263423  0.0010318931024387314  0.9990698905930424  1.0000
  Sn  Sn2       1.0  0.0012499995171263423  0.003973430326900495  0.9993405441386394  1.0000
  Sn  Sn3       1.0  0.0037499994136534157  0.00897343089516117  0.9993991684871047  1.0000
  Sn  Sn4       1.0  0.0037499994136534157  0.006031893212424669  0.9991285149415078  1.0000
  Rh  Rh1       1.0  0.0037499994136534157  0.005673449043574023  0.9994110867676165  1.0000
  Rh  Rh2       1.0  0.0012499995171263423  0.007233510197074856  0.9992564777008779  1.0000
  Rh  Rh3       1.0  0.0012499995171263423  0.0077718134522362465  0.9989858244427524  1.0000
  Rh  Rh4       1.0  0.0012499995171263423  0.004331874495751141  0.9990579723125307  1.0000
  Rh  Rh5       1.0  0.0012499995171263423  0.0006734491627254551  0.9993286258581277  1.0000
  Rh  Rh6       1.0  0.0037499994136534157  0.00933187414746234  0.9991404332220195  1.0000
  Rh  Rh7       1.0  0.0037499994136534157  0.002233510316226287  0.9994832349248662  1.0000
  Rh  Rh8       1.0  0.0037499994136534157  0.002771813342250309  0.9992125813792693  1.0000
  Sn  Sn5       1.0  0.0012499995171263423  0.0010318931024387314  0.9996111976842363  1.0000
  Sn  Sn6       1.0  0.0012500001638321339  0.0038985427354611205  0.9999074635022517  1.0000
  Sn  Sn7       1.0  0.0037500002759278048  0.008889565701609972  0.9999470057806699  1.0000
  Sn  Sn8       1.0  0.0037499994136534157  0.006031893212424669  0.9996698217452303  1.0000
  Rh  Rh9       1.0  0.0037500002759278048  0.0056525040549615276  0.9999256541232078  1.0000
  Rh  Rh10      1.0  0.0012499997326949396  0.007370523803332475  0.9998016670945469  1.0000
  Rh  Rh11      1.0  0.0012499995171263423  0.0077718134522362465  0.999527131246475  1.0000
  Rh  Rh12      1.0  0.0012499995171263423  0.004331874495751141  0.9995992791162532  1.0000
  Rh  Rh13      1.0  0.0012500000560478352  0.0006681256715191387  0.9998610362816434  1.0000
  Rh  Rh14      1.0  0.0037499994136534157  0.00933187414746234  0.9996817403132134  1.0000
  Rh  Rh15      1.0  0.0037499998447906102  0.002099913606413066  0.0  1.0000
  Rh  Rh16      1.0  0.0037499998447906102  0.0027357970723386016  0.9997522978907081  1.0000
  Sn  Sn9       1.0  0.006249999310180489  0.0010318931024387314  0.9990698905930424  1.0000
  Sn  Sn10      1.0  0.006249999310180489  0.003973430326900495  0.9993405441386394  1.0000
  Sn  Sn11      1.0  0.008749999206707562  0.00897343089516117  0.9993991684871047  1.0000
  Sn  Sn12      1.0  0.008749999206707562  0.006031893212424669  0.9991285149415078  1.0000
  Rh  Rh17      1.0  0.008749999206707562  0.005673449043574023  0.9994110867676165  1.0000
  Rh  Rh18      1.0  0.006249999310180489  0.007233510197074856  0.9992564777008779  1.0000
  Rh  Rh19      1.0  0.006249999310180489  0.0077718134522362465  0.9989858244427524  1.0000
  Rh  Rh20      1.0  0.006249999310180489  0.004331874495751141  0.9990579723125307  1.0000
  Rh  Rh21      1.0  0.006249999310180489  0.0006734491627254551  0.9993286258581277  1.0000
  Rh  Rh22      1.0  0.008749999206707562  0.00933187414746234  0.9991404332220195  1.0000
  Rh  Rh23      1.0  0.008749999206707562  0.002233510316226287  0.9994832349248662  1.0000
  Rh  Rh24      1.0  0.008749999206707562  0.002771813342250309  0.9992125813792693  1.0000
  Sn  Sn13      1.0  0.006249999310180489  0.0010318931024387314  0.9996111976842363  1.0000
  Sn  Sn14      1.0  0.006250000172454878  0.0038985427354611205  0.9999074635022517  1.0000
  Sn  Sn15      1.0  0.008750000068981951  0.008889565701609972  0.9999470057806699  1.0000
  Sn  Sn16      1.0  0.008749999206707562  0.006031893212424669  0.9996698217452303  1.0000
  Rh  Rh25      1.0  0.008750000068981951  0.0056525040549615276  0.9999256541232078  1.0000
  Rh  Rh26      1.0  0.0062499997413176835  0.007370523803332475  0.9998016670945469  1.0000
  Rh  Rh27      1.0  0.006249999310180489  0.0077718134522362465  0.999527131246475  1.0000
  Rh  Rh28      1.0  0.006249999310180489  0.004331874495751141  0.9995992791162532  1.0000
  Rh  Rh29      1.0  0.0062499997413176835  0.0006681256715191387  0.9998610362816434  1.0000
  Rh  Rh30      1.0  0.008749999206707562  0.00933187414746234  0.9996817403132134  1.0000
  Rh  Rh31      1.0  0.008750000068981951  0.002099913606413066  0.0  1.0000
  Rh  Rh32      1.0  0.008749999206707562  0.0027357970723386016  0.9997522978907081  1.0000
