data_image0
_chemical_formula_structural       COV4Ir4V4Ir4V4Ir4V4Ir4
_chemical_formula_sum              "C1 O1 V16 Ir16"
_cell_length_a       5.820019245147705
_cell_length_b       5.649794578552246
_cell_length_c       103.88968658447266
_cell_angle_alpha    90.0
_cell_angle_beta     90.0
_cell_angle_gamma    90.0

_space_group_name_H-M_alt    "P 1"
_space_group_IT_number       1

loop_
  _space_group_symop_operation_xyz
  'x, y, z'

loop_
  _atom_site_type_symbol
  _atom_site_label
  _atom_site_symmetry_multiplicity
  _atom_site_fract_x
  _atom_site_fract_y
  _atom_site_fract_z
  _atom_site_occupancy
  C   C1        1.0  0.006021214805212255  0.0012500003428710421  4.979690779097262e-05  1.0000
  O   O1        1.0  0.006021214805212255  0.0012500003428710421  0.00016530370262852491  1.0000
  V   V1        1.0  0.003978783146524938  0.0012499999307664241  0.9992316155542262  1.0000
  V   V2        1.0  0.008063649664310208  0.0012499999307664241  0.9992316155542262  1.0000
  V   V3        1.0  0.008978783402557788  0.0012499999307664241  0.9989054069379781  1.0000
  V   V4        1.0  0.003063649728318421  0.0012499999307664241  0.9989054069379781  1.0000
  Ir  Ir1       1.0  0.006021216725458636  0.003750000039562043  0.9990465979101425  1.0000
  Ir  Ir2       1.0  0.006021216725458636  0.003750000039562043  0.9987642159658139  1.0000
  Ir  Ir3       1.0  0.0010212165494360517  0.003750000039562043  0.9993728062395255  1.0000
  Ir  Ir4       1.0  0.0010212165494360517  0.003750000039562043  0.9990904245820619  1.0000
  V   V5        1.0  0.003936044862895432  0.001250000590133813  0.9998830864188509  1.0000
  V   V6        1.0  0.008106384747529078  0.001250000178029195  0.9998830663382959  1.0000
  V   V7        1.0  0.008978783402557788  0.0012499999307664241  0.9995578238836093  1.0000
  V   V8        1.0  0.003063649728318421  0.0012499999307664241  0.9995578238836093  1.0000
  Ir  Ir5       1.0  0.006021216725458636  0.003750000039562043  0.9996990148557736  1.0000
  Ir  Ir6       1.0  0.006021216725458636  0.003750000039562043  0.9994166329114449  1.0000
  Ir  Ir7       1.0  0.001021662846699204  0.0037499987208272655  0.0  1.0000
  Ir  Ir8       1.0  0.0010213948923187277  0.0037499970724087935  0.9997374100244261  1.0000
  V   V9        1.0  0.003978783146524938  0.006249999736253044  0.9992316155542262  1.0000
  V   V10       1.0  0.008063649664310208  0.006249999736253044  0.9992316155542262  1.0000
  V   V11       1.0  0.008978783402557788  0.006249999736253044  0.9989054069379781  1.0000
  V   V12       1.0  0.003063649728318421  0.006249999736253044  0.9989054069379781  1.0000
  Ir  Ir9       1.0  0.006021216725458636  0.00874999976262774  0.9990465979101425  1.0000
  Ir  Ir10      1.0  0.006021216725458636  0.00874999976262774  0.9987642159658139  1.0000
  Ir  Ir11      1.0  0.0010212165494360517  0.00874999976262774  0.9993728062395255  1.0000
  Ir  Ir12      1.0  0.0010212165494360517  0.00874999976262774  0.9990904245820619  1.0000
  V   V13       1.0  0.003936044862895432  0.006250000395620433  0.9998830864188509  1.0000
  V   V14       1.0  0.008106384747529078  0.006249999736253044  0.9998830663382959  1.0000
  V   V15       1.0  0.008978783402557788  0.006249999736253044  0.9995578238836093  1.0000
  V   V16       1.0  0.003063649728318421  0.006249999736253044  0.9995578238836093  1.0000
  Ir  Ir13      1.0  0.006021216725458636  0.00874999976262774  0.9996990148557736  1.0000
  Ir  Ir14      1.0  0.006021216725458636  0.00874999976262774  0.9994166329114449  1.0000
  Ir  Ir15      1.0  0.001021662846699204  0.008749998443892962  0.0  1.0000
  Ir  Ir16      1.0  0.0010213948923187277  0.008749997125158185  0.9997374100244261  1.0000
