data_image0
_chemical_formula_structural       COGa8V24
_chemical_formula_sum              "C1 O1 Ga8 V24"
_cell_length_a       6.791942596435547
_cell_length_b       8.318397335209982
_cell_length_c       101.4929428100586
_cell_angle_alpha    95.05115247501448
_cell_angle_beta     90.0
_cell_angle_gamma    90.0

_space_group_name_H-M_alt    "P 1"
_space_group_IT_number       1

loop_
  _space_group_symop_operation_xyz
  'x, y, z'

loop_
  _atom_site_type_symbol
  _atom_site_label
  _atom_site_symmetry_multiplicity
  _atom_site_fract_x
  _atom_site_fract_y
  _atom_site_fract_z
  _atom_site_occupancy
  C   C1        1.0  0.002602082142897762  0.007576787884823305  0.00011311107287841204  1.0000
  O   O1        1.0  0.002602082142897762  0.007576787884823305  0.00023134613421812314  1.0000
  Ga  Ga1       1.0  1.1906899961079273e-05  0.005256082993769535  0.999611113311653  1.0000
  Ga  Ga2       1.0  0.005025455246608052  0.0020954941464664378  0.9997969697935238  1.0000
  Ga  Ga3       1.0  3.572810124013132e-05  0.009116723650351875  5.9890933895560005e-06  1.0000
  Ga  Ga4       1.0  0.005011907076205287  0.00838108281393615  0.9994171777532006  1.0000
  Ga  Ga5       1.0  0.009988093406463023  0.004116510296022442  5.968957600215031e-06  1.0000
  Ga  Ga6       1.0  0.005011907076205287  0.0033810827869611413  0.999417177656105  1.0000
  Ga  Ga7       1.0  1.1906899961079273e-05  0.0002560830510914275  0.9996111132151656  1.0000
  Ga  Ga8       1.0  0.004998720907035906  0.007094765623435449  0.9997968703750187  1.0000
  V   V1        1.0  0.008761906922629006  0.007599832634102763  0.9994656616411915  1.0000
  V   V2        1.0  0.0037619069445684753  0.004474832813936149  0.9996595971996439  1.0000
  V   V3        1.0  0.008730948686847326  0.0013600602308407523  0.9998587963419332  1.0000
  V   V4        1.0  0.003911548107445265  0.008425451306988768  2.4756740568072274e-05  1.0000
  V   V5        1.0  0.006261907207842099  0.006037332724019456  0.9995626294204177  1.0000
  V   V6        1.0  0.0012500139809264227  0.0028731548519105154  0.9997637536217343  1.0000
  V   V7        1.0  0.006036175853898163  0.009743916862363755  0.9999532865004688  1.0000
  V   V8        1.0  0.00126190695553821  0.009162332993769536  0.9993686938652098  1.0000
  V   V9        1.0  0.0025119068129316633  0.005881082688052779  0.9994171775570221  1.0000
  V   V10       1.0  0.007511906790992194  0.0027560828678861653  0.9996111131154743  1.0000
  V   V11       1.0  0.002529421090786855  0.009673695521705572  0.9998126210058158  1.0000
  V   V12       1.0  0.007539071144150663  0.006698341805979514  0.9999868949319025  1.0000
  V   V13       1.0  0.0025119068129316633  0.00775608267006944  0.9996111132109479  1.0000
  V   V14       1.0  0.007494433101154079  0.004673428666943735  0.999812648053532  1.0000
  V   V15       1.0  0.0024849242831199623  0.001698569380633964  0.9999868697560459  1.0000
  V   V16       1.0  0.007511906790992194  0.0008810829982653703  0.999417177755999  1.0000
  V   V17       1.0  0.008761906922629006  0.004162332742002795  0.999368693766492  1.0000
  V   V18       1.0  0.0037619069445684753  0.0010373330342320476  0.9995626293257552  1.0000
  V   V19       1.0  0.008773575977538476  0.007873173986182811  0.9997637635468108  1.0000
  V   V20       1.0  0.003987457846382438  0.0047434962500566835  0.9999533253587705  1.0000
  V   V21       1.0  0.00126190695553821  0.002599832831919488  0.999465661545718  1.0000
  V   V22       1.0  0.006261907207842099  0.00947483216653596  0.9996595969982337  1.0000
  V   V23       1.0  0.0012926164525936172  0.006360040138955675  0.9998588200786349  1.0000
  V   V24       1.0  0.0061113541857978826  0.00342600089580045  2.4722730136520025e-05  1.0000
