data_image0
_chemical_formula_structural       HGa36Rh8
_chemical_formula_sum              "H1 Ga36 Rh8"
_cell_length_a       6.5376920367489015
_cell_length_b       11.073275008171306
_cell_length_c       103.2198257446289
_cell_angle_alpha    71.85526472900398
_cell_angle_beta     92.485928803716
_cell_angle_gamma    92.48592881079749

_space_group_name_H-M_alt    "P 1"
_space_group_IT_number       1

loop_
  _space_group_symop_operation_xyz
  'x, y, z'

loop_
  _atom_site_type_symbol
  _atom_site_label
  _atom_site_symmetry_multiplicity
  _atom_site_fract_x
  _atom_site_fract_y
  _atom_site_fract_z
  _atom_site_occupancy
  H   H1        1.0  0.005992899523822092  0.009186443668341477  0.9999415062039235  1.0000
  Ga  Ga1       1.0  0.000695989171781708  0.006384739624642703  0.9994458591986901  1.0000
  Ga  Ga2       1.0  0.0006959892023511172  0.0013847393837855071  0.9989094665287901  1.0000
  Ga  Ga3       1.0  0.0006959891951892367  0.0012716972203277307  0.9994579867030283  1.0000
  Ga  Ga4       1.0  0.0006959891691077496  0.006271697549735367  0.9989215935635073  1.0000
  Ga  Ga5       1.0  0.00794581045326648  0.007905883168822011  0.9997577048542955  1.0000
  Ga  Ga6       1.0  0.008379704263082136  0.0028786317071531936  0.9992057381752355  1.0000
  Ga  Ga7       1.0  0.00852424404416016  0.00414069756177256  0.9996066605916932  1.0000
  Ga  Ga8       1.0  0.008379704636775617  0.009033403005480709  0.9990818560185549  1.0000
  Ga  Ga9       1.0  0.004478811698494795  0.007691404793876564  0.9995697440794596  1.0000
  Ga  Ga10      1.0  0.004357285938315242  0.0025659115778433684  0.9990367960546982  1.0000
  Ga  Ga11      1.0  0.004599243416750471  0.0024287561555165387  0.9995949696171981  1.0000
  Ga  Ga12      1.0  0.004357286125475693  0.0074586035618846355  0.9990483079694913  1.0000
  Ga  Ga13      1.0  0.006364565698862072  0.0047544548295392975  0.9992937411975752  1.0000
  Ga  Ga14      1.0  0.005909434419439443  0.009697162935711236  0.999813275904236  1.0000
  Ga  Ga15      1.0  0.005059370772102338  0.005310931651278858  0.9997984243561908  1.0000
  Ga  Ga16      1.0  0.00636456564372804  0.009853723655663206  0.9992830918985589  1.0000
  Ga  Ga17      1.0  0.004384959904509888  0.005146276358504864  0.9995368377369537  1.0000
  Ga  Ga18      1.0  0.0043849600282521795  0.00014627654933106193  0.9990004450528878  1.0000
  Ga  Ga19      1.0  0.004384960084007249  0.007119755031342492  0.9987887329497691  1.0000
  Ga  Ga20      1.0  0.004384959900693871  0.002119754790485295  0.9993251260857565  1.0000
  Ga  Ga21      1.0  0.006499687826801687  0.0071614474121123985  0.9993315548442309  1.0000
  Ga  Ga22      1.0  0.006499687937641203  0.002161447348356082  0.9987951621686347  1.0000
  Ga  Ga23      1.0  0.006486119952140184  0.00021951364075323946  0.9995317952194233  1.0000
  Ga  Ga24      1.0  0.006499687613220921  0.005206204462688284  0.9990049176859931  1.0000
  Ga  Ga25      1.0  0.0012086860399259398  0.006396584131498191  0.9997233312799887  1.0000
  Ga  Ga26      1.0  0.0012731818256613277  0.0008493521775904832  0.9991835494703046  1.0000
  Ga  Ga27      1.0  0.0012731817958858834  0.0038265684178613256  0.9994005509162094  1.0000
  Ga  Ga28      1.0  0.0012731817473647857  0.008826568304516762  0.9988641580801452  1.0000
  Ga  Ga29      1.0  0.009052990344567214  0.0013529561514542697  0.9997164195151639  1.0000
  Ga  Ga30      1.0  0.009304011197734175  0.006480641876382066  0.9991702007104493  1.0000
  Ga  Ga31      1.0  0.009304010991964262  0.0087021358094103  0.9994682744607816  1.0000
  Ga  Ga32      1.0  0.009304011111779623  0.003702135922754864  0.9989318817792935  1.0000
  Ga  Ga33      1.0  0.0021212045566153543  0.00330150893803489  0.9997531778930012  1.0000
  Ga  Ga34      1.0  0.0025467463445105615  0.0084034098374376  0.9992382189844937  1.0000
  Ga  Ga35      1.0  0.0025467462337305548  0.004336170887081703  0.9991381537018245  1.0000
  Ga  Ga36      1.0  0.0019903052086388973  0.009151870742948223  0.9996936817042487  1.0000
  Rh  Rh1       1.0  0.007717337267576531  0.006421771418654103  0.999592897461239  1.0000
  Rh  Rh2       1.0  0.007758089347215381  0.0013838276684551834  0.9990574590879102  1.0000
  Rh  Rh3       1.0  0.007758089795310778  0.0026512125709049583  0.9994578884332443  1.0000
  Rh  Rh4       1.0  0.007758089693447106  0.007651212811762155  0.998921495873927  1.0000
  Rh  Rh5       1.0  0.002962024010323318  0.005977926860385522  0.999275745262159  1.0000
  Rh  Rh6       1.0  0.0027483988172811195  0.0009678992562522447  0.9997823466057171  1.0000
  Rh  Rh7       1.0  0.002962023978751213  0.0046859723986493315  0.9988779513982524  1.0000
  Rh  Rh8       1.0  0.0029620238589358533  0.009685972285304769  0.9994143440797406  1.0000
