data_image0
_chemical_formula_structural       HCd18
_chemical_formula_sum              "H1 Cd18"
_cell_length_a       6.791827372226257
_cell_length_b       8.058985349197226
_cell_length_c       99.88233184814453
_cell_angle_alpha    95.38631183416997
_cell_angle_beta     90.25885000504753
_cell_angle_gamma    114.39383548431131

_space_group_name_H-M_alt    "P 1"
_space_group_IT_number       1

loop_
  _space_group_symop_operation_xyz
  'x, y, z'

loop_
  _atom_site_type_symbol
  _atom_site_label
  _atom_site_symmetry_multiplicity
  _atom_site_fract_x
  _atom_site_fract_y
  _atom_site_fract_z
  _atom_site_occupancy
  H   H1        1.0  0.003850583792821562  0.0008213947405960126  7.40407906139859e-06  1.0000
  Cd  Cd1       1.0  0.006371605172552581  0.008620325199985523  0.9992662026771176  1.0000
  Cd  Cd2       1.0  0.0027049383646856546  0.005286991397091421  0.9993659279317748  1.0000
  Cd  Cd3       1.0  0.009038271298264634  0.0019536579769914245  0.9994656528347456  1.0000
  Cd  Cd4       1.0  0.001649382850860949  0.009175879898082284  0.9993493068649018  1.0000
  Cd  Cd5       1.0  0.00798271605457007  0.005842547115972462  0.9994490320711621  1.0000
  Cd  Cd6       1.0  0.005316049332337958  0.00250921331307836  0.9992495817504261  1.0000
  Cd  Cd7       1.0  0.005371605198332158  0.008620325199985523  0.9995653779541706  1.0000
  Cd  Cd8       1.0  0.0017049383647542175  0.005286991397091421  0.9996651032088197  1.0000
  Cd  Cd9       1.0  0.008205847476144583  0.002026902949318534  0.9997772824884906  1.0000
  Cd  Cd10      1.0  0.0006493826709524178  0.009175879898082284  0.9996484824402658  1.0000
  Cd  Cd11      1.0  0.0069827161489123485  0.005842547115972462  0.9997482073482361  1.0000
  Cd  Cd12      1.0  0.004316049426680237  0.00250921331307836  0.9995487573258744  1.0000
  Cd  Cd13      1.0  0.004423100793300216  0.008764781487160853  0.9998932472596658  1.0000
  Cd  Cd14      1.0  0.001005518805719225  0.005688149921100725  1.7534559757693757e-05  1.0000
  Cd  Cd15      1.0  0.007033723960203429  0.002368662546552663  7.848193512441292e-05  1.0000
  Cd  Cd16      1.0  0.009350617188931055  0.009178605392105944  0.9999786884648116  1.0000
  Cd  Cd17      1.0  0.005803563004681595  0.0057244801439655345  5.721063988578282e-05  1.0000
  Cd  Cd18      1.0  0.003010396755605163  0.0023790926651145517  0.9998729242355124  1.0000
