data_image0
_chemical_formula_structural       COGa5Cu5Pt10Ga5Cu5Pt10
_chemical_formula_sum              "C1 O1 Ga10 Cu10 Pt20"
_cell_length_a       5.406047837192634
_cell_length_b       9.03488409797449
_cell_length_c       110.49496459960938
_cell_angle_alpha    105.52944207544036
_cell_angle_beta     84.61161533014109
_cell_angle_gamma    70.4730037075139

_space_group_name_H-M_alt    "P 1"
_space_group_IT_number       1

loop_
  _space_group_symop_operation_xyz
  'x, y, z'

loop_
  _atom_site_type_symbol
  _atom_site_label
  _atom_site_symmetry_multiplicity
  _atom_site_fract_x
  _atom_site_fract_y
  _atom_site_fract_z
  _atom_site_occupancy
  C   C1        1.0  0.004798998959559936  0.003184120245839038  0.00018791939392991485  1.0000
  O   O1        1.0  0.004798998959559936  0.003184120245839038  0.0002965218480071524  1.0000
  Ga  Ga1       1.0  0.005499999796943022  0.007500000129203492  0.999920000888723  1.0000
  Ga  Ga2       1.0  0.0034999998029152865  0.001499999972047682  0.9997978385613763  1.0000
  Ga  Ga3       1.0  0.007499999790970759  0.0034999997471473433  4.2163204265552135e-05  1.0000
  Ga  Ga4       1.0  0.0014999999022041763  0.005499999690568168  0.9996756762308789  1.0000
  Ga  Ga5       1.0  0.009499999784998494  0.009500000118276154  0.000164325536296661  1.0000
  Cu  Cu1       1.0  0.008499999414718124  0.006500000019178403  0.00010324437388897535  1.0000
  Cu  Cu2       1.0  0.006499999420690388  0.0005000000759955931  0.9999810820512264  1.0000
  Cu  Cu3       1.0  0.0004999999985069339  0.002499999911333099  0.99961459507333  1.0000
  Cu  Cu4       1.0  0.004499999799929154  0.004499999943639087  0.9998589197227075  1.0000
  Cu  Cu5       1.0  0.0024999998059014187  0.008499999469803237  0.9997367573884279  1.0000
  Pt  Pt1       1.0  0.0004999999985069339  0.007499999432033578  0.9999200007943169  1.0000
  Pt  Pt2       1.0  0.008499999414718124  0.0015000000705319236  0.9997978386435336  1.0000
  Pt  Pt3       1.0  0.0024999998059014187  0.003499999949102757  4.216313040033137e-05  1.0000
  Pt  Pt4       1.0  0.006499999420690388  0.005500000024642073  0.9996756763186225  1.0000
  Pt  Pt5       1.0  0.004499999799929154  0.009499999464339567  0.00016432544369436496  1.0000
  Pt  Pt6       1.0  0.009499999784998494  0.004499999741683674  0.9998589197965727  1.0000
  Pt  Pt7       1.0  0.007499999790970759  0.008500000123739823  0.9997367574810303  1.0000
  Pt  Pt8       1.0  0.0014999999022041763  0.0005000000093879376  0.9999810819693381  1.0000
  Pt  Pt9       1.0  0.005499999796943022  0.002500000180557012  0.9996145951583677  1.0000
  Pt  Pt10      1.0  0.0034999998029152865  0.0065000001346671625  0.00010324483584901738  1.0000
  Ga  Ga6       1.0  0.005499999796943022  0.007500000129203492  0.9993091894257639  1.0000
  Ga  Ga7       1.0  0.0034999998029152865  0.001499999972047682  0.999187027098417  1.0000
  Ga  Ga8       1.0  0.007499999790970759  0.0034999997471473433  0.9994313517413064  1.0000
  Ga  Ga9       1.0  0.0014999999022041763  0.005499999690568168  0.9990648647679198  1.0000
  Ga  Ga10      1.0  0.009499999784998494  0.009500000118276154  0.9995535140733375  1.0000
  Cu  Cu6       1.0  0.008499999414718124  0.006500000019178403  0.9994924329109297  1.0000
  Cu  Cu7       1.0  0.006499999420690388  0.0005000000759955931  0.9993702705882672  1.0000
  Cu  Cu8       1.0  0.0004999999985069339  0.002499999911333099  0.9990037836103708  1.0000
  Cu  Cu9       1.0  0.004499999799929154  0.004499999943639087  0.9992481082597483  1.0000
  Cu  Cu10      1.0  0.0024999998059014187  0.008499999469803237  0.9991259459254688  1.0000
  Pt  Pt11      1.0  0.0004999999985069339  0.007499999432033578  0.9993091893313576  1.0000
  Pt  Pt12      1.0  0.008499999414718124  0.0015000000705319236  0.9991870271805744  1.0000
  Pt  Pt13      1.0  0.0024999998059014187  0.003499999949102757  0.9994313516674411  1.0000
  Pt  Pt14      1.0  0.006499999420690388  0.005500000024642073  0.9990648648556634  1.0000
  Pt  Pt15      1.0  0.004499999799929154  0.009499999464339567  0.9995535139807351  1.0000
  Pt  Pt16      1.0  0.009499999784998494  0.004499999741683674  0.9992481083336135  1.0000
  Pt  Pt17      1.0  0.007499999790970759  0.008500000123739823  0.999125946018071  1.0000
  Pt  Pt18      1.0  0.0014999999022041763  0.0005000000093879376  0.9993702705063789  1.0000
  Pt  Pt19      1.0  0.005499999796943022  0.002500000180557012  0.9990037836954084  1.0000
  Pt  Pt20      1.0  0.0034999998029152865  0.0065000001346671625  0.9994924328334567  1.0000
