data_image0
_chemical_formula_structural       COGa8Ni24
_chemical_formula_sum              "C1 O1 Ga8 Ni24"
_cell_length_a       5.1126227378845215
_cell_length_b       6.261658668518066
_cell_length_c       105.4212875366211
_cell_angle_alpha    90.0
_cell_angle_beta     90.0
_cell_angle_gamma    90.0

_space_group_name_H-M_alt    "P 1"
_space_group_IT_number       1

loop_
  _space_group_symop_operation_xyz
  'x, y, z'

loop_
  _atom_site_type_symbol
  _atom_site_label
  _atom_site_symmetry_multiplicity
  _atom_site_fract_x
  _atom_site_fract_y
  _atom_site_fract_z
  _atom_site_occupancy
  C   C1        1.0  0.006249933984704458  0.005004936189473524  9.450008210436713e-05  1.0000
  O   O1        1.0  0.006249933984704458  0.005004936189473524  0.0002083293152611574  1.0000
  Ga  Ga1       1.0  0.0012498259301983586  0.001643141582074606  0.9994476290970857  1.0000
  Ga  Ga2       1.0  0.006249826145148824  0.001643141582074606  0.9990276323758326  1.0000
  Ga  Ga3       1.0  0.0012498259301983586  0.008309808149585164  0.9991676311886846  1.0000
  Ga  Ga4       1.0  0.006249826145148824  0.00497647501456405  0.9993076302842339  1.0000
  Ga  Ga5       1.0  0.0012498333988162319  0.008217712549451136  0.0  1.0000
  Ga  Ga6       1.0  0.006249826145148824  0.008309808149585164  0.999587628192635  1.0000
  Ga  Ga7       1.0  0.0012499055347352025  0.004981200596459699  0.999725300123305  1.0000
  Ga  Ga8       1.0  0.006249927426893642  0.0016961081980368044  0.999874582435607  1.0000
  Ni  Ni1       1.0  0.003749825809971827  0.00497647501456405  0.9990976319236072  1.0000
  Ni  Ni2       1.0  0.008749826116003  0.001643141582074606  0.9992376307364592  1.0000
  Ni  Ni3       1.0  0.003749825809971827  0.008309808149585164  0.9993776298320085  1.0000
  Ni  Ni4       1.0  0.008749826116003  0.008309808149585164  0.9989576328280579  1.0000
  Ni  Ni5       1.0  0.0012498259301983586  0.001643141582074606  0.9990276323758326  1.0000
  Ni  Ni6       1.0  0.006249826145148824  0.008309808149585164  0.9991676311886846  1.0000
  Ni  Ni7       1.0  0.0012498259301983586  0.00497647501456405  0.9993076302842339  1.0000
  Ni  Ni8       1.0  0.006249826145148824  0.001643141582074606  0.9994476290970857  1.0000
  Ni  Ni9       1.0  0.008749826116003  0.00497647501456405  0.9990976319236072  1.0000
  Ni  Ni10      1.0  0.003749825809971827  0.001643141582074606  0.9992376307364592  1.0000
  Ni  Ni11      1.0  0.008749826116003  0.008309808149585164  0.9993776298320085  1.0000
  Ni  Ni12      1.0  0.003749825809971827  0.008309808149585164  0.9989576328280579  1.0000
  Ni  Ni13      1.0  0.003749825809971827  0.001643141582074606  0.9996576274577123  1.0000
  Ni  Ni14      1.0  0.008750174408621867  0.00836565247417499  0.9997951540819259  1.0000
  Ni  Ni15      1.0  0.003756646297542788  0.005004946898333416  0.999930200319277  1.0000
  Ni  Ni16      1.0  0.008749826116003  0.00497647501456405  0.9995176289275578  1.0000
  Ni  Ni17      1.0  0.0012498259301983586  0.008309808149585164  0.999587628192635  1.0000
  Ni  Ni18      1.0  0.006249868406596302  0.004973733248963383  0.9997259197959745  1.0000
  Ni  Ni19      1.0  0.001249937959466457  0.0016343473770908455  0.9998716231593732  1.0000
  Ni  Ni20      1.0  0.0062498232305662395  0.008278413936938619  0.9999940260388446  1.0000
  Ni  Ni21      1.0  0.008749826116003  0.001643141582074606  0.9996576274577123  1.0000
  Ni  Ni22      1.0  0.003749549288949106  0.008365623322278618  0.9997951518203468  1.0000
  Ni  Ni23      1.0  0.008743222400511773  0.005004926075550293  0.9999302042770405  1.0000
  Ni  Ni24      1.0  0.003749825809971827  0.00497647501456405  0.9995176289275578  1.0000
