data_image0
_chemical_formula_structural       HFe8W4Fe8W4
_chemical_formula_sum              "H1 Fe16 W8"
_cell_length_a       4.663096678756534
_cell_length_b       7.767356872558594
_cell_length_c       37.35832214355469
_cell_angle_alpha    90.0
_cell_angle_beta     59.99999839678272
_cell_angle_gamma    90.0

_space_group_name_H-M_alt    "P 1"
_space_group_IT_number       1

loop_
  _space_group_symop_operation_xyz
  'x, y, z'

loop_
  _atom_site_type_symbol
  _atom_site_label
  _atom_site_symmetry_multiplicity
  _atom_site_fract_x
  _atom_site_fract_y
  _atom_site_fract_z
  _atom_site_occupancy
  H   H1        1.0  0.007157006079781038  0.002825572650234558  0.00015621660032936837  1.0000
  Fe  Fe1       1.0  0.0006984966957463082  0.000323601560059752  0.9987355788575991  1.0000
  Fe  Fe2       1.0  0.0006984966957463082  0.005323601478526309  0.9987355788575991  1.0000
  Fe  Fe3       1.0  0.009301503569465542  0.002825572650234558  0.9997546998992094  1.0000
  Fe  Fe4       1.0  0.002252118383116534  0.007823217331310413  0.9995954262779267  1.0000
  Fe  Fe5       1.0  0.007289184437490369  0.007823601497710648  0.998948355583953  1.0000
  Fe  Fe6       1.0  0.003932693697083087  0.0028254656975413594  0.9997545589475921  1.0000
  Fe  Fe7       1.0  0.008919907533957449  0.0028234009829932825  0.9991797734014647  1.0000
  Fe  Fe8       1.0  0.0024031528421707025  0.007823601497710648  0.9989483553768952  1.0000
  W   W1        1.0  0.007599052890198493  0.009676398636579727  0.9995096151728201  1.0000
  W   W2        1.0  0.00401293665586066  0.00471404115013216  0.999156345218915  1.0000
  W   W3        1.0  0.00401111568823204  0.0009326941502743391  0.999156762806167  1.0000
  W   W4        1.0  0.007598272014262512  0.005970631699785282  0.9995097245360449  1.0000
  Fe  Fe9       1.0  0.0006984966957463082  0.000323601560059752  0.9974873706670936  1.0000
  Fe  Fe10      1.0  0.0006984966957463082  0.005323601478526309  0.9974873706670936  1.0000
  Fe  Fe11      1.0  0.008993840295641013  0.002823601459341969  0.998522802481774  1.0000
  Fe  Fe12      1.0  0.0024031528421707025  0.007823601497710648  0.9983100257374289  1.0000
  Fe  Fe13      1.0  0.007289184437490369  0.007823601497710648  0.9977001473934475  1.0000
  Fe  Fe14      1.0  0.004107809161559347  0.002823601459341969  0.9985228022459303  1.0000
  Fe  Fe15      1.0  0.008993840295641013  0.002823601459341969  0.9979129239307349  1.0000
  Fe  Fe16      1.0  0.0024031528421707025  0.007823601497710648  0.9977001471863898  1.0000
  W   W5        1.0  0.007365163712185125  0.009636135503871001  0.99831950939107  1.0000
  W   W6        1.0  0.004031829886864591  0.004636134985893832  0.9979034402483078  1.0000
  W   W7        1.0  0.004031829886864591  0.001011067812887984  0.9979034402483078  1.0000
  W   W8        1.0  0.007365163712185125  0.0060110679711587855  0.99831950939107  1.0000
