data_image0
_chemical_formula_structural       HV4Ir4V4Ir4V4Ir4V4Ir4
_chemical_formula_sum              "H1 V16 Ir16"
_cell_length_a       6.777936935424805
_cell_length_b       5.649794578552246
_cell_length_c       104.92011260986328
_cell_angle_alpha    90.0
_cell_angle_beta     90.0
_cell_angle_gamma    90.0

_space_group_name_H-M_alt    "P 1"
_space_group_IT_number       1

loop_
  _space_group_symop_operation_xyz
  'x, y, z'

loop_
  _atom_site_type_symbol
  _atom_site_label
  _atom_site_symmetry_multiplicity
  _atom_site_fract_x
  _atom_site_fract_y
  _atom_site_fract_z
  _atom_site_occupancy
  H   H1        1.0  0.006984653978363013  0.003750000698929432  8.2580067471931e-05  1.0000
  V   V1        1.0  0.001082061182859641  0.001249999765924577  0.9991747938372308  1.0000
  V   V2        1.0  0.001082061182859641  0.001249999765924577  0.9989482024103756  1.0000
  V   V3        1.0  0.006082061273546956  0.001249999765924577  0.9994521485744821  1.0000
  V   V4        1.0  0.006082061273546956  0.001249999765924577  0.9992255571476268  1.0000
  Ir  Ir1       1.0  0.003917939045232696  0.0037499997098783488  0.9990614982658271  1.0000
  Ir  Ir2       1.0  0.00824618377667126  0.0037499997098783488  0.9990614982658271  1.0000
  Ir  Ir3       1.0  0.008917939342027543  0.0037499997098783488  0.9993388527190306  1.0000
  Ir  Ir4       1.0  0.003246183479876412  0.0037499997098783488  0.9993388527190306  1.0000
  V   V5        1.0  0.0010820785645949407  0.001249999765924577  0.999735227158034  1.0000
  V   V6        1.0  0.001082061182859641  0.001249999765924577  0.999502911884878  1.0000
  V   V7        1.0  0.006082096449232621  0.0012500008373965837  0.0  1.0000
  V   V8        1.0  0.006082103594293772  0.001249999765924577  0.9997846060196746  1.0000
  Ir  Ir5       1.0  0.003917939045232696  0.0037499997098783488  0.9996162077403294  1.0000
  Ir  Ir6       1.0  0.00824618377667126  0.0037499997098783488  0.9996162077403294  1.0000
  Ir  Ir7       1.0  0.00878976848700371  0.003750000039562043  0.9998954573601508  1.0000
  Ir  Ir8       1.0  0.0033744513428458707  0.003750000039562043  0.9998954550877689  1.0000
  V   V9        1.0  0.001082061182859641  0.006249999736253044  0.9991747938372308  1.0000
  V   V10       1.0  0.001082061182859641  0.006249999736253044  0.9989482024103756  1.0000
  V   V11       1.0  0.006082061273546956  0.006249999736253044  0.9994521485744821  1.0000
  V   V12       1.0  0.006082061273546956  0.006249999736253044  0.9992255571476268  1.0000
  Ir  Ir9       1.0  0.003917939045232696  0.00874999976262774  0.9990614982658271  1.0000
  Ir  Ir10      1.0  0.00824618377667126  0.00874999976262774  0.9990614982658271  1.0000
  Ir  Ir11      1.0  0.008917939342027543  0.00874999976262774  0.9993388527190306  1.0000
  Ir  Ir12      1.0  0.003246183479876412  0.00874999976262774  0.9993388527190306  1.0000
  V   V13       1.0  0.0010820785645949407  0.006249999736253044  0.999735227158034  1.0000
  V   V14       1.0  0.001082061182859641  0.006249999736253044  0.999502911884878  1.0000
  V   V15       1.0  0.006082096449232621  0.006250000395620433  0.0  1.0000
  V   V16       1.0  0.006082103594293772  0.006249999736253044  0.9997846060196746  1.0000
  Ir  Ir13      1.0  0.003917939045232696  0.00874999976262774  0.9996162077403294  1.0000
  Ir  Ir14      1.0  0.00824618377667126  0.00874999976262774  0.9996162077403294  1.0000
  Ir  Ir15      1.0  0.00878976848700371  0.00874999976262774  0.9998954573601508  1.0000
  Ir  Ir16      1.0  0.0033744513428458707  0.00874999976262774  0.9998954550877689  1.0000
