data_image0
_chemical_formula_structural       CORh12W4Rh12W4
_chemical_formula_sum              "C1 O1 Rh24 W8"
_cell_length_a       5.5179009437561035
_cell_length_b       11.87605809748665
_cell_length_c       105.10153198242188
_cell_angle_alpha    68.31787129659578
_cell_angle_beta     90.0
_cell_angle_gamma    62.314112979766136

_space_group_name_H-M_alt    "P 1"
_space_group_IT_number       1

loop_
  _space_group_symop_operation_xyz
  'x, y, z'

loop_
  _atom_site_type_symbol
  _atom_site_label
  _atom_site_symmetry_multiplicity
  _atom_site_fract_x
  _atom_site_fract_y
  _atom_site_fract_z
  _atom_site_occupancy
  C   C1        1.0  0.00748377284176309  0.007556385239333001  0.9998314840073408  1.0000
  O   O1        1.0  0.00748377284176309  0.007556385239333001  0.9999456589816509  1.0000
  Rh  Rh1       1.0  0.006696914881761748  0.000835986867885262  0.9993380058047214  1.0000
  Rh  Rh2       1.0  0.006696913986414871  0.005835986899068097  0.9991292699319304  1.0000
  Rh  Rh3       1.0  0.008368887722185393  0.004164013163297574  0.9989903343982021  1.0000
  Rh  Rh4       1.0  0.008368888177094832  0.00916401319448041  0.99919907051792  1.0000
  Rh  Rh5       1.0  0.008368888017901763  0.001671973735770524  0.9990943700025401  1.0000
  Rh  Rh6       1.0  0.008368887797683043  0.00667197376695336  0.999303106122258  1.0000
  Rh  Rh7       1.0  0.0017128359848599382  0.0033280262954123114  0.9992339702003834  1.0000
  Rh  Rh8       1.0  0.001712835427077139  0.008328026326595147  0.9990252343275924  1.0000
  Rh  Rh9       1.0  0.0017128361117942663  0.000835986867885262  0.9993380058047214  1.0000
  Rh  Rh10      1.0  0.0017128357227935078  0.005835986899068097  0.9991292699319304  1.0000
  Rh  Rh11      1.0  0.003384809458564031  0.004164013163297574  0.9989903343982021  1.0000
  Rh  Rh12      1.0  0.0033848099134734678  0.00916401319448041  0.99919907051792  1.0000
  W   W1        1.0  0.006707528529478876  0.00333333322419341  0.9992337486511026  1.0000
  W   W2        1.0  0.006707527919474716  0.008333333645161686  0.9990250127620391  1.0000
  W   W3        1.0  0.0033741956681755444  0.001666666612096705  0.9990945915599572  1.0000
  W   W4        1.0  0.0033741953052854666  0.00666666644838682  0.9993033276878113  1.0000
  Rh  Rh13      1.0  0.006525490508457703  0.0009948626341223638  0.9997460538433889  1.0000
  Rh  Rh14      1.0  0.006749131992056569  0.00576108728784072  0.9995560696058782  1.0000
  Rh  Rh15      1.0  0.008368887722185393  0.004164013163297574  0.9994078063907109  1.0000
  Rh  Rh16      1.0  0.008438293707561523  0.009097734857640129  0.9996201952771826  1.0000
  Rh  Rh17      1.0  0.008425775345356603  0.0016125857336196068  0.9995137388493239  1.0000
  Rh  Rh18      1.0  0.008298087275814062  0.00674052611205724  0.9997101203111  1.0000
  Rh  Rh19      1.0  0.0017316976963645335  0.0033107167035422405  0.9996527914814054  1.0000
  Rh  Rh20      1.0  0.001712835427077139  0.008328026326595147  0.9994427063201013  1.0000
  Rh  Rh21      1.0  0.0015617054450964528  0.0009965688224445866  0.9997459570946772  1.0000
  Rh  Rh22      1.0  0.0018098000125657046  0.005760547045219303  0.9995561641830732  1.0000
  Rh  Rh23      1.0  0.003384809458564031  0.004164013163297574  0.9994078063907109  1.0000
  Rh  Rh24      1.0  0.0034465408384087345  0.009099290101550271  0.999620130350144  1.0000
  W   W5        1.0  0.006764379474290325  0.0032760819283844528  0.9996385328395964  1.0000
  W   W6        1.0  0.006707527919474716  0.008333333645161686  0.999442484754548  1.0000
  W   W7        1.0  0.0033924111918352084  0.0016485665353520053  0.9995175341728013  1.0000
  W   W8        1.0  0.003205290221731549  0.006835547227327061  0.9996948258950309  1.0000
