data_image0
_chemical_formula_structural       COV3Si6V3Si6
_chemical_formula_sum              "C1 O1 V6 Si12"
_cell_length_a       4.582764148712158
_cell_length_b       4.582764252983845
_cell_length_c       108.38182067871094
_cell_angle_alpha    90.0
_cell_angle_beta     90.0
_cell_angle_gamma    119.99999924733646

_space_group_name_H-M_alt    "P 1"
_space_group_IT_number       1

loop_
  _space_group_symop_operation_xyz
  'x, y, z'

loop_
  _atom_site_type_symbol
  _atom_site_label
  _atom_site_symmetry_multiplicity
  _atom_site_fract_x
  _atom_site_fract_y
  _atom_site_fract_z
  _atom_site_occupancy
  C   C1        1.0  0.00999999935335324  0.005805078183829656  0.00014758033713219832  1.0000
  O   O1        1.0  0.00999999935335324  0.005805078183829656  0.000258300236867673  1.0000
  V   V1        1.0  3.6182150389161755e-11  0.005805078183829656  0.9994052097530858  1.0000
  V   V2        1.0  0.005000000101213475  0.005805078183829656  0.9992084679590347  1.0000
  V   V3        1.0  0.005000000208820841  0.0008050783340130634  0.9990117261649836  1.0000
  Si  Si1       1.0  0.0083715228922523  0.0075481237008759835  0.9990117261649836  1.0000
  Si  Si2       1.0  0.001628477347541406  0.009176601336584263  0.9992084679590347  1.0000
  Si  Si3       1.0  0.0067430459426088265  0.009176601336584263  0.9994052097530858  1.0000
  Si  Si4       1.0  0.0016284773609803716  0.004062032666783329  0.9990117261649836  1.0000
  Si  Si5       1.0  0.008371523292770008  0.002433555500398196  0.9992084679590347  1.0000
  Si  Si6       1.0  0.0032569544944796966  0.002433555500398196  0.9994052097530858  1.0000
  V   V4        1.0  0.00999999935335324  0.005805078183829656  0.9999877701990776  1.0000
  V   V5        1.0  0.004999999460106121  0.005805077714506509  0.9997961866664598  1.0000
  V   V6        1.0  0.005000000208820841  0.0008050783340130634  0.9996019518221121  1.0000
  Si  Si7       1.0  0.0083715228922523  0.0075481237008759835  0.9996019518221121  1.0000
  Si  Si8       1.0  0.0016271911272819376  0.009194921834943269  0.9997997833432307  1.0000
  Si  Si9       1.0  0.00656595554369493  0.00901948414943297  0.0  1.0000
  Si  Si10      1.0  0.0016284773609803716  0.004062032666783329  0.9996019518221121  1.0000
  Si  Si11      1.0  0.008372810334344982  0.0024152366446702042  0.9997997833432307  1.0000
  Si  Si12      1.0  0.0034340462615004034  0.002590673391534209  0.0  1.0000
