data_image0
_chemical_formula_structural       COGa8Pd14Zn6
_chemical_formula_sum              "C1 O1 Ga8 Pd14 Zn6"
_cell_length_a       7.0042974687739985
_cell_length_b       5.393767833709717
_cell_length_c       105.17594146728516
_cell_angle_alpha    90.0
_cell_angle_beta     90.0
_cell_angle_gamma    104.8736597751424

_space_group_name_H-M_alt    "P 1"
_space_group_IT_number       1

loop_
  _space_group_symop_operation_xyz
  'x, y, z'

loop_
  _atom_site_type_symbol
  _atom_site_label
  _atom_site_symmetry_multiplicity
  _atom_site_fract_x
  _atom_site_fract_y
  _atom_site_fract_z
  _atom_site_occupancy
  C   C1        1.0  0.002932880248141373  0.0002662256510971631  9.782951562356167e-05  1.0000
  O   O1        1.0  0.002932880248141373  0.0002662256510971631  0.00021192371384647814  1.0000
  Ga  Ga1       1.0  0.007534347974527127  0.0025565877961806977  0.9996695129838546  1.0000
  Ga  Ga2       1.0  0.002534347688373249  0.007556588016128119  0.9991120987925571  1.0000
  Ga  Ga3       1.0  0.008933911185725172  0.00968977584857876  0.9990643749835426  1.0000
  Ga  Ga4       1.0  0.003933910899571294  0.004689775587434372  0.999621789458197  1.0000
  Ga  Ga5       1.0  0.0013318045866874382  0.003959171742653413  0.0  1.0000
  Ga  Ga6       1.0  0.006376250210697302  0.008837222190236136  0.9994449577888076  1.0000
  Ga  Ga7       1.0  0.0010064416424251774  0.007246576890496454  0.9997609363680461  1.0000
  Ga  Ga8       1.0  0.005948169511499934  0.0022854508063296602  0.9992071437605169  1.0000
  Pd  Pd1       1.0  0.00810528714546767  0.0046096014695502265  0.9998966812956775  1.0000
  Pd  Pd2       1.0  0.0030849176558316537  0.009521509397996208  0.9993437410255221  1.0000
  Pd  Pd3       1.0  0.001286126310822491  0.00896931266822768  0.9999848619441953  1.0000
  Pd  Pd4       1.0  0.006360348859790375  0.003871098811009226  0.9994454417622899  1.0000
  Pd  Pd5       1.0  0.008948375713984743  0.0047337744290740155  0.9990650193369961  1.0000
  Pd  Pd6       1.0  0.003948375702978825  0.0097337747569249  0.9996224338116506  1.0000
  Pd  Pd7       1.0  0.007535784246878562  0.007596244105798384  0.999668384656919  1.0000
  Pd  Pd8       1.0  0.0025357839607246845  0.0025962438446539963  0.9991109701822646  1.0000
  Pd  Pd9       1.0  0.0055418849331054995  0.0003404983384743744  0.998979243537977  1.0000
  Pd  Pd10      1.0  0.0005418849220995812  0.005340498320992421  0.9995366577292746  1.0000
  Pd  Pd11      1.0  0.005948169511499934  0.007094047329870343  0.9992071437605169  1.0000
  Pd  Pd12      1.0  0.0009480424509234652  0.002069381370627564  0.9997615246168453  1.0000
  Pd  Pd13      1.0  0.00425613612528419  0.00644908949342563  0.9998599151790115  1.0000
  Pd  Pd14      1.0  0.009217706495858569  0.001565772192725398  0.9992984470014082  1.0000
  Zn  Zn1       1.0  0.005555971958363888  0.005329180833206192  0.9989608525456525  1.0000
  Zn  Zn2       1.0  0.0005559716034230201  0.00032918080813243525  0.99951826673695  1.0000
  Zn  Zn3       1.0  0.004579633910312295  0.0015631383056976657  0.9998814344308464  1.0000
  Zn  Zn4       1.0  0.009458115375060215  0.006629895305438302  0.9993084279627301  1.0000
  Zn  Zn5       1.0  0.007709918236944145  0.00945979036990665  0.9999236132298647  1.0000
  Zn  Zn6       1.0  0.002830421751371619  0.004420664097542102  0.9993521510565248  1.0000
