data_image0
_chemical_formula_structural       COCa12Sn6
_chemical_formula_sum              "C1 O1 Ca12 Sn6"
_cell_length_a       9.39991698067714
_cell_length_b       7.67499975861955
_cell_length_c       101.17599487304688
_cell_angle_alpha    97.07055525864227
_cell_angle_beta     95.76818106243884
_cell_angle_gamma    65.90515827210776

_space_group_name_H-M_alt    "P 1"
_space_group_IT_number       1

loop_
  _space_group_symop_operation_xyz
  'x, y, z'

loop_
  _atom_site_type_symbol
  _atom_site_label
  _atom_site_symmetry_multiplicity
  _atom_site_fract_x
  _atom_site_fract_y
  _atom_site_fract_z
  _atom_site_occupancy
  C   C1        1.0  5.586499937802688e-05  0.00859591164133577  0.0002752501145737797  1.0000
  O   O1        1.0  5.586499937802688e-05  0.00859591164133577  0.00039385497464071103  1.0000
  Ca  Ca1       1.0  0.007844099987822638  0.00638888904979821  0.9997744785895761  1.0000
  Ca  Ca2       1.0  0.009944134755635759  0.0010301167968545044  0.00010247167582600708  1.0000
  Ca  Ca3       1.0  0.005621877672841724  0.001944444533635752  0.9994321050711421  1.0000
  Ca  Ca4       1.0  0.007844099987822638  0.0013888890302342382  0.9997744786129582  1.0000
  Ca  Ca5       1.0  0.009943317319658179  0.00571315347141015  0.00010248856541103899  1.0000
  Ca  Ca6       1.0  0.005621877672841724  0.006944445042299022  0.9994321050523269  1.0000
  Ca  Ca7       1.0  0.004050208302166413  0.003583066686672085  0.9999489938800605  1.0000
  Ca  Ca8       1.0  0.009510766724058324  0.004722222661905731  0.9992609181230724  1.0000
  Ca  Ca9       1.0  0.0017329890564314943  0.00916666720863379  0.9996032916890837  1.0000
  Ca  Ca10      1.0  0.00404992654763797  0.008554913467199842  0.9999489654661315  1.0000
  Ca  Ca11      1.0  0.009510766724058324  0.009722222192370403  0.9992609180951233  1.0000
  Ca  Ca12      1.0  0.0017329890564314943  0.004166666699970521  0.9996032917078987  1.0000
  Sn  Sn1       1.0  0.008677433355940482  0.003055555601520335  0.9995176985130114  1.0000
  Sn  Sn2       1.0  0.0009500512685409785  0.00750209047767881  0.9998769800116861  1.0000
  Sn  Sn3       1.0  0.006455211040959567  0.00861111161358512  0.999175324657821  1.0000
  Sn  Sn4       1.0  0.004788544304723881  0.00027777796234965493  0.9996888851710889  1.0000
  Sn  Sn5       1.0  0.007013649385944876  0.00471615682716261  2.798970167859795e-05  1.0000
  Sn  Sn6       1.0  0.0025663224245493373  0.0058333332712566174  0.999346511607952  1.0000
