data_image0
_chemical_formula_structural       COSn2Au2Sn2Au2Sn2Au2Sn2Au2Sn2Au2Sn2Au2Sn2Au2Sn2Au2
_chemical_formula_sum              "C1 O1 Sn16 Au16"
_cell_length_a       8.904863357543945
_cell_length_b       8.904863669771737
_cell_length_c       104.2447738647461
_cell_angle_alpha    90.0
_cell_angle_beta     90.0
_cell_angle_gamma    119.9999988401381

_space_group_name_H-M_alt    "P 1"
_space_group_IT_number       1

loop_
  _space_group_symop_operation_xyz
  'x, y, z'

loop_
  _atom_site_type_symbol
  _atom_site_label
  _atom_site_symmetry_multiplicity
  _atom_site_fract_x
  _atom_site_fract_y
  _atom_site_fract_z
  _atom_site_occupancy
  C   C1        1.0  0.004999993871148939  0.0049999970629875405  0.00016615234589844777  1.0000
  O   O1        1.0  0.004999993871148939  0.0049999970629875405  0.0002812656918165829  1.0000
  Sn  Sn1       1.0  0.00333333373203253  0.0016666696729179071  0.999315770127919  1.0000
  Sn  Sn2       1.0  0.0016666670317120544  0.003333336205937625  0.9990420172849579  1.0000
  Au  Au1       1.0  3.4999999348257057e-10  2.9500000013690823e-09  0.9991788938493824  1.0000
  Au  Au2       1.0  3.4999999348257057e-10  2.9500000013690823e-09  0.9994526466923435  1.0000
  Sn  Sn3       1.0  0.0033333180721808976  0.0016666693106219621  0.9998865345120979  1.0000
  Sn  Sn4       1.0  0.0016666670317120544  0.003333336205937625  0.999589523256768  1.0000
  Au  Au3       1.0  0.010000000393981119  7.95000025355159e-09  0.9997243211300691  1.0000
  Au  Au4       1.0  0.00999999379325842  0.009999997024342639  0.0  1.0000
  Sn  Sn5       1.0  0.003333333589240309  0.006666669513507691  0.999315770127919  1.0000
  Sn  Sn6       1.0  0.001666666887184404  0.008333336167292725  0.9990420172849579  1.0000
  Au  Au5       1.0  2.333993705145915e-10  0.0050000028597226584  0.9991788938493824  1.0000
  Au  Au6       1.0  2.333993705145915e-10  0.0050000028597226584  0.9994526466923435  1.0000
  Sn  Sn7       1.0  0.0033333180892400876  0.006666669513507691  0.9998865345120979  1.0000
  Sn  Sn8       1.0  0.001666666887184404  0.008333336167292725  0.999589523256768  1.0000
  Au  Au7       1.0  0.009999999936732304  0.005000008173396516  0.9997243211300691  1.0000
  Au  Au8       1.0  0.009999994381527816  0.0049999970629875405  0.0  1.0000
  Sn  Sn9       1.0  0.008333334033239737  0.0016666696729179071  0.999315770127919  1.0000
  Sn  Sn10      1.0  0.006666667149145993  0.003333336205937625  0.9990420172849579  1.0000
  Au  Au9       1.0  0.0050000005211771805  2.9500000013690823e-09  0.9991788938493824  1.0000
  Au  Au10      1.0  0.0050000005211771805  2.9500000013690823e-09  0.9994526466923435  1.0000
  Sn  Sn11      1.0  0.008333317955044762  0.0016666693106219621  0.9998865345120979  1.0000
  Sn  Sn12      1.0  0.006666667149145993  0.003333336205937625  0.999589523256768  1.0000
  Au  Au11      1.0  0.005000000092773912  7.95000025355159e-09  0.9997243211300691  1.0000
  Au  Au12      1.0  0.004999993648400942  0.009999997024342639  0.0  1.0000
  Sn  Sn13      1.0  0.008333333802931026  0.006666669513507691  0.999315770127919  1.0000
  Sn  Sn14      1.0  0.00666666718839161  0.008333336167292725  0.9990420172849579  1.0000
  Au  Au13      1.0  0.005000000534606577  0.0050000028597226584  0.9991788938493824  1.0000
  Au  Au14      1.0  0.005000000534606577  0.0050000028597226584  0.9994526466923435  1.0000
  Sn  Sn15      1.0  0.008333318324227366  0.006666669513507691  0.9998865345120979  1.0000
  Sn  Sn16      1.0  0.00666666718839161  0.008333336167292725  0.999589523256768  1.0000
  Au  Au15      1.0  0.004999999844696769  0.005000008173396516  0.9997243211300691  1.0000
  Au  Au16      1.0  0.004999993871148939  0.0049999970629875405  0.0  1.0000
