data_image0
_chemical_formula_structural       Al12W6H
_chemical_formula_sum              "Al12 W6 H1"
_cell_length_a       4.887740443844869
_cell_length_b       8.38046080125166
_cell_length_c       36.47815704345703
_cell_angle_alpha    119.32502127960831
_cell_angle_beta     106.95468403450373
_cell_angle_gamma    73.04531680548438

_space_group_name_H-M_alt    "P 1"
_space_group_IT_number       1

loop_
  _space_group_symop_operation_xyz
  'x, y, z'

loop_
  _atom_site_type_symbol
  _atom_site_label
  _atom_site_symmetry_multiplicity
  _atom_site_fract_x
  _atom_site_fract_y
  _atom_site_fract_z
  _atom_site_occupancy
  Al  Al1       1.0  0.008092195358052537  0.009809249497084649  0.9991816137517463  1.0000
  Al  Al2       1.0  0.0031744525068590633  0.004460536234114142  0.0003293488340405936  1.0000
  Al  Al3       1.0  0.004147743002557304  0.0036308259128585156  0.0009907066492336734  1.0000
  Al  Al4       1.0  0.002287032776400944  0.007299859629742874  0.9993709059581427  1.0000
  Al  Al5       1.0  0.0019074896125625314  0.007777709010823706  0.0003226821914527103  1.0000
  Al  Al6       1.0  0.006425528685992613  0.0031613641541570685  0.9991859285081852  1.0000
  Al  Al7       1.0  0.007995556787298104  0.007029940583693537  0.0007612068832584311  1.0000
  Al  Al8       1.0  0.0031485365639753373  0.0014946974184010307  0.9995688268423927  1.0000
  Al  Al9       1.0  0.0019684030804749614  0.0006104132085709178  0.00014559530625539227  1.0000
  Al  Al10      1.0  0.0072870326764319406  0.005670754539669126  0.9989966365973129  1.0000
  Al  Al11      1.0  0.0014818701024773197  0.0014759168546450276  0.9987987150719682  1.0000
  Al  Al12      1.0  0.0064818698146688674  0.006475916543742857  0.999947411062511  1.0000
  W   W1        1.0  0.007314947547770754  0.00019074975156843925  0.0005328737796417395  1.0000
  W   W2        1.0  0.0014536992099621637  0.004818640608035105  0.999566669755733  1.0000
  W   W3        1.0  0.008546300925322553  0.0035192791368394032  0.0006836173380240069  1.0000
  W   W4        1.0  0.007287032682112555  0.008985306929254915  0.9997581190726432  1.0000
  W   W5        1.0  0.0031203658763414733  0.008151973561376896  0.9988008725239638  1.0000
  W   W6        1.0  0.008120365502803675  0.003151973872279067  0.9999495681072661  1.0000
  H   H1        1.0  0.00495152300072964  0.007403824797258622  0.0009531493261190896  1.0000
