data_image0
_chemical_formula_structural       COAl8V24
_chemical_formula_sum              "C1 O1 Al8 V24"
_cell_length_a       6.817296981811523
_cell_length_b       8.34944940106787
_cell_length_c       101.61050415039062
_cell_angle_alpha    95.05115263709162
_cell_angle_beta     90.0
_cell_angle_gamma    90.0

_space_group_name_H-M_alt    "P 1"
_space_group_IT_number       1

loop_
  _space_group_symop_operation_xyz
  'x, y, z'

loop_
  _atom_site_type_symbol
  _atom_site_label
  _atom_site_symmetry_multiplicity
  _atom_site_fract_x
  _atom_site_fract_y
  _atom_site_fract_z
  _atom_site_occupancy
  C   C1        1.0  0.000798408607935541  0.007825497494161242  0.00012580442374707942  1.0000
  O   O1        1.0  0.000798408607935541  0.007825497494161242  0.00024390268946313372  1.0000
  Al  Al1       1.0  0.00990841319500692  0.004025323225078179  2.9122264651846912e-05  1.0000
  Al  Al2       1.0  0.005091586608272222  0.0033823662852486957  0.99944454717283  1.0000
  Al  Al3       1.0  9.158680191931622e-05  0.00025736635803430433  0.9996389814279694  1.0000
  Al  Al4       1.0  0.005014793889350061  0.007136421576884479  0.9998292834045398  1.0000
  Al  Al5       1.0  9.158680191931622e-05  0.005257366347956297  0.9996389814337624  1.0000
  Al  Al6       1.0  0.005168391895471384  0.00213642603808242  0.9998292816711518  1.0000
  Al  Al7       1.0  0.0002746588947217643  0.00902536624249286  2.912844773112021e-05  1.0000
  Al  Al8       1.0  0.005091586608272222  0.008382366079209433  0.9994445471772054  1.0000
  V   V1        1.0  0.0025915869142824448  0.005882366294206924  0.9994445471758279  1.0000
  V   V2        1.0  0.0075915868487088254  0.002757366338998068  0.9996389814307646  1.0000
  V   V3        1.0  0.002645286790332567  0.009742633705793076  0.9998354118777676  1.0000
  V   V4        1.0  0.007758536736579685  0.006688491772676674  3.2279722212327204e-06  1.0000
  V   V5        1.0  0.0025915869142824448  0.007757366580870246  0.9996389814383805  1.0000
  V   V6        1.0  0.007537888611999182  0.004742669520791805  0.9998354127176139  1.0000
  V   V7        1.0  0.002424577190484124  0.001688501720789753  3.225105331280338e-06  1.0000
  V   V8        1.0  0.0075915868487088254  0.0008823663322793966  0.9994445471702373  1.0000
  V   V9        1.0  0.008841586695703714  0.004163616330039839  0.9993959386095009  1.0000
  V   V10       1.0  0.0038415867612773334  0.0010386163748309833  0.9995903728644376  1.0000
  V   V11       1.0  0.008842822758424409  0.007815464277908853  0.9997908487807807  1.0000
  V   V12       1.0  0.0036515112437248668  0.004711482343058712  0.9999579059936848  1.0000
  V   V13       1.0  0.001341586794064143  0.0026011164644132714  0.9994931557377794  1.0000
  V   V14       1.0  0.006341587001713936  0.009476116545037331  0.9996875900047074  1.0000
  V   V15       1.0  0.001322158286996391  0.006258915587627703  0.9998802315231811  1.0000
  V   V16       1.0  0.006341587001713936  0.005726116419622128  0.9992987214828427  1.0000
  V   V17       1.0  0.006341587001713936  0.006038616616703161  0.9995903728720535  1.0000
  V   V18       1.0  0.0013403523706839269  0.002815485759741508  0.9997908401313421  1.0000
  V   V19       1.0  0.006531597492094094  0.00971156656832586  0.9999579113016946  1.0000
  V   V20       1.0  0.001341586794064143  0.009163616795867737  0.9993959386187371  1.0000
  V   V21       1.0  0.008841586695703714  0.0076011162583740095  0.9994931557421548  1.0000
  V   V22       1.0  0.0038415867612773334  0.0044761165271208735  0.9996875899987118  1.0000
  V   V23       1.0  0.008860938017157276  0.0012588740259252002  0.999880231216626  1.0000
  V   V24       1.0  0.0038415867612773334  0.0007261163457167397  0.999298721476442  1.0000
