data_image0
_chemical_formula_structural       HFe20Si12
_chemical_formula_sum              "H1 Fe20 Si12"
_cell_length_a       6.65066460904656
_cell_length_b       8.116918079245423
_cell_length_c       102.4676742553711
_cell_angle_alpha    110.04122632335881
_cell_angle_beta     114.18468182407796
_cell_angle_gamma    65.81531775723298

_space_group_name_H-M_alt    "P 1"
_space_group_IT_number       1

loop_
  _space_group_symop_operation_xyz
  'x, y, z'

loop_
  _atom_site_type_symbol
  _atom_site_label
  _atom_site_symmetry_multiplicity
  _atom_site_fract_x
  _atom_site_fract_y
  _atom_site_fract_z
  _atom_site_occupancy
  H   H1        1.0  0.007858598314888327  0.00919611936390121  0.00032902703930654567  1.0000
  Fe  Fe1       1.0  0.00761876107784949  0.004099102874786411  0.9998078336956201  1.0000
  Fe  Fe2       1.0  0.007573524701693717  0.008920114182783748  0.00018261402014738677  1.0000
  Fe  Fe3       1.0  0.002390259623696301  0.0015991028439103557  0.9996097975842261  1.0000
  Fe  Fe4       1.0  0.0023902598080789293  0.006599102905662468  5.869538924130413e-06  1.0000
  Fe  Fe5       1.0  0.0076187606718602745  0.007791977200198107  0.9999113766477196  1.0000
  Fe  Fe6       1.0  0.007409943240448992  0.0025739021281391563  0.000266904461275413  1.0000
  Fe  Fe7       1.0  0.009995489478273143  0.0003780797818616526  9.949967459685271e-05  1.0000
  Fe  Fe8       1.0  4.510475575725746e-06  0.0052919774266225175  0.9997133408379901  1.0000
  Fe  Fe9       1.0  0.002390259803271241  0.002906228065649839  0.9999023265619319  1.0000
  Fe  Fe10      1.0  0.001547714877118449  0.00799472688012456  0.00022916334566317327  1.0000
  Fe  Fe11      1.0  4.51045058877642e-06  0.0004062281955865749  0.9997042904335757  1.0000
  Fe  Fe12      1.0  2.8598748949184547e-05  0.005321665269037978  9.435072540441427e-05  1.0000
  Fe  Fe13      1.0  0.006671177028177792  0.0011824361292142687  0.9998408396735443  1.0000
  Fe  Fe14      1.0  0.0066741977031289194  0.006388571430429872  0.00024008738666351904  1.0000
  Fe  Fe15      1.0  0.0033378439190672677  0.007015769620358554  0.9997748277331557  1.0000
  Fe  Fe16      1.0  0.003343159425227015  0.0021798976666231712  0.0001788661241589378  1.0000
  Fe  Fe17      1.0  0.003337843756133169  0.009515769908535077  0.9999728635652827  1.0000
  Fe  Fe18      1.0  0.0033378437749854556  0.004515769332182032  0.9995767916020191  1.0000
  Fe  Fe19      1.0  0.006671176742610413  0.008682436479142902  0.9996428036955739  1.0000
  Fe  Fe20      1.0  0.0066460507850050485  0.0037503122804300737  4.1264852561919896e-05  1.0000
  Si  Si1       1.0  4.510446324058318e-06  0.0021219201525267285  0.999964455241953  1.0000
  Si  Si2       1.0  4.5105020622129885e-06  0.007121919956978373  0.9995683828479216  1.0000
  Si  Si3       1.0  0.003958876075760781  0.009621919730553962  0.9997664188878821  1.0000
  Si  Si4       1.0  0.0040308108032011515  0.004901514706026683  0.00020027040668574148  1.0000
  Si  Si5       1.0  0.006050145013822056  0.0015991028439103557  0.9996097976652502  1.0000
  Si  Si6       1.0  0.006050144891188774  0.006599102905662468  5.8696117846387374e-06  1.0000
  Si  Si7       1.0  0.003958875380707825  0.004099102874786411  0.9998078336064323  1.0000
  Si  Si8       1.0  0.0040713222774301705  0.009313460727007119  0.00022529427985787403  1.0000
  Si  Si9       1.0  0.005973232099722094  0.001064618374294799  4.051616563076925e-05  1.0000
  Si  Si10      1.0  0.0060501449923867304  0.006076285339745628  0.9996512122328705  1.0000
  Si  Si11      1.0  4.510541524025648e-06  0.008576285113321218  0.999849248260544  1.0000
  Si  Si12      1.0  2.881881404894291e-05  0.0036192640068775056  0.00024924673586476664  1.0000
