data_image0
_chemical_formula_structural       COCa12Al8Ge8Ca12Al8Ge8
_chemical_formula_sum              "C1 O1 Ca24 Al16 Ge16"
_cell_length_a       6.219498798204334
_cell_length_b       19.322548689637866
_cell_length_c       107.3169937133789
_cell_angle_alpha    98.3248308784636
_cell_angle_beta     84.23937523004716
_cell_angle_gamma    81.67516875307776

_space_group_name_H-M_alt    "P 1"
_space_group_IT_number       1

loop_
  _space_group_symop_operation_xyz
  'x, y, z'

loop_
  _atom_site_type_symbol
  _atom_site_label
  _atom_site_symmetry_multiplicity
  _atom_site_fract_x
  _atom_site_fract_y
  _atom_site_fract_z
  _atom_site_occupancy
  C   C1        1.0  0.0006542868108416315  0.00552873262268915  0.00014032092533769876  1.0000
  O   O1        1.0  0.0006542868108416315  0.00552873262268915  0.0002521388611447683  1.0000
  Ca  Ca1       1.0  9.761049952984156e-05  2.8096899516751714e-05  0.9994604759003318  1.0000
  Ca  Ca2       1.0  0.005097610147730406  2.8096899516751714e-05  0.9991707036173613  1.0000
  Ca  Ca3       1.0  0.006669245625327372  0.0018848261851267113  0.9990796203470522  1.0000
  Ca  Ca4       1.0  0.00166924598653321  0.0018848261851267113  0.9993693926299682  1.0000
  Ca  Ca5       1.0  0.0010259749573167502  0.0031713676415499005  0.9991169006525696  1.0000
  Ca  Ca6       1.0  0.006025974897115777  0.0031713676415499005  0.9994066728657339  1.0000
  Ca  Ca7       1.0  0.007597610350031397  0.005028096976522554  0.9993155895968553  1.0000
  Ca  Ca8       1.0  0.0025976101092275044  0.005028096976522554  0.9990258173854419  1.0000
  Ca  Ca9       1.0  0.0091692451022119  0.00688482650894598  0.9992245063372002  1.0000
  Ca  Ca10      1.0  0.004169245463417738  0.00688482650894598  0.999514278620116  1.0000
  Ca  Ca11      1.0  0.003525974932656917  0.008171367570467622  0.9992617869072271  1.0000
  Ca  Ca12      1.0  0.00852597457145108  0.008171367570467622  0.9989720143466075  1.0000
  Al  Al1       1.0  0.007938182131835263  0.00434695341291482  0.9990060798325932  1.0000
  Al  Al2       1.0  0.0029381818910313713  0.00434695341291482  0.999295852119011  1.0000
  Al  Al3       1.0  0.00975703868077447  0.0007092403150364053  0.9991904410909144  1.0000
  Al  Al4       1.0  0.004757038439970579  0.0007092403150364053  0.9994802133773322  1.0000
  Al  Al5       1.0  0.005438182266101789  0.009346953144381769  0.9994407380884922  1.0000
  Al  Al6       1.0  0.00043818202529789693  0.009346953144381769  0.9991509658770789  1.0000
  Al  Al7       1.0  0.007257038765678304  0.0057092401452287405  0.9990455551295467  1.0000
  Al  Al8       1.0  0.002257038524874411  0.0057092401452287405  0.9993353274159645  1.0000
  Ge  Ge1       1.0  0.005828079958195484  0.0035671575193904877  0.9991283696502783  1.0000
  Ge  Ge2       1.0  0.0008280800183964566  0.0035671575193904877  0.9994181419349452  1.0000
  Ge  Ge3       1.0  0.0018671409748161967  0.0014890362085607377  0.9990681513447318  1.0000
  Ge  Ge4       1.0  0.0068671406136103594  0.0014890362085607377  0.999357923559647  1.0000
  Ge  Ge5       1.0  0.008328079533805398  0.008567157645758983  0.9992732556347046  1.0000
  Ge  Ge6       1.0  0.003328079895011236  0.008567157645758983  0.9989834834197894  1.0000
  Ge  Ge7       1.0  0.004367140698514191  0.006489036038753073  0.9992130375982794  1.0000
  Ge  Ge8       1.0  0.009367140337308354  0.006489036038753073  0.999502809535491  1.0000
  Ca  Ca13      1.0  0.009902389657866634  0.009971903007681386  2.9853678285615934e-05  1.0000
  Ca  Ca14      1.0  0.005097610147730406  2.8096899516751714e-05  0.9997502483928961  1.0000
  Ca  Ca15      1.0  0.006669245625327372  0.0018848261851267113  0.999659165122587  1.0000
  Ca  Ca16      1.0  0.0016813765967969199  0.0018989948577247445  0.9999496138773049  1.0000
  Ca  Ca17      1.0  0.0010259749573167502  0.0031713676415499005  0.9996964451504007  1.0000
  Ca  Ca18      1.0  0.006027511946161233  0.0031633570636728386  0.9999854244727585  1.0000
  Ca  Ca19      1.0  0.007647700320467544  0.005010760798617549  0.999905842453598  1.0000
  Ca  Ca20      1.0  0.0025976101092275044  0.005028096976522554  0.9996053618832731  1.0000
  Ca  Ca21      1.0  0.0091692451022119  0.00688482650894598  0.9998040511127348  1.0000
  Ca  Ca22      1.0  0.0041610633085396725  0.0068574969524973755  8.52656516857377e-05  1.0000
  Ca  Ca23      1.0  0.0034493174135831308  0.008185447390217622  0.9998384184174661  1.0000
  Ca  Ca24      1.0  0.00852597457145108  0.008171367570467622  0.9995515588444386  1.0000
  Al  Al9       1.0  0.007938182131835263  0.00434695341291482  0.9995856246081279  1.0000
  Al  Al10      1.0  0.002855764877717489  0.00431676397946421  0.9998788716417232  1.0000
  Al  Al11      1.0  0.00975703868077447  0.0007092403150364053  0.9997699858664492  1.0000
  Al  Al12      1.0  0.004623420084511604  0.0006126361913550353  5.095506670437227e-05  1.0000
  Al  Al13      1.0  0.0051278825432333015  0.009231004521616393  4.3349888152188616e-05  1.0000
  Al  Al14      1.0  0.00043818202529789693  0.009346953144381769  0.99973051037491  1.0000
  Al  Al15      1.0  0.007257038765678304  0.0057092401452287405  0.9996250999050815  1.0000
  Al  Al16      1.0  0.002141998612893888  0.005699336014434719  0.9999200008249687  1.0000
  Ge  Ge9       1.0  0.005828079958195484  0.0035671575193904877  0.9997079144258131  1.0000
  Ge  Ge10      1.0  0.000668168868655317  0.0035556974765020314  0.9999917132672276  1.0000
  Ge  Ge11      1.0  0.0018671409748161967  0.0014890362085607377  0.9996476958425629  1.0000
  Ge  Ge12      1.0  0.006873032592816565  0.0014344373181494174  0.9999470489038281  1.0000
  Ge  Ge13      1.0  0.008127173688838944  0.008650368930293723  0.9998563843436258  1.0000
  Ge  Ge14      1.0  0.003328079895011236  0.008567157645758983  0.9995630279176205  1.0000
  Ge  Ge15      1.0  0.004367140698514191  0.006489036038753073  0.9997925823738142  1.0000
  Ge  Ge16      1.0  0.009155856583576906  0.006443567469554797  7.300611172745141e-05  1.0000
