data_image0
_chemical_formula_structural       HIn3As3Pd15In3As3Pd15
_chemical_formula_sum              "H1 In6 As6 Pd30"
_cell_length_a       9.118222873493915
_cell_length_b       7.165427207946777
_cell_length_c       104.6012191772461
_cell_angle_alpha    90.0
_cell_angle_beta     108.43494882292202
_cell_angle_gamma    90.0

_space_group_name_H-M_alt    "P 1"
_space_group_IT_number       1

loop_
  _space_group_symop_operation_xyz
  'x, y, z'

loop_
  _atom_site_type_symbol
  _atom_site_label
  _atom_site_symmetry_multiplicity
  _atom_site_fract_x
  _atom_site_fract_y
  _atom_site_fract_z
  _atom_site_occupancy
  H   H1        1.0  0.00029409605190514244  4.999999952950497e-11  0.00012507438488205  1.0000
  In  In1       1.0  0.007952553044742943  4.999999952950497e-11  8.203796133259805e-05  1.0000
  In  In2       1.0  0.004676274740496751  4.999999952950497e-11  0.9997297864278936  1.0000
  In  In3       1.0  0.0013692730289805869  1.5000000633559678e-10  0.9999146255892052  1.0000
  As  As1       1.0  0.008064840953417909  0.005000000207959146  0.9998317304560448  1.0000
  As  As2       1.0  0.004643011873211441  0.004999999688061281  7.346452763718399e-06  1.0000
  As  As3       1.0  0.0013429415406662124  0.005000000207959146  0.999637899827319  1.0000
  Pd  Pd1       1.0  0.0063498257242459435  0.007063525259383283  0.9999205422766654  1.0000
  Pd  Pd2       1.0  0.0029355684057708817  0.0070884959537804975  8.092182370907251e-05  1.0000
  Pd  Pd3       1.0  0.00967627480940142  0.0071207420988834095  0.9997297864753791  1.0000
  Pd  Pd4       1.0  0.0063498257242459435  0.0029364738567903485  0.9999205422766654  1.0000
  Pd  Pd5       1.0  0.0029355703437146763  0.002911503422342066  8.092187713039487e-05  1.0000
  Pd  Pd6       1.0  0.00967627480940142  0.002879257797137018  0.9997297864753791  1.0000
  Pd  Pd7       1.0  0.009705903816745335  0.0072254968393537225  4.281659629191457e-06  1.0000
  Pd  Pd8       1.0  0.006342941717234425  0.0071207420988834095  0.9996378998777725  1.0000
  Pd  Pd9       1.0  0.0030173793490283836  0.0070797309956950796  0.9998189206877444  1.0000
  Pd  Pd10      1.0  0.009705903816745335  0.0027745030566667045  4.281089801753075e-06  1.0000
  Pd  Pd11      1.0  0.006342941717234425  0.002879257797137018  0.9996378998777725  1.0000
  Pd  Pd12      1.0  0.003017378703047119  0.002920268900325348  0.9998189206699373  1.0000
  Pd  Pd13      1.0  0.007982952061754459  0.009999999376122563  0.9998169950271448  1.0000
  Pd  Pd14      1.0  0.0046807302886069276  0.010000000415918291  0.9999988985710472  1.0000
  Pd  Pd15      1.0  0.0013429415406662124  4.999999952950497e-11  0.999637899827319  1.0000
  In  In4       1.0  0.008009607832663745  4.999999952950497e-11  0.9995460130189949  1.0000
  In  In5       1.0  0.004676274740496751  4.999999952950497e-11  0.9991784666997966  1.0000
  In  In6       1.0  0.0013429415406662124  4.999999952950497e-11  0.9993622398208136  1.0000
  As  As4       1.0  0.008009607832663745  0.005000000207959146  0.9992703532974032  1.0000
  As  As5       1.0  0.004676274740496751  0.005000000207959146  0.9994541264213882  1.0000
  As  As6       1.0  0.0013429415406662124  0.005000000207959146  0.999086580099222  1.0000
  Pd  Pd16      1.0  0.006342941717234425  0.0071207420988834095  0.9993622398712672  1.0000
  Pd  Pd17      1.0  0.0030096081944132537  0.0071207420988834095  0.9995460132682944  1.0000
  Pd  Pd18      1.0  0.00967627480940142  0.0071207420988834095  0.9991784667472822  1.0000
  Pd  Pd19      1.0  0.006342941717234425  0.002879257797137018  0.9993622398712672  1.0000
  Pd  Pd20      1.0  0.0030096081944132537  0.002879257797137018  0.9995460132682944  1.0000
  Pd  Pd21      1.0  0.00967627480940142  0.002879257797137018  0.9991784667472822  1.0000
  Pd  Pd22      1.0  0.00967627480940142  0.0071207420988834095  0.9994541264688738  1.0000
  Pd  Pd23      1.0  0.006342941717234425  0.0071207420988834095  0.9990865801496756  1.0000
  Pd  Pd24      1.0  0.0030096081944132537  0.0071207420988834095  0.999270353261789  1.0000
  Pd  Pd25      1.0  0.00967627480940142  0.002879257797137018  0.9994541264688738  1.0000
  Pd  Pd26      1.0  0.006342941717234425  0.002879257797137018  0.9990865801496756  1.0000
  Pd  Pd27      1.0  0.0030096081944132537  0.002879257797137018  0.999270353261789  1.0000
  Pd  Pd28      1.0  0.008009607832663745  4.999999952950497e-11  0.9992703532974032  1.0000
  Pd  Pd29      1.0  0.004676274740496751  4.999999952950497e-11  0.9994541264213882  1.0000
  Pd  Pd30      1.0  0.0013429415406662124  4.999999952950497e-11  0.999086580099222  1.0000
