data_image0
_chemical_formula_structural       HSn8Pt8Sn8Pt8
_chemical_formula_sum              "H1 Sn16 Pt16"
_cell_length_a       7.279844760894775
_cell_length_b       6.955391731862661
_cell_length_c       104.77696228027344
_cell_angle_alpha    74.3544345709509
_cell_angle_beta     90.0
_cell_angle_gamma    90.0

_space_group_name_H-M_alt    "P 1"
_space_group_IT_number       1

loop_
  _space_group_symop_operation_xyz
  'x, y, z'

loop_
  _atom_site_type_symbol
  _atom_site_label
  _atom_site_symmetry_multiplicity
  _atom_site_fract_x
  _atom_site_fract_y
  _atom_site_fract_z
  _atom_site_occupancy
  H   H1        1.0  0.004604109235930106  0.003788883068009819  0.9999553516039688  1.0000
  Sn  Sn1       1.0  0.0025000001944561127  0.004305253684129214  0.9991762987663989  1.0000
  Sn  Sn2       1.0  0.0025000001944561127  0.009305254017852692  0.9988443846325668  1.0000
  Sn  Sn3       1.0  0.0075000003275050315  0.0018052537953703743  0.9986784273962707  1.0000
  Sn  Sn4       1.0  0.0075000003275050315  0.006805253572888055  0.9990103415622437  1.0000
  Sn  Sn5       1.0  0.0041666666496091125  0.004305253684129214  0.9988443846214751  1.0000
  Sn  Sn6       1.0  0.0041666666496091125  0.009305254017852692  0.9991762987774905  1.0000
  Sn  Sn7       1.0  0.009166667294384645  0.0018052537953703743  0.9990103415411945  1.0000
  Sn  Sn8       1.0  0.009166667294384645  0.006805253572888055  0.9986784274173198  1.0000
  Pt  Pt1       1.0  0.0008333333555081532  0.0030552537397497944  0.9987614060088729  1.0000
  Pt  Pt2       1.0  0.0008333333555081532  0.008055253795370374  0.9990933201698671  1.0000
  Pt  Pt3       1.0  0.005833333360625419  0.0005552537467023671  0.9989273629304593  1.0000
  Pt  Pt4       1.0  0.005833333360625419  0.005555253906611534  0.9992592773740223  1.0000
  Pt  Pt5       1.0  0.0008333333555081532  0.005555253906611534  0.9989273629446627  1.0000
  Pt  Pt6       1.0  0.0008333333555081532  0.0005552537467023671  0.9992592773598189  1.0000
  Pt  Pt7       1.0  0.005833333360625419  0.0030552537397497944  0.9990933201537967  1.0000
  Pt  Pt8       1.0  0.005833333360625419  0.008055253795370374  0.9987614060249432  1.0000
  Sn  Sn9       1.0  0.002396588945437727  0.004444743145497741  0.9998486864355837  1.0000
  Sn  Sn10      1.0  0.0025000001944561127  0.009305254017852692  0.9995082126379785  1.0000
  Sn  Sn11      1.0  0.0075000003275050315  0.0018052537953703743  0.9993422559705541  1.0000
  Sn  Sn12      1.0  0.007543430565101417  0.006844964998191663  0.9996731835843515  1.0000
  Sn  Sn13      1.0  0.0041666666496091125  0.004305253684129214  0.9995082126268868  1.0000
  Sn  Sn14      1.0  0.004270083015893622  0.009444745982147307  0.9998486869707384  1.0000
  Sn  Sn15      1.0  0.00912323705678826  0.001844962717747895  0.9996731830392394  1.0000
  Sn  Sn16      1.0  0.009166667294384645  0.006805253572888055  0.9993422559916032  1.0000
  Pt  Pt9       1.0  0.0008333333555081532  0.0030552537397497944  0.9994252345831564  1.0000
  Pt  Pt10      1.0  0.0008516275819022946  0.008152158750389788  0.9997504667106215  1.0000
  Pt  Pt11      1.0  0.005833333360625419  0.0005552537467023671  0.9995911912203069  1.0000
  Pt  Pt12      1.0  0.005600696301898331  0.005862003628597628  0.9998950554706868  1.0000
  Pt  Pt13      1.0  0.0008333333555081532  0.005555253906611534  0.9995911912345103  1.0000
  Pt  Pt14      1.0  0.001065969838542803  0.0008620027386683526  0.9998950554695527  1.0000
  Pt  Pt15      1.0  0.00581504169286434  0.003152160363386601  0.9997504666646787  1.0000
  Pt  Pt16      1.0  0.005833333360625419  0.008055253795370374  0.9994252345992267  1.0000
