data_image0
_chemical_formula_structural       COAl6Co12Fe6
_chemical_formula_sum              "C1 O1 Al6 Co12 Fe6"
_cell_length_a       6.945519766944591
_cell_length_b       5.670993328094482
_cell_length_c       100.53923034667969
_cell_angle_alpha    90.0
_cell_angle_beta     85.65224687718077
_cell_angle_gamma    114.09484339079647

_space_group_name_H-M_alt    "P 1"
_space_group_IT_number       1

loop_
  _space_group_symop_operation_xyz
  'x, y, z'

loop_
  _atom_site_type_symbol
  _atom_site_label
  _atom_site_symmetry_multiplicity
  _atom_site_fract_x
  _atom_site_fract_y
  _atom_site_fract_z
  _atom_site_occupancy
  C   C1        1.0  0.006091795810056393  0.008254231019393994  0.0001310488100678874  1.0000
  O   O1        1.0  0.006091795810056393  0.008254231019393994  0.00025040544605283127  1.0000
  Al  Al1       1.0  0.003541666666666667  0.006979166447699131  0.9995362943368499  1.0000
  Al  Al2       1.0  0.005208333333333333  0.002812499961680681  0.9997894229944159  1.0000
  Al  Al3       1.0  0.001875  0.0011458333360704275  0.9992831656792839  1.0000
  Al  Al4       1.0  0.009375  0.009895833114365798  0.9996628586656329  1.0000
  Al  Al5       1.0  0.0010416666666666667  0.005729166447699131  0.9999159873231989  1.0000
  Al  Al6       1.0  0.0077083333333333335  0.004062499941152474  0.9994097300080669  1.0000
  Co  Co1       1.0  0.0022916666666666667  0.008854166316318609  0.9997261409782368  1.0000
  Co  Co2       1.0  0.003958333333333334  0.004687499912412986  0.9999792696358027  1.0000
  Co  Co3       1.0  0.000625  0.0030208332457463192  0.9994730123206708  1.0000
  Co  Co4       1.0  0.0022916666666666667  0.003854166579079652  0.9997261409782368  1.0000
  Co  Co5       1.0  0.003958333333333334  0.009687499649651944  0.9999792696358027  1.0000
  Co  Co6       1.0  0.000625  0.008020832982985277  0.9994730123206708  1.0000
  Co  Co7       1.0  0.008125  0.0017708335085073617  0.9998527053070198  1.0000
  Co  Co8       1.0  0.004791666666666667  0.00010416667761504348  0.9993464479918879  1.0000
  Co  Co9       1.0  0.006458333333333333  0.005937499912412986  0.9995995766494538  1.0000
  Co  Co10      1.0  0.008125  0.006770833245746319  0.9998527053070198  1.0000
  Co  Co11      1.0  0.004791666666666667  0.0051041665790796525  0.9993464479918879  1.0000
  Co  Co12      1.0  0.006458333333333333  0.0009375000109483768  0.9995995766494538  1.0000
  Fe  Fe1       1.0  0.005208333333333333  0.007812499781032464  0.9997894229944159  1.0000
  Fe  Fe2       1.0  0.001875  0.006145833114365797  0.9992831656792839  1.0000
  Fe  Fe3       1.0  0.003541666666666667  0.0019791666283473478  0.9995362943368499  1.0000
  Fe  Fe4       1.0  0.0010416666666666667  0.0007291666283473481  0.9999159873231989  1.0000
  Fe  Fe5       1.0  0.0077083333333333335  0.009062499781032464  0.9994097300080669  1.0000
  Fe  Fe6       1.0  0.009375  0.004895833336070427  0.9996628586656329  1.0000
