data_image0
_chemical_formula_structural       COCu8Ga8Pt16
_chemical_formula_sum              "C1 O1 Cu8 Ga8 Pt16"
_cell_length_a       6.749160942719807
_cell_length_b       5.406047820337737
_cell_length_c       108.89033508300781
_cell_angle_alpha    86.2623867861215
_cell_angle_beta     87.00695026855001
_cell_angle_gamma    95.38838503355873

_space_group_name_H-M_alt    "P 1"
_space_group_IT_number       1

loop_
  _space_group_symop_operation_xyz
  'x, y, z'

loop_
  _atom_site_type_symbol
  _atom_site_label
  _atom_site_symmetry_multiplicity
  _atom_site_fract_x
  _atom_site_fract_y
  _atom_site_fract_z
  _atom_site_occupancy
  C   C1        1.0  0.006515041709748703  0.002272561979308564  6.718746687616375e-05  1.0000
  O   O1        1.0  0.006515041709748703  0.002272561979308564  0.0001773903081985582  1.0000
  Cu  Cu1       1.0  0.0016666666296418857  0.008750000032312955  0.9993494604939108  1.0000
  Cu  Cu2       1.0  0.0016666666296418857  0.0037499997560867097  0.9989030209307661  1.0000
  Cu  Cu3       1.0  0.008333333703581145  0.008749999676870448  0.9990518339626256  1.0000
  Cu  Cu4       1.0  0.004999999888925658  0.0037499998897691815  0.9992006469416773  1.0000
  Cu  Cu5       1.0  0.008333333703581145  0.008749999676870448  0.9999447125159514  1.0000
  Cu  Cu6       1.0  0.008333333703581145  0.0037499999185684127  0.999498273498513  1.0000
  Cu  Cu7       1.0  0.004999999888925658  0.00874999982071262  0.9996470865059395  1.0000
  Cu  Cu8       1.0  0.0016666666296418857  0.0037499997560867097  0.9997958994840919  1.0000
  Ga  Ga1       1.0  0.004999999888925658  0.001249999967457813  0.9989774274330977  1.0000
  Ga  Ga2       1.0  0.0016666666296418857  0.006249999894199832  0.9991262407123385  1.0000
  Ga  Ga3       1.0  0.008333333703581145  0.0012499999962570444  0.9992750537162421  1.0000
  Ga  Ga4       1.0  0.008333333703581145  0.006249999884040133  0.998828614453627  1.0000
  Ga  Ga5       1.0  0.0016666666296418857  0.0012499999632563936  0.9995726797014022  1.0000
  Ga  Ga6       1.0  0.008333333703581145  0.006249999884040133  0.9997214927332616  1.0000
  Ga  Ga7       1.0  0.004999999888925658  0.001249999967457813  0.9998703062601147  1.0000
  Ga  Ga8       1.0  0.004999999888925658  0.006249999682599497  0.9994238667243671  1.0000
  Pt  Pt1       1.0  0.0016666666296418857  0.008750000032312955  0.9989030209435568  1.0000
  Pt  Pt2       1.0  0.008333333703581145  0.0037499999185684127  0.9990518339481589  1.0000
  Pt  Pt3       1.0  0.004999999888925658  0.00874999982071262  0.9992006469555854  1.0000
  Pt  Pt4       1.0  0.0016666666296418857  0.0037499997560867097  0.9993494604811202  1.0000
  Pt  Pt5       1.0  0.004999999888925658  0.006249999682599497  0.9989774274477042  1.0000
  Pt  Pt6       1.0  0.0016666666296418857  0.0012499999632563936  0.9991262406984304  1.0000
  Pt  Pt7       1.0  0.008333333703581145  0.006249999884040133  0.9992750537302899  1.0000
  Pt  Pt8       1.0  0.008333333703581145  0.0012499999962570444  0.9988286144395793  1.0000
  Pt  Pt9       1.0  0.008333333703581145  0.008749999676870448  0.9994982735129797  1.0000
  Pt  Pt10      1.0  0.004999999888925658  0.0037499998897691815  0.9996470864920314  1.0000
  Pt  Pt11      1.0  0.0016666666296418857  0.008750000032312955  0.9997958994968825  1.0000
  Pt  Pt12      1.0  0.008333333703581145  0.0037499999185684127  0.9999447125014846  1.0000
  Pt  Pt13      1.0  0.0016666666296418857  0.006249999894199832  0.9995726797153102  1.0000
  Pt  Pt14      1.0  0.008333333703581145  0.0012499999962570444  0.9997214932665962  1.0000
  Pt  Pt15      1.0  0.004999999888925658  0.006249999682599497  0.9998703062747212  1.0000
  Pt  Pt16      1.0  0.004999999888925658  0.001249999967457813  0.9994238667097607  1.0000
