data_image0
_chemical_formula_structural       COAl2Co4Si4Al2Co4Si4
_chemical_formula_sum              "C1 O1 Al4 Co8 Si8"
_cell_length_a       6.844520092010498
_cell_length_b       6.107191850395916
_cell_length_c       101.61348724365234
_cell_angle_alpha    108.87637005084514
_cell_angle_beta     90.0
_cell_angle_gamma    55.91891684461526

_space_group_name_H-M_alt    "P 1"
_space_group_IT_number       1

loop_
  _space_group_symop_operation_xyz
  'x, y, z'

loop_
  _atom_site_type_symbol
  _atom_site_label
  _atom_site_symmetry_multiplicity
  _atom_site_fract_x
  _atom_site_fract_y
  _atom_site_fract_z
  _atom_site_occupancy
  C   C1        1.0  0.009387425443881839  0.0014173726347543342  0.00020899136333386452  1.0000
  O   O1        1.0  0.009387425443881839  0.0014173726347543342  0.00032708616200877855  1.0000
  Al  Al1       1.0  1.1685300432070662e-05  3.5618699667358207e-05  0.9996172949596337  1.0000
  Al  Al2       1.0  0.005011685174653887  3.5618699667358207e-05  0.9994228480054003  1.0000
  Co  Co1       1.0  0.007531519739924034  0.0016626163373914342  0.9994544844693767  1.0000
  Co  Co2       1.0  0.002531519935862462  0.0016626163373914342  0.99964893142361  1.0000
  Co  Co3       1.0  0.007491850669775905  0.008408621245952062  0.9995856584405771  1.0000
  Co  Co4       1.0  0.002491850865714333  0.008408621245952062  0.9993912114863437  1.0000
  Si  Si1       1.0  0.009939059446663205  0.003514203692177465  0.9994904880106791  1.0000
  Si  Si2       1.0  0.004939059642601632  0.003514203692177465  0.9996849349649125  1.0000
  Si  Si3       1.0  0.005084311063041507  0.006557033691156488  0.9995496548953855  1.0000
  Si  Si4       1.0  8.43112589799351e-05  0.006557033691156488  0.9997441018496189  1.0000
  Al  Al3       1.0  0.0001139214150362655  0.009964381084322335  2.3825591216461228e-05  1.0000
  Al  Al4       1.0  0.005011685174653887  3.5618699667358207e-05  0.9998117416205761  1.0000
  Co  Co5       1.0  0.0075438455395842275  0.0017099165944840222  0.9998497911640004  1.0000
  Co  Co6       1.0  0.002600984668908492  0.0015715959940462824  3.055919621406975e-05  1.0000
  Co  Co7       1.0  0.007465208616047301  0.00850097765305204  0.9999810182634741  1.0000
  Co  Co8       1.0  0.002491850865714333  0.008408621245952062  0.9997801053948104  1.0000
  Si  Si5       1.0  0.009973302879609324  0.003465737379442567  0.9998752089062565  1.0000
  Si  Si6       1.0  0.0046873274017345656  0.0035926102336121717  5.6476668197647264e-05  1.0000
  Si  Si7       1.0  0.005164114527440929  0.0066114426874667375  0.9999391389707324  1.0000
  Si  Si8       1.0  0.009988315422215413  0.006346510445324034  0.00011249608636200457  1.0000
