data_image0
_chemical_formula_structural       HIn10Pt10
_chemical_formula_sum              "H1 In10 Pt10"
_cell_length_a       7.107274825088983
_cell_length_b       7.3255810158511085
_cell_length_c       99.31734466552734
_cell_angle_alpha    88.87310976116666
_cell_angle_beta     89.70496031270692
_cell_angle_gamma    65.31506997432804

_space_group_name_H-M_alt    "P 1"
_space_group_IT_number       1

loop_
  _space_group_symop_operation_xyz
  'x, y, z'

loop_
  _atom_site_type_symbol
  _atom_site_label
  _atom_site_symmetry_multiplicity
  _atom_site_fract_x
  _atom_site_fract_y
  _atom_site_fract_z
  _atom_site_occupancy
  H   H1        1.0  0.005690234961915259  0.005613138820968913  0.000134252456468691  1.0000
  In  In1       1.0  0.0007065402201377095  0.0006742726078360249  0.999294391586205  1.0000
  In  In2       1.0  0.0006814798877862546  0.0067180723862750895  0.9994424469376463  1.0000
  In  In3       1.0  0.00930302875001719  0.003201901740691978  0.999568034223711  1.0000
  In  In4       1.0  0.005646053828924739  0.007927481057043825  0.9993483306120854  1.0000
  In  In5       1.0  0.0057670258487509205  0.003421064298573233  0.9992404528267163  1.0000
  In  In6       1.0  0.009277968578818975  0.009245701449158539  0.9997160898752661  1.0000
  In  In7       1.0  0.009318519714300368  0.005396593514612498  0.999919627141456  1.0000
  In  In8       1.0  0.007873925569050231  0.001599755879929423  0.999994777875034  1.0000
  In  In9       1.0  0.004297318607241508  0.006505286002812335  0.99976234654036  1.0000
  In  In10      1.0  0.004338454607026518  0.0019924929299782357  0.999662150849621  1.0000
  Pt  Pt1       1.0  0.004992254510168534  0.0049599869235385265  0.9995052405808111  1.0000
  Pt  Pt2       1.0  0.0028181001868213796  0.002695616530528164  0.9993960571908778  1.0000
  Pt  Pt3       1.0  0.007166408975140729  0.007224357596438904  0.9996144242703581  1.0000
  Pt  Pt4       1.0  0.007408823181765014  0.0006769992263840002  0.9994593284501159  1.0000
  Pt  Pt5       1.0  0.0025756852541862422  0.00924297476063806  0.9995511527115188  1.0000
  Pt  Pt6       1.0  0.003583559447873676  0.0035368315666675625  0.9999155867148923  1.0000
  Pt  Pt7       1.0  0.0013027529244725698  0.001435433711968545  0.9998253255849607  1.0000
  Pt  Pt8       1.0  0.005681188629818446  0.005663313024513887  1.0165782825762548e-05  1.0000
  Pt  Pt9       1.0  0.0058944930198989295  0.009325727602081486  0.999882286419542  1.0000
  Pt  Pt10      1.0  0.0013175074051154404  0.007845727982731907  0.999953572426271  1.0000
