data_image0
_chemical_formula_structural       COAl6V18Al6V18
_chemical_formula_sum              "C1 O1 Al12 V36"
_cell_length_a       4.820557117462158
_cell_length_b       10.77909297415795
_cell_length_c       110.90377807617188
_cell_angle_alpha    71.56505117707799
_cell_angle_beta     90.0
_cell_angle_gamma    90.0

_space_group_name_H-M_alt    "P 1"
_space_group_IT_number       1

loop_
  _space_group_symop_operation_xyz
  'x, y, z'

loop_
  _atom_site_type_symbol
  _atom_site_label
  _atom_site_symmetry_multiplicity
  _atom_site_fract_x
  _atom_site_fract_y
  _atom_site_fract_z
  _atom_site_occupancy
  C   C1        1.0  0.00999938139507417  0.002821301502453071  0.9998971612773847  1.0000
  O   O1        1.0  0.00999938139507417  0.002821301502453071  5.362863680569611e-06  1.0000
  Al  Al1       1.0  6.180499849839225e-07  0.006687236294962053  0.999031729890619  1.0000
  Al  Al2       1.0  6.180499849839225e-07  0.00335390336964235  0.998826828257971  1.0000
  Al  Al3       1.0  6.180499849839225e-07  2.056995052824898e-05  0.9992366311353603  1.0000
  Al  Al4       1.0  0.0050006176621190035  0.006687236294962053  0.9987243776431888  1.0000
  Al  Al5       1.0  0.0050006176621190035  0.00335390336964235  0.9991341805054013  1.0000
  Al  Al6       1.0  0.0050006176621190035  2.056995052824898e-05  0.99892927888793  1.0000
  V   V1        1.0  0.0050006176621190035  0.007520569890589863  0.9989292787607856  1.0000
  V   V2        1.0  0.0050006176621190035  0.004187236600972275  0.998724377676779  1.0000
  V   V3        1.0  0.0050006176621190035  0.0008539032202802172  0.9991341805529874  1.0000
  V   V4        1.0  0.0050006176621190035  0.009187236353249714  0.9987243775984017  1.0000
  V   V5        1.0  0.0050006176621190035  0.005853903063632127  0.9991341804718109  1.0000
  V   V6        1.0  0.0050006176621190035  0.002520569956163482  0.9989292788447613  1.0000
  V   V7        1.0  0.007500617955780147  0.005020569832302201  0.9989292788055726  1.0000
  V   V8        1.0  0.007500617955780147  0.001687236724833556  0.9987243777159677  1.0000
  V   V9        1.0  0.007500617955780147  0.008353903486217673  0.9991341804158271  1.0000
  V   V10       1.0  0.002500617948052222  0.005020569832302201  0.9989292788055726  1.0000
  V   V11       1.0  0.002500617948052222  0.001687236724833556  0.9987243777159677  1.0000
  V   V12       1.0  0.002500617948052222  0.008353903486217673  0.9991341804158271  1.0000
  V   V13       1.0  6.180499849839225e-07  0.005853903063632127  0.9986731523693879  1.0000
  V   V14       1.0  6.180499849839225e-07  0.002520569956163482  0.9990829546997541  1.0000
  V   V15       1.0  6.180499849839225e-07  0.009187236353249714  0.9988780539908392  1.0000
  V   V16       1.0  6.180499849839225e-07  0.007520569890589863  0.9987756029057928  1.0000
  V   V17       1.0  6.180499849839225e-07  0.004187236600972275  0.999185405779202  1.0000
  V   V18       1.0  6.180499849839225e-07  0.0008539032202802172  0.99898050416055  1.0000
  Al  Al7       1.0  1.075849958861223e-06  0.006717008175240875  0.9996445777380685  1.0000
  Al  Al8       1.0  6.180499849839225e-07  0.00335390336964235  0.9994415322153868  1.0000
  Al  Al9       1.0  0.009998675062745804  0.009979429788828  0.9998495268002089  1.0000
  Al  Al10      1.0  0.0050006176621190035  0.006687236294962053  0.9993390816006046  1.0000
  Al  Al11      1.0  0.004999043870229818  0.003203004628693141  0.9997559322659338  1.0000
  Al  Al12      1.0  0.0050006176621190035  2.056995052824898e-05  0.9995439828453458  1.0000
  V   V19       1.0  0.0050006176621190035  0.007520569890589863  0.9995439827182014  1.0000
  V   V20       1.0  0.0050006176621190035  0.004187236600972275  0.9993390816341948  1.0000
  V   V21       1.0  0.004996731675124272  0.0007036722373525334  0.9997476141815406  1.0000
  V   V22       1.0  0.0050006176621190035  0.009187236353249714  0.9993390815558175  1.0000
  V   V23       1.0  0.0050000651154945164  0.005761347357414624  0.9997250874763761  1.0000
  V   V24       1.0  0.0050006176621190035  0.002520569956163482  0.9995439828021772  1.0000
  V   V25       1.0  0.007500617955780147  0.005020569832302201  0.9995439827629884  1.0000
  V   V26       1.0  0.007500617955780147  0.001687236724833556  0.9993390816733835  1.0000
  V   V27       1.0  0.00722761587411213  0.008380657522824748  0.9997424189138232  1.0000
  V   V28       1.0  0.002500617948052222  0.005020569832302201  0.9995439827629884  1.0000
  V   V29       1.0  0.002500617948052222  0.001687236724833556  0.9993390816733835  1.0000
  V   V30       1.0  0.002776062247160847  0.008381221455949309  0.9997423333257589  1.0000
  V   V31       1.0  6.180499849839225e-07  0.005853903063632127  0.9992878563268037  1.0000
  V   V32       1.0  1.2467499220226305e-06  0.0025278952580166285  0.9996950279102812  1.0000
  V   V33       1.0  6.180499849839225e-07  0.009187236353249714  0.9994927574108102  1.0000
  V   V34       1.0  6.180499849839225e-07  0.007520569890589863  0.9993903068632086  1.0000
  V   V35       1.0  0.009997516646815587  0.004185948807952041  0.999770045966138  1.0000
  V   V36       1.0  1.761749887958421e-06  0.0008738418809973923  0.9995998353850409  1.0000
