data_image0
_chemical_formula_structural       COMo4Rh4Mo4Rh4
_chemical_formula_sum              "C1 O1 Mo8 Rh8"
_cell_length_a       4.8447394371032715
_cell_length_b       5.232174382368045
_cell_length_c       106.6252212524414
_cell_angle_alpha    63.67965130971807
_cell_angle_beta     90.0
_cell_angle_gamma    90.0

_space_group_name_H-M_alt    "P 1"
_space_group_IT_number       1

loop_
  _space_group_symop_operation_xyz
  'x, y, z'

loop_
  _atom_site_type_symbol
  _atom_site_label
  _atom_site_symmetry_multiplicity
  _atom_site_fract_x
  _atom_site_fract_y
  _atom_site_fract_z
  _atom_site_occupancy
  C   C1        1.0  0.0008904120664866825  0.0009633591560937551  0.9999790397745868  1.0000
  O   O1        1.0  0.0008904120664866825  0.0009633591560937551  9.158373161437404e-05  1.0000
  Mo  Mo1       1.0  0.00910958820264061  0.0013421852977513844  0.9990027507490827  1.0000
  Mo  Mo2       1.0  0.00910958820264061  0.006342185281864437  0.9992481041447542  1.0000
  Mo  Mo3       1.0  0.0025282940442345613  0.0038421854883947506  0.9991254274425977  1.0000
  Mo  Mo4       1.0  0.0025282940442345613  0.008842185472507804  0.9993707811177744  1.0000
  Rh  Rh1       1.0  0.004080895926907611  0.0038421854883947506  0.9993707808938246  1.0000
  Rh  Rh2       1.0  0.004080895926907611  0.008842185472507804  0.9991254273870422  1.0000
  Rh  Rh3       1.0  0.007556985935499999  0.006342185281864437  0.9990027506935273  1.0000
  Rh  Rh4       1.0  0.007556985935499999  0.0013421852977513844  0.9992481039208042  1.0000
  Mo  Mo5       1.0  0.00910958820264061  0.0013421852977513844  0.9994934576515364  1.0000
  Mo  Mo6       1.0  0.009055505151004093  0.006317498157495416  0.9997306863041892  1.0000
  Mo  Mo7       1.0  0.0025771927430610062  0.0038472343602028976  0.9996207428247703  1.0000
  Mo  Mo8       1.0  0.002417445895264393  0.00903664091142577  0.9998368163813733  1.0000
  Rh  Rh5       1.0  0.004148028576458725  0.004028858309071635  0.9998516584013786  1.0000
  Rh  Rh6       1.0  0.004116810579538403  0.008909582668454003  0.9996149177771072  1.0000
  Rh  Rh7       1.0  0.007556985935499999  0.006342185281864437  0.9994934578754864  1.0000
  Rh  Rh8       1.0  0.007632795248940592  0.0011729739199938935  0.9997439587142143  1.0000
