data_image0
_chemical_formula_structural       COAu12Se12
_chemical_formula_sum              "C1 O1 Au12 Se12"
_cell_length_a       5.147601993912552
_cell_length_b       13.537432662226637
_cell_length_c       102.9863510131836
_cell_angle_alpha    92.16508269116522
_cell_angle_beta     90.0811088756145
_cell_angle_gamma    96.49770141487105

_space_group_name_H-M_alt    "P 1"
_space_group_IT_number       1

loop_
  _space_group_symop_operation_xyz
  'x, y, z'

loop_
  _atom_site_type_symbol
  _atom_site_label
  _atom_site_symmetry_multiplicity
  _atom_site_fract_x
  _atom_site_fract_y
  _atom_site_fract_z
  _atom_site_occupancy
  C   C1        1.0  0.0016987089092966928  0.003268723299414527  0.00013609974916275179  1.0000
  O   O1        1.0  0.0016987089092966928  0.003268723299414527  0.0002526202802878803  1.0000
  Au  Au1       1.0  0.008574998742229637  0.0038517007535464076  0.9999902595783252  1.0000
  Au  Au2       1.0  0.0074160576980300515  0.008737793647459358  0.9998704931558882  1.0000
  Au  Au3       1.0  0.006951830894626246  0.0011409415408976215  0.9999955438607326  1.0000
  Au  Au4       1.0  0.006910968843084276  0.005886908911681493  0.9997766460407335  1.0000
  Au  Au5       1.0  0.005851728604591471  0.003003646240360312  0.999705843189289  1.0000
  Au  Au6       1.0  0.004351728544488475  0.007503646014193151  0.9995456941827543  1.0000
  Au  Au7       1.0  0.005101728475935591  0.0002536462457650421  0.999625768703966  1.0000
  Au  Au8       1.0  0.0036017286638074662  0.004753646244794962  0.9994656194091858  1.0000
  Au  Au9       1.0  0.0028517285196782522  0.002003646198231135  0.9993855449236035  1.0000
  Au  Au10      1.0  0.001351728632561581  0.006503646249229613  0.9992253959184574  1.0000
  Au  Au11      1.0  0.0021017285132425897  0.009253646018627801  0.9993054704026446  1.0000
  Au  Au12      1.0  0.000601728624125187  0.0037536462026657854  0.9991453211435034  1.0000
  Se  Se1       1.0  0.009398271581165536  0.004456131936750819  0.999766105923189  1.0000
  Se  Se2       1.0  0.009252009980819898  0.00974635339599837  4.905486136332064e-05  1.0000
  Se  Se3       1.0  0.004783597533536417  0.002587332087734694  0.999945329522697  1.0000
  Se  Se4       1.0  0.00424055957705613  0.007265546872549856  0.9997892461151429  1.0000
  Se  Se5       1.0  0.006341487081732122  0.0033747749104590906  0.999466003569633  1.0000
  Se  Se6       1.0  0.00784148700814303  0.008874775003586745  0.9996261525407719  1.0000
  Se  Se7       1.0  0.00236197000127538  0.0016325173895495374  0.9996253845425686  1.0000
  Se  Se8       1.0  0.0008619698999101607  0.006132517024799557  0.9994652355353426  1.0000
  Se  Se9       1.0  0.003341487177742662  0.0023747748683299137  0.9991457053039602  1.0000
  Se  Se10      1.0  0.004841487021629125  0.00787477468429193  0.9993058542737169  1.0000
  Se  Se11      1.0  0.00936196990804547  0.00063251741671177  0.9993050863124043  1.0000
  Se  Se12      1.0  0.007861969687649824  0.005132517259836019  0.9991449373062024  1.0000
