data_image0
_chemical_formula_structural       COSi8W4
_chemical_formula_sum              "C1 O1 Si8 W4"
_cell_length_a       4.5573063203404525
_cell_length_b       4.5803093910217285
_cell_length_c       101.68028259277344
_cell_angle_alpha    90.0
_cell_angle_beta     89.66633329124902
_cell_angle_gamma    90.0

_space_group_name_H-M_alt    "P 1"
_space_group_IT_number       1

loop_
  _space_group_symop_operation_xyz
  'x, y, z'

loop_
  _atom_site_type_symbol
  _atom_site_label
  _atom_site_symmetry_multiplicity
  _atom_site_fract_x
  _atom_site_fract_y
  _atom_site_fract_z
  _atom_site_occupancy
  C   C1        1.0  0.008614625781687988  0.001666666578556218  0.00012356805284444635  1.0000
  O   O1        1.0  0.008614625781687988  0.001666666578556218  0.0002415852732209358  1.0000
  Si  Si1       1.0  0.003756335241998652  0.0050000002439981655  0.9995696870490043  1.0000
  Si  Si2       1.0  0.006267955945029728  4.5000000727214015e-10  0.999758140004359  1.0000
  Si  Si3       1.0  0.0012563354586219377  5.000000080801557e-11  0.9993749572904174  1.0000
  Si  Si4       1.0  0.008560731543081334  0.0050000002439981655  0.9999624249266954  1.0000
  Si  Si5       1.0  0.00880421121160775  0.0050000002439981655  0.9996982639410136  1.0000
  Si  Si6       1.0  0.0011957885349838792  0.010000000487996331  0.9998988491592431  1.0000
  Si  Si7       1.0  0.006304211326050239  5.000000080801557e-11  0.9995035341824533  1.0000
  Si  Si8       1.0  0.00380421144049273  0.0050000002439981655  0.999308804423893  1.0000
  W   W1        1.0  0.00878027311236071  0.0050000002439981655  0.9994392457005122  1.0000
  W   W2        1.0  0.0012802734556881816  5.000000080801557e-11  0.9996339755309454  1.0000
  W   W3        1.0  0.006153758688343095  0.010000000487996331  0.9999983937996045  1.0000
  W   W4        1.0  0.0037629508354014075  0.0050000002439981655  0.9998288443430147  1.0000
