data_image0
_chemical_formula_structural       HNa8Ag4As4
_chemical_formula_sum              "H1 Na8 Ag4 As4"
_cell_length_a       7.495996952056885
_cell_length_b       5.768052577972412
_cell_length_c       106.01016998291016
_cell_angle_alpha    90.0
_cell_angle_beta     90.0
_cell_angle_gamma    90.0

_space_group_name_H-M_alt    "P 1"
_space_group_IT_number       1

loop_
  _space_group_symop_operation_xyz
  'x, y, z'

loop_
  _atom_site_type_symbol
  _atom_site_label
  _atom_site_symmetry_multiplicity
  _atom_site_fract_x
  _atom_site_fract_y
  _atom_site_fract_z
  _atom_site_occupancy
  H   H1        1.0  0.00640318920761095  0.003750000103335821  0.0  1.0000
  Na  Na1       1.0  0.005816092461504258  0.008750000025833956  9.079840251486779e-06  1.0000
  Na  Na2       1.0  0.0027935260590722347  0.003749999780411381  0.9997250189861939  1.0000
  Na  Na3       1.0  0.00573549177748184  0.008750000025833956  0.9997250189861939  1.0000
  Na  Na4       1.0  0.0027129256235351295  0.003750000103335821  9.079840251486779e-06  1.0000
  Na  Na5       1.0  0.0007354917402090426  0.008750000025833956  0.9996025673688275  1.0000
  Na  Na6       1.0  0.00779352615846636  0.003749999780411381  0.9993004112123528  1.0000
  Na  Na7       1.0  0.0007354917402090426  0.008750000025833956  0.9993004112123528  1.0000
  Na  Na8       1.0  0.00779352615846636  0.003749999780411381  0.9996025673688275  1.0000
  Ag  Ag1       1.0  0.004264508918277037  0.006249999741660448  0.9994514891500267  1.0000
  Ag  Ag2       1.0  0.004264508918277037  0.0012499999806245337  0.9994514891500267  1.0000
  Ag  Ag3       1.0  0.009264508520700536  0.006249998449962688  0.9998858382559798  1.0000
  Ag  Ag4       1.0  0.009264508520700536  0.0012500007879356339  0.9998858382559798  1.0000
  As  As1       1.0  0.0013847200645966395  0.003749999780411381  0.9994514891500267  1.0000
  As  As2       1.0  0.007144298144685405  0.008750000025833956  0.9994514891500267  1.0000
  As  As3       1.0  0.00640318920761095  0.003750000103335821  0.9998837804062479  1.0000
  As  As4       1.0  0.0021258306168256283  0.008749999379985076  0.9998837804062479  1.0000
