data_image0
_chemical_formula_structural       Al12Re2H
_chemical_formula_sum              "Al12 Re2 H1"
_cell_length_a       5.080716133117676
_cell_length_b       5.080715955405193
_cell_length_c       106.41590118408203
_cell_angle_alpha    90.0
_cell_angle_beta     90.0
_cell_angle_gamma    98.13535340821201

_space_group_name_H-M_alt    "P 1"
_space_group_IT_number       1

loop_
  _space_group_symop_operation_xyz
  'x, y, z'

loop_
  _atom_site_type_symbol
  _atom_site_label
  _atom_site_symmetry_multiplicity
  _atom_site_fract_x
  _atom_site_fract_y
  _atom_site_fract_z
  _atom_site_occupancy
  Al  Al1       1.0  0.0017443364958704194  0.008156137041092996  0.9997748266884234  1.0000
  Al  Al2       1.0  0.008233947750758353  0.001666525326070149  0.9993470723952003  1.0000
  Al  Al3       1.0  0.008233947750758353  0.001666525326070149  0.9997748266884234  1.0000
  Al  Al4       1.0  0.0017443364958704194  0.008156137041092996  0.9993470723952003  1.0000
  Al  Al5       1.0  0.003722574651351301  0.003644768291645837  0.00010347366083446938  1.0000
  Al  Al6       1.0  0.006300453434370467  0.0062226427137887525  0.9996889052047782  1.0000
  Al  Al7       1.0  0.0035811308280617004  0.003503321161332398  0.999850806213837  1.0000
  Al  Al8       1.0  0.006300453434370467  0.0062226427137887525  0.9994329938788455  1.0000
  Al  Al9       1.0  0.0011024428709316232  0.0046244998634550295  0.9995609496818394  1.0000
  Al  Al10      1.0  0.008952863685397093  0.005184762947051458  0.0  1.0000
  Al  Al11      1.0  0.004702310700914966  0.0010246317707616854  0.9995609496818394  1.0000
  Al  Al12      1.0  0.005262571731316934  0.008875055734334161  0.0  1.0000
  Re  Re1       1.0  0.009547203859496799  0.009469392843934289  0.9995609496818394  1.0000
  Re  Re2       1.0  0.0004527964736565127  0.0003749815166333272  0.9999813992962864  1.0000
  H   H1        1.0  0.00785768403922406  0.009625019091646253  0.00013165617184220555  1.0000
