data_image0
_chemical_formula_structural       Ga12Au12Ga12Au12H
_chemical_formula_sum              "Ga24 Au24 H1"
_cell_length_a       7.3752288818359375
_cell_length_b       14.331296360696804
_cell_length_c       33.74946212768555
_cell_angle_alpha    108.45908441404396
_cell_angle_beta     90.0
_cell_angle_gamma    90.0

_space_group_name_H-M_alt    "P 1"
_space_group_IT_number       1

loop_
  _space_group_symop_operation_xyz
  'x, y, z'

loop_
  _atom_site_type_symbol
  _atom_site_label
  _atom_site_symmetry_multiplicity
  _atom_site_fract_x
  _atom_site_fract_y
  _atom_site_fract_z
  _atom_site_occupancy
  Ga  Ga1       1.0  0.0018749867459547363  0.004624231990037245  0.9997364472907954  1.0000
  Ga  Ga2       1.0  0.0018750015203763814  0.0012008937289041594  0.0006437591731983821  1.0000
  Ga  Ga3       1.0  0.0018749867459547363  0.007957564870290637  0.9988413579497982  1.0000
  Ga  Ga4       1.0  0.004374986584320038  0.008658005815582128  0.9982449100586054  1.0000
  Ga  Ga5       1.0  0.004374986584320038  0.005324672935328737  0.9991399993996025  1.0000
  Ga  Ga6       1.0  0.004374961834006855  0.002203550002504509  0.00020201172474555883  1.0000
  Ga  Ga7       1.0  0.0018749891452197896  0.007380528102905995  3.7488398417099365e-05  1.0000
  Ga  Ga8       1.0  0.0018749867459547363  0.00411731665135081  0.9981215727178151  1.0000
  Ga  Ga9       1.0  0.0018749867459547363  0.0007839833600369881  0.9990166620035443  1.0000
  Ga  Ga10      1.0  0.004374986584320038  0.005831587725934597  0.9980696058732137  1.0000
  Ga  Ga11      1.0  0.004374986584320038  0.0024982548456812057  0.9989646954349722  1.0000
  Ga  Ga12      1.0  0.004375005778440466  0.009168739631630923  0.9998610786458005  1.0000
  Au  Au1       1.0  0.0018749867459547363  0.007241983747209875  0.9979913220090983  1.0000
  Au  Au2       1.0  0.0018749867459547363  0.003908650318875909  0.9988864110556435  1.0000
  Au  Au3       1.0  0.0018749690671596053  0.0007413729042845765  0.9997905070124294  1.0000
  Au  Au4       1.0  0.004374987594536903  0.006009408631758675  0.9999800549327703  1.0000
  Au  Au5       1.0  0.004374986584320038  0.0027069209041158202  0.9981998568395373  1.0000
  Au  Au6       1.0  0.004374986584320038  0.009373587486743466  0.9990949462937573  1.0000
  Au  Au7       1.0  0.0018750020254848137  0.00926338711795627  0.00041235441925618324  1.0000
  Au  Au8       1.0  0.0018749867459547363  0.005989159246854158  0.9986611218421414  1.0000
  Au  Au9       1.0  0.0018749867459547363  0.0026558258185201914  0.9995562113302094  1.0000
  Au  Au10      1.0  0.004374986584320038  0.00399787893256143  0.00016480834945583857  1.0000
  Au  Au11      1.0  0.004374986584320038  0.0006264122501778587  0.9984251460898845  1.0000
  Au  Au12      1.0  0.004374986584320038  0.007293078558765216  0.9993202352864978  1.0000
  Ga  Ga13      1.0  0.006874986927793772  0.004624231990037245  0.9997364472907954  1.0000
  Ga  Ga14      1.0  0.00687500157593831  0.0012008937289041594  0.0006437591731983821  1.0000
  Ga  Ga15      1.0  0.006874986927793772  0.007957564870290637  0.9988413579497982  1.0000
  Ga  Ga16      1.0  0.009374986261050641  0.008658005815582128  0.9982449100586054  1.0000
  Ga  Ga17      1.0  0.009374986261050641  0.005324672935328737  0.9991399993996025  1.0000
  Ga  Ga18      1.0  0.009374962015845891  0.002203550002504509  0.00020201172474555883  1.0000
  Ga  Ga19      1.0  0.006874988948227501  0.007380528102905995  3.7488398417099365e-05  1.0000
  Ga  Ga20      1.0  0.006874986927793772  0.00411731665135081  0.9981215727178151  1.0000
  Ga  Ga21      1.0  0.006874986927793772  0.0007839833600369881  0.9990166620035443  1.0000
  Ga  Ga22      1.0  0.009374986261050641  0.005831587725934597  0.9980696058732137  1.0000
  Ga  Ga23      1.0  0.009374986261050641  0.0024982548456812057  0.9989646954349722  1.0000
  Ga  Ga24      1.0  0.00937500545517107  0.009168739631630923  0.9998610786458005  1.0000
  Au  Au13      1.0  0.006874986927793772  0.007241983747209875  0.9979913220090983  1.0000
  Au  Au14      1.0  0.006874986927793772  0.003908650318875909  0.9988864110556435  1.0000
  Au  Au15      1.0  0.006874969248998641  0.0007413729042845765  0.9997905070124294  1.0000
  Au  Au16      1.0  0.009374987271267506  0.006009408631758675  0.9999800549327703  1.0000
  Au  Au17      1.0  0.009374986261050641  0.0027069209041158202  0.9981998568395373  1.0000
  Au  Au18      1.0  0.009374986261050641  0.009373587486743466  0.9990949462937573  1.0000
  Au  Au19      1.0  0.006875002081046742  0.00926338711795627  0.00041235441925618324  1.0000
  Au  Au20      1.0  0.006874986927793772  0.005989159246854158  0.9986611218421414  1.0000
  Au  Au21      1.0  0.006874986927793772  0.0026558258185201914  0.9995562113302094  1.0000
  Au  Au22      1.0  0.009374986261050641  0.00399787893256143  0.00016480834945583857  1.0000
  Au  Au23      1.0  0.009374986261050641  0.0006264122501778587  0.9984251460898845  1.0000
  Au  Au24      1.0  0.009374986261050641  0.007293078558765216  0.9993202352864978  1.0000
  H   H1        1.0  0.0006249942139829079  0.0018495743558027543  0.00024867885860709884  1.0000
