data_image0
_chemical_formula_structural       COCu8Sn8Cu8Sn8
_chemical_formula_sum              "C1 O1 Cu16 Sn16"
_cell_length_a       7.323907852172852
_cell_length_b       11.155448245134705
_cell_length_c       99.5992202758789
_cell_angle_alpha    100.92503151077443
_cell_angle_beta     90.0
_cell_angle_gamma    70.83643993467747

_space_group_name_H-M_alt    "P 1"
_space_group_IT_number       1

loop_
  _space_group_symop_operation_xyz
  'x, y, z'

loop_
  _atom_site_type_symbol
  _atom_site_label
  _atom_site_symmetry_multiplicity
  _atom_site_fract_x
  _atom_site_fract_y
  _atom_site_fract_z
  _atom_site_occupancy
  C   C1        1.0  0.005998187412349059  0.009549874648261283  0.0001539838042463569  1.0000
  O   O1        1.0  0.005998187412349059  0.009549874648261283  0.00027446691932955054  1.0000
  Cu  Cu1       1.0  0.008020833200987572  0.005450125192954537  0.9994724563452319  1.0000
  Cu  Cu2       1.0  0.0005208333422658185  0.00045012523084621644  0.9993663194751014  1.0000
  Cu  Cu3       1.0  0.005520833039620322  0.00045012523084621644  0.9995785932648465  1.0000
  Cu  Cu4       1.0  0.0030208330585661616  0.005450125192954537  0.999684730134977  1.0000
  Cu  Cu5       1.0  0.00677083306385578  0.007950125467218122  0.9995255247865211  1.0000
  Cu  Cu6       1.0  0.009270833157682797  0.0029501252795640902  0.9994193879116029  1.0000
  Cu  Cu7       1.0  0.004270833015261386  0.0029501252795640902  0.9996316617013482  1.0000
  Cu  Cu8       1.0  0.0017708329214343689  0.007950125467218122  0.9997377985762664  1.0000
  Sn  Sn1       1.0  0.009062499428132536  0.006700125149649761  0.9997112643517916  1.0000
  Sn  Sn2       1.0  0.0015624998196520034  0.0017001253228688669  0.9996051274845337  1.0000
  Sn  Sn3       1.0  0.006562499707749467  0.0017001253228688669  0.9993928536947885  1.0000
  Sn  Sn4       1.0  0.00406249979435902  0.006700125149649761  0.9994989905620463  1.0000
  Sn  Sn5       1.0  0.004479166043156374  0.009200125063040207  0.9993397852059299  1.0000
  Sn  Sn6       1.0  0.006979165956546821  0.004200125236259314  0.9996581959181626  1.0000
  Sn  Sn7       1.0  0.00197916657709725  0.004200125236259314  0.9994459221284173  1.0000
  Sn  Sn8       1.0  0.009479166694225678  0.009200125063040207  0.9995520589956752  1.0000
  Cu  Cu9       1.0  0.007969756352052862  0.005457019313399186  0.9998910120195236  1.0000
  Cu  Cu10      1.0  0.0005208333422658185  0.00045012523084621644  0.9997908670545919  1.0000
  Cu  Cu11      1.0  0.005400558860282657  0.00045796005734557104  0.9999969181594474  1.0000
  Cu  Cu12      1.0  0.003162623593786553  0.0053612677608478815  9.778407018599354e-05  1.0000
  Cu  Cu13      1.0  0.006932465504053753  0.0079684888577618  0.9999560265131943  1.0000
  Cu  Cu14      1.0  0.009270833157682797  0.0029501252795640902  0.9998439354910934  1.0000
  Cu  Cu15      1.0  0.004315677581782919  0.0029196102078158123  4.903608287311579e-05  1.0000
  Cu  Cu16      1.0  0.0012638716297479554  0.007704767098365634  0.00011655011228123677  1.0000
  Sn  Sn9       1.0  0.009057036685713334  0.006323865823648538  0.0001384156130588271  1.0000
  Sn  Sn10      1.0  0.0014318895804119798  0.0017889390893257213  3.5941562143429184e-05  1.0000
  Sn  Sn11      1.0  0.006562499707749467  0.0017001253228688669  0.999817401274279  1.0000
  Sn  Sn12      1.0  0.004135611492475249  0.006771295828348088  0.9999249540546491  1.0000
  Sn  Sn13      1.0  0.004479166043156374  0.009200125063040207  0.9997643327854204  1.0000
  Sn  Sn14      1.0  0.007104825460219916  0.004175659120064491  8.863827861883086e-05  1.0000
  Sn  Sn15      1.0  0.0019153284239116438  0.004203380672844907  0.9998733814255228  1.0000
  Sn  Sn16      1.0  0.009338152888238633  0.009442962372144668  0.999982180883463  1.0000
