data_image0
_chemical_formula_structural       CONa16Si16
_chemical_formula_sum              "C1 O1 Na16 Si16"
_cell_length_a       10.356144484940426
_cell_length_b       6.632807731628418
_cell_length_c       106.68107604980469
_cell_angle_alpha    90.0
_cell_angle_beta     85.81896206897692
_cell_angle_gamma    108.67716027055364

_space_group_name_H-M_alt    "P 1"
_space_group_IT_number       1

loop_
  _space_group_symop_operation_xyz
  'x, y, z'

loop_
  _atom_site_type_symbol
  _atom_site_label
  _atom_site_symmetry_multiplicity
  _atom_site_fract_x
  _atom_site_fract_y
  _atom_site_fract_z
  _atom_site_occupancy
  C   C1        1.0  0.0033187022537478944  0.0058747937392818785  0.00013838778548758376  1.0000
  O   O1        1.0  0.0033187022537478944  0.0058747937392818785  0.0002508722593829168  1.0000
  Na  Na1       1.0  0.004520402361193414  0.00630498623496692  0.9993674464450258  1.0000
  Na  Na2       1.0  0.004343631362543345  0.0008677292840857185  0.9999482122339995  1.0000
  Na  Na3       1.0  0.0004795975797757757  0.004284583844258102  0.9992989153461839  1.0000
  Na  Na4       1.0  0.0009597669015127098  0.009682322081084768  0.9998499205423321  1.0000
  Na  Na5       1.0  0.005479597425533981  0.008665950339696556  0.9990123832417396  1.0000
  Na  Na6       1.0  0.005479597425533981  0.0036659502498331865  0.9995854477936295  1.0000
  Na  Na7       1.0  0.009520402254557112  0.0006863525744813829  0.9990809140608856  1.0000
  Na  Na8       1.0  0.009520402254557112  0.0056863526643447515  0.9996539783334165  1.0000
  Na  Na9       1.0  0.0014183357548304906  0.007305973196011082  0.9989928520748019  1.0000
  Na  Na10      1.0  0.0014183357548304906  0.0023059729657361992  0.9995659163473327  1.0000
  Na  Na11      1.0  0.003581664328955176  0.0033876371123870287  0.9991004454428661  1.0000
  Na  Na12      1.0  0.003581664328955176  0.008387636921427369  0.999673509715397  1.0000
  Na  Na13      1.0  0.008581663841474936  0.0076649632834414096  0.9993869773339522  1.0000
  Na  Na14      1.0  0.008713109079748453  0.0024402016304110674  0.9999237226444848  1.0000
  Na  Na15      1.0  0.006418335457772219  0.0015832992825497102  0.9992793845232583  1.0000
  Na  Na16      1.0  0.006178615907226076  0.00668919547567809  0.9998335767905032  1.0000
  Si  Si1       1.0  0.0014228586574321336  0.0003176780242369387  0.9992825176169409  1.0000
  Si  Si2       1.0  0.0014758014869804754  0.005363423606762187  0.9998708529628035  1.0000
  Si  Si3       1.0  0.003577141426353533  0.0013948194086976385  0.999383844173258  1.0000
  Si  Si4       1.0  0.003454978116524547  0.005942931670670205  0.9999755470093582  1.0000
  Si  Si5       1.0  0.008577140938873294  0.004653258275488815  0.9990973117918133  1.0000
  Si  Si6       1.0  0.008577140938873294  0.0096532580143234  0.9996703760643441  1.0000
  Si  Si7       1.0  0.006422858360373863  0.0035761169862391  0.9989959857928664  1.0000
  Si  Si8       1.0  0.006422858360373863  0.008576116725073685  0.9995690500653973  1.0000
  Si  Si9       1.0  0.003128368450373927  0.008623748263117645  0.9992266141323827  1.0000
  Si  Si10      1.0  0.0032525926971706453  0.0037608559115448934  0.9997984142372859  1.0000
  Si  Si11      1.0  0.0018716316334117398  0.007995379854636551  0.9994397476578162  1.0000
  Si  Si12      1.0  0.0018716316334117398  0.0029953800455962097  0.9988666831059263  1.0000
  Si  Si13      1.0  0.006871631907619375  0.006347188316355758  0.9991532152709804  1.0000
  Si  Si14      1.0  0.006825862083211708  0.0013277956294608124  0.9997255553294208  1.0000
  Si  Si15      1.0  0.008128368153315656  0.006975556439203897  0.9989400820289492  1.0000
  Si  Si16      1.0  0.008128368153315656  0.0019755563493405286  0.9995131465808391  1.0000
