data_image0
_chemical_formula_structural       COAs4Rh8As4Rh8
_chemical_formula_sum              "C1 O1 As8 Rh16"
_cell_length_a       8.164048194885254
_cell_length_b       5.772853851318359
_cell_length_c       102.65618896484375
_cell_angle_alpha    90.0
_cell_angle_beta     90.0
_cell_angle_gamma    90.0

_space_group_name_H-M_alt    "P 1"
_space_group_IT_number       1

loop_
  _space_group_symop_operation_xyz
  'x, y, z'

loop_
  _atom_site_type_symbol
  _atom_site_label
  _atom_site_symmetry_multiplicity
  _atom_site_fract_x
  _atom_site_fract_y
  _atom_site_fract_z
  _atom_site_occupancy
  C   C1        1.0  0.00125  0.009999997702690246  0.0001607707150656482  1.0000
  O   O1        1.0  0.00125  0.009999997702690246  0.0002776654180061584  1.0000
  As  As1       1.0  0.00125  2.819999995410296e-08  0.9998000209089661  1.0000
  As  As2       1.0  0.00125  2.1999999462257765e-09  0.99940377930098  1.0000
  As  As3       1.0  0.00375  0.0049999959474423435  0.0  1.0000
  As  As4       1.0  0.00375  0.005000002077903767  0.9996025994665543  1.0000
  Rh  Rh1       1.0  0.00125  0.007497973772796747  0.9999920466127531  1.0000
  Rh  Rh2       1.0  0.00125  0.007500001987560125  0.9996025994665543  1.0000
  Rh  Rh3       1.0  0.00125  0.0025020213486465844  0.999992047193377  1.0000
  Rh  Rh4       1.0  0.00125  0.0025000021682474085  0.9996025994665543  1.0000
  Rh  Rh5       1.0  0.00375  0.0025000021682474085  0.99940377930098  1.0000
  Rh  Rh6       1.0  0.00375  0.002511218170076418  0.9997999134935303  1.0000
  Rh  Rh7       1.0  0.00375  0.007500001987560125  0.99940377930098  1.0000
  Rh  Rh8       1.0  0.00375  0.007488812282184061  0.9997999140741543  1.0000
  As  As5       1.0  0.00625  2.819999995410296e-08  0.9998000209089661  1.0000
  As  As6       1.0  0.00625  2.1999999462257765e-09  0.99940377930098  1.0000
  As  As7       1.0  0.008749999999999999  0.0049999959474423435  0.0  1.0000
  As  As8       1.0  0.008749999999999999  0.005000002077903767  0.9996025994665543  1.0000
  Rh  Rh9       1.0  0.00625  0.007497973772796747  0.9999920466127531  1.0000
  Rh  Rh10      1.0  0.00625  0.007500001987560125  0.9996025994665543  1.0000
  Rh  Rh11      1.0  0.00625  0.0025020213486465844  0.999992047193377  1.0000
  Rh  Rh12      1.0  0.00625  0.0025000021682474085  0.9996025994665543  1.0000
  Rh  Rh13      1.0  0.008749999999999999  0.0025000021682474085  0.99940377930098  1.0000
  Rh  Rh14      1.0  0.008749999999999999  0.002511218170076418  0.9997999134935303  1.0000
  Rh  Rh15      1.0  0.008749999999999999  0.007500001987560125  0.99940377930098  1.0000
  Rh  Rh16      1.0  0.008749999999999999  0.007488812282184061  0.9997999140741543  1.0000
