data_image0
_chemical_formula_structural       HCo6W2Co6W2Co6W2Co6W2
_chemical_formula_sum              "H1 Co24 W8"
_cell_length_a       5.127372108840037
_cell_length_b       8.2128324508667
_cell_length_c       105.89160919189453
_cell_angle_alpha    90.0
_cell_angle_beta     120.00000100659109
_cell_angle_gamma    90.0

_space_group_name_H-M_alt    "P 1"
_space_group_IT_number       1

loop_
  _space_group_symop_operation_xyz
  'x, y, z'

loop_
  _atom_site_type_symbol
  _atom_site_label
  _atom_site_symmetry_multiplicity
  _atom_site_fract_x
  _atom_site_fract_y
  _atom_site_fract_z
  _atom_site_occupancy
  H   H1        1.0  0.005195377191222846  0.003750000072575016  0.00012578254839577991  1.0000
  Co  Co1       1.0  0.006750778271233876  0.0012499998729937217  0.9995903903212543  1.0000
  Co  Co2       1.0  0.008369851253175114  0.0037499998457780907  0.9992629751925364  1.0000
  Co  Co3       1.0  0.008369851253175114  0.0037499998457780907  0.9995119934673388  1.0000
  Co  Co4       1.0  0.0016079970954102365  0.0012499998729937217  0.9993413721506819  1.0000
  Co  Co5       1.0  0.0016079970954102365  0.0012499998729937217  0.9995903904254844  1.0000
  Co  Co6       1.0  0.003227070182219881  0.0037499998457780907  0.9992629752993053  1.0000
  W   W1        1.0  0.0066555908961900365  0.0012499998729937217  0.9993459814135407  1.0000
  W   W2        1.0  0.0033222575572637207  0.0037499998457780907  0.9995073842070189  1.0000
  Co  Co7       1.0  0.006659795699832887  0.0012499999863921844  6.78983399101173e-05  1.0000
  Co  Co8       1.0  0.008369851253175114  0.0037499998457780907  0.9997471847892055  1.0000
  Co  Co9       1.0  0.008439131517506051  0.0037500002993719416  2.919024186946126e-06  1.0000
  Co  Co10      1.0  0.0015728632427851074  0.0012499998729937217  0.9998221486303764  1.0000
  Co  Co11      1.0  0.0015608692333517428  0.0012499999863921844  6.79351765316603e-05  1.0000
  Co  Co12      1.0  0.003227070182219881  0.0037499998457780907  0.9997471848959745  1.0000
  W   W3        1.0  0.006746656523369286  0.0012499999863921844  0.999839056916196  1.0000
  W   W4        1.0  0.0032450603574226728  0.003750000072575016  0.9999841283531448  1.0000
  Co  Co13      1.0  0.006750778271233876  0.00624999981856246  0.9995903903212543  1.0000
  Co  Co14      1.0  0.008369851253175114  0.008749999564549903  0.9992629751925364  1.0000
  Co  Co15      1.0  0.008369851253175114  0.008749999564549903  0.9995119934673388  1.0000
  Co  Co16      1.0  0.0016079970954102365  0.00624999981856246  0.9993413721506819  1.0000
  Co  Co17      1.0  0.0016079970954102365  0.00624999981856246  0.9995903904254844  1.0000
  Co  Co18      1.0  0.003227070182219881  0.008749999564549903  0.9992629752993053  1.0000
  W   W5        1.0  0.0066555908961900365  0.00624999981856246  0.9993459814135407  1.0000
  W   W6        1.0  0.0033222575572637207  0.008749999564549903  0.9995073842070189  1.0000
  Co  Co19      1.0  0.006659795699832887  0.006250000272156311  6.78983399101173e-05  1.0000
  Co  Co20      1.0  0.008369851253175114  0.008749999564549903  0.9997471847892055  1.0000
  Co  Co21      1.0  0.008439131517506051  0.008750000471737605  2.919024186946126e-06  1.0000
  Co  Co22      1.0  0.0015728632427851074  0.00624999981856246  0.9998221486303764  1.0000
  Co  Co23      1.0  0.0015608692333517428  0.006250000272156311  6.79351765316603e-05  1.0000
  Co  Co24      1.0  0.003227070182219881  0.008749999564549903  0.9997471848959745  1.0000
  W   W7        1.0  0.006746656523369286  0.006250000272156311  0.999839056916196  1.0000
  W   W8        1.0  0.0032450603574226728  0.008750000471737605  0.9999841283531448  1.0000
