data_image0
_chemical_formula_structural       COCa4Ge8Pd8
_chemical_formula_sum              "C1 O1 Ca4 Ge8 Pd8"
_cell_length_a       5.993732452392578
_cell_length_b       5.9937324111454835
_cell_length_c       107.37619018554688
_cell_angle_alpha    90.0
_cell_angle_beta     90.0
_cell_angle_gamma    117.38156468670175

_space_group_name_H-M_alt    "P 1"
_space_group_IT_number       1

loop_
  _space_group_symop_operation_xyz
  'x, y, z'

loop_
  _atom_site_type_symbol
  _atom_site_label
  _atom_site_symmetry_multiplicity
  _atom_site_fract_x
  _atom_site_fract_y
  _atom_site_fract_z
  _atom_site_occupancy
  C   C1        1.0  0.003333334593638531  0.003333333375330399  0.0001567916454810469  1.0000
  O   O1        1.0  0.003333334593638531  0.003333333375330399  0.00026854793608247597  1.0000
  Ca  Ca1       1.0  0.00500000315303554  0.0050000012879100235  0.9991305079043914  1.0000
  Ca  Ca2       1.0  3.2499999838228215e-09  1.4499999797338181e-09  0.9994205798868866  1.0000
  Ca  Ca3       1.0  0.00500000315303554  0.0050000012879100235  0.9997106518693817  1.0000
  Ca  Ca4       1.0  0.009999996294664302  0.009999998376113447  0.9999864538670636  1.0000
  Ge  Ge1       1.0  0.001245840313039521  0.008754164513057123  0.9991305079043914  1.0000
  Ge  Ge2       1.0  0.006245840104142659  0.003754164275073749  0.9994205798868866  1.0000
  Ge  Ge3       1.0  0.00375416628519574  0.006245838650721847  0.9994205798868866  1.0000
  Ge  Ge4       1.0  0.008754165843224767  0.0012458384127384738  0.9991305079043914  1.0000
  Ge  Ge5       1.0  0.001245840313039521  0.008754164513057123  0.9997106518693817  1.0000
  Ge  Ge6       1.0  0.006202657013232598  0.00379734565831868  0.0  1.0000
  Ge  Ge7       1.0  0.0037973501307157105  0.0062026558675747166  0.0  1.0000
  Ge  Ge8       1.0  0.008754165843224767  0.0012458384127384738  0.9997106518693817  1.0000
  Pd  Pd1       1.0  3.165466159178662e-09  0.0050000012879100235  0.9989854719131439  1.0000
  Pd  Pd2       1.0  0.005000003140568661  1.4499999797338181e-09  0.999275543895639  1.0000
  Pd  Pd3       1.0  0.005000003140568661  1.4499999797338181e-09  0.9989854719131439  1.0000
  Pd  Pd4       1.0  3.165466159178662e-09  0.0050000012879100235  0.999275543895639  1.0000
  Pd  Pd5       1.0  3.165466159178662e-09  0.0050000012879100235  0.9995656161556846  1.0000
  Pd  Pd6       1.0  0.0050000035433169394  1.649999930902249e-09  0.9998596349072318  1.0000
  Pd  Pd7       1.0  0.005000003140568661  1.4499999797338181e-09  0.9995656161556846  1.0000
  Pd  Pd8       1.0  4.73602141001769e-09  0.005000002337836673  0.999859635462333  1.0000
