data_image0
_chemical_formula_structural       HIn6Rh12Zn6
_chemical_formula_sum              "H1 In6 Rh12 Zn6"
_cell_length_a       6.314351558685303
_cell_length_b       7.733469816297458
_cell_length_c       104.00382232666016
_cell_angle_alpha    94.34775316582683
_cell_angle_beta     90.0
_cell_angle_gamma    65.90515787409525

_space_group_name_H-M_alt    "P 1"
_space_group_IT_number       1

loop_
  _space_group_symop_operation_xyz
  'x, y, z'

loop_
  _atom_site_type_symbol
  _atom_site_label
  _atom_site_symmetry_multiplicity
  _atom_site_fract_x
  _atom_site_fract_y
  _atom_site_fract_z
  _atom_site_occupancy
  H   H1        1.0  0.0070694581633792926  0.006277749710604669  0.00017894955420608009  1.0000
  In  In1       1.0  0.004895833135352226  0.0006250000026475801  0.9996934866517576  1.0000
  In  In2       1.0  0.0007291666606351168  0.0089583329520818  0.9999659431552833  1.0000
  In  In3       1.0  0.009062499669462813  0.002291666698437628  0.9994210300086879  1.0000
  In  In4       1.0  0.0019791665335512723  0.006458333206249489  0.9995572582606372  1.0000
  In  In5       1.0  0.007812499664167653  0.004791666709027948  0.9998297146182761  1.0000
  In  In6       1.0  0.006145833166946113  0.008124999703471029  0.9992848019029985  1.0000
  Rh  Rh1       1.0  0.00510416670599813  0.005208333333333333  0.9993529160998645  1.0000
  Rh  Rh2       1.0  0.0009374999099963202  0.003541666571353783  0.9996253727425611  1.0000
  Rh  Rh3       1.0  0.006770833401788178  0.001874999941753238  0.9998978290994538  1.0000
  Rh  Rh4       1.0  0.0017708335197825676  0.001874999941753238  0.9998978290994538  1.0000
  Rh  Rh5       1.0  0.0001041665290065455  0.005208333333333333  0.9993529160998645  1.0000
  Rh  Rh6       1.0  0.005937500086987905  0.003541666571353783  0.9996253727425611  1.0000
  Rh  Rh7       1.0  0.009687499963698354  0.006041666581944103  3.405706559914269e-05  1.0000
  Rh  Rh8       1.0  0.008020833466476814  0.009374999576387185  0.9994891440637712  1.0000
  Rh  Rh9       1.0  0.0038541668330819745  0.007708333079165644  0.9997616007079603  1.0000
  Rh  Rh10      1.0  0.008854166715087585  0.007708333079165644  0.9997616007079603  1.0000
  Rh  Rh11      1.0  0.004687500081692744  0.006041666581944103  3.405706559914269e-05  1.0000
  Rh  Rh12      1.0  0.003020833584471204  0.009374999576387185  0.9994891440637712  1.0000
  Zn  Zn1       1.0  0.0069791664155568825  0.006458333206249489  0.9995572582606372  1.0000
  Zn  Zn2       1.0  0.002812499782162043  0.004791666709027948  0.9998297146182761  1.0000
  Zn  Zn3       1.0  0.0011458332849405024  0.008124999703471029  0.9992848019029985  1.0000
  Zn  Zn4       1.0  0.009895833017357837  0.0006250000026475801  0.9996934866517576  1.0000
  Zn  Zn5       1.0  0.005729166542640727  0.0089583329520818  0.9999659431552833  1.0000
  Zn  Zn6       1.0  0.0040624997874572025  0.002291666698437628  0.9994210300086879  1.0000
