data_image0
_chemical_formula_structural       HAl4Ni8Al4Ni8
_chemical_formula_sum              "H1 Al8 Ni16"
_cell_length_a       6.445935636033684
_cell_length_b       7.034275531768799
_cell_length_c       102.48992919921875
_cell_angle_alpha    90.0
_cell_angle_beta     71.63777342637003
_cell_angle_gamma    56.931829382764626

_space_group_name_H-M_alt    "P 1"
_space_group_IT_number       1

loop_
  _space_group_symop_operation_xyz
  'x, y, z'

loop_
  _atom_site_type_symbol
  _atom_site_label
  _atom_site_symmetry_multiplicity
  _atom_site_fract_x
  _atom_site_fract_y
  _atom_site_fract_z
  _atom_site_occupancy
  H   H1        1.0  0.0062188466978541634  0.006910157967299355  0.9999846038203958  1.0000
  Al  Al1       1.0  0.0006138293557074043  0.008045999759869594  0.99959158080775  1.0000
  Al  Al2       1.0  0.0006138293557074043  0.003045999653951358  0.9997897098312554  1.0000
  Al  Al3       1.0  0.004425332657526976  0.00447358123045667  0.9997141929771932  1.0000
  Al  Al4       1.0  0.004425332657526976  0.009473581865966089  0.9999123214191327  1.0000
  Ni  Ni1       1.0  0.005652991368941785  0.0005264186473341682  0.9996898695235827  1.0000
  Ni  Ni2       1.0  0.005652991368941785  0.005526418753252406  0.9998879979655222  1.0000
  Ni  Ni3       1.0  0.009386171023844252  0.001993162047298031  0.9996159044864669  1.0000
  Ni  Ni4       1.0  0.009386171023844252  0.006993162682807451  0.9998140329284062  1.0000
  Ni  Ni5       1.0  0.0075195813824477506  0.001259790519084325  0.9998510154432779  1.0000
  Ni  Ni6       1.0  0.0075195813824477506  0.006259790625002561  0.9996528870013385  1.0000
  Ni  Ni7       1.0  0.0025195810996445564  0.003759790660485922  0.9995538223788758  1.0000
  Ni  Ni8       1.0  0.0025195810996445564  0.008759790766404159  0.9997519514023812  1.0000
  Al  Al5       1.0  0.0006138293557074043  0.008045999759869594  0.9991953233423053  1.0000
  Al  Al6       1.0  0.0006138293557074043  0.003045999653951358  0.9993934520750276  1.0000
  Al  Al7       1.0  0.004425332657526976  0.00447358123045667  0.9993179352209656  1.0000
  Al  Al8       1.0  0.004425332657526976  0.009473581865966089  0.999516063953688  1.0000
  Ni  Ni9       1.0  0.005652991368941785  0.0005264186473341682  0.9992936117673551  1.0000
  Ni  Ni10      1.0  0.005652991368941785  0.005526418753252406  0.9994917405000775  1.0000
  Ni  Ni11      1.0  0.009386171023844252  0.001993162047298031  0.9992196467302391  1.0000
  Ni  Ni12      1.0  0.009386171023844252  0.006993162682807451  0.9994177754629615  1.0000
  Ni  Ni13      1.0  0.0075195813824477506  0.001259790519084325  0.9994547579778332  1.0000
  Ni  Ni14      1.0  0.0075195813824477506  0.006259790625002561  0.9992566292451108  1.0000
  Ni  Ni15      1.0  0.0025195810996445564  0.003759790660485922  0.9991575649134311  1.0000
  Ni  Ni16      1.0  0.0025195810996445564  0.008759790766404159  0.9993556936461535  1.0000
