data_image0
_chemical_formula_structural       COGa32Os16
_chemical_formula_sum              "C1 O1 Ga32 Os16"
_cell_length_a       4.832094069363849
_cell_length_b       12.148431958156824
_cell_length_c       106.44529724121094
_cell_angle_alpha    93.28879268341558
_cell_angle_beta     89.76157134097333
_cell_angle_gamma    89.76157130562996

_space_group_name_H-M_alt    "P 1"
_space_group_IT_number       1

loop_
  _space_group_symop_operation_xyz
  'x, y, z'

loop_
  _atom_site_type_symbol
  _atom_site_label
  _atom_site_symmetry_multiplicity
  _atom_site_fract_x
  _atom_site_fract_y
  _atom_site_fract_z
  _atom_site_occupancy
  C   C1        1.0  0.009166947241338867  0.0034363395989298485  0.00011833913008520254  1.0000
  O   O1        1.0  0.009166947241338867  0.0034363395989298485  0.00023107275970584896  1.0000
  Ga  Ga1       1.0  0.008398049240274328  0.009380896056725518  0.9991096783854753  1.0000
  Ga  Ga2       1.0  0.0034786056715940773  0.0069787920010464365  0.9999667853992966  1.0000
  Ga  Ga3       1.0  0.0033980492752390947  0.0018808960321529842  0.9993949995273881  1.0000
  Ga  Ga4       1.0  0.008398048895791503  0.00438089583557271  0.9996803204493454  1.0000
  Ga  Ga5       1.0  0.0033508815879321916  0.008539701420905809  0.9990136741844502  1.0000
  Ga  Ga6       1.0  0.008219177941658778  0.006004443716747955  0.9998693424529722  1.0000
  Ga  Ga7       1.0  0.00835088128367717  0.0010397013963332747  0.9992989952867052  1.0000
  Ga  Ga8       1.0  0.0033508816255284767  0.003539701506909679  0.9995843165302369  1.0000
  Ga  Ga9       1.0  0.0058508816958657605  0.008539701420905809  0.9992989951623293  1.0000
  Ga  Ga10      1.0  0.0008508815934670616  0.006039701617486083  0.9990136742404632  1.0000
  Ga  Ga11      1.0  0.0008508816344612687  0.0010397013963332747  0.9995843163042604  1.0000
  Ga  Ga12      1.0  0.005793487801811677  0.0034894079796336545  0.9998767404302087  1.0000
  Ga  Ga13      1.0  0.0058980493421784555  0.006880896253305792  0.99910967844147  1.0000
  Ga  Ga14      1.0  0.000921695888734094  0.004345332928253468  0.9999748814044747  1.0000
  Ga  Ga15      1.0  0.0008980493019506527  0.009380896056725518  0.9993949994030851  1.0000
  Ga  Ga16      1.0  0.0058980493831726636  0.0018808960321529842  0.9996803202252895  1.0000
  Ga  Ga17      1.0  0.005898049429998123  0.008130896155015655  0.9995376600401457  1.0000
  Ga  Ga18      1.0  0.000898049334395269  0.005630895737282574  0.9992523388342782  1.0000
  Ga  Ga19      1.0  0.0009341074556168346  0.000675891358604409  0.9998279474018246  1.0000
  Ga  Ga20      1.0  0.005898049085515299  0.003130895933862847  0.9989670178727178  1.0000
  Ga  Ga21      1.0  0.00585088143580468  0.004789701408619542  0.9991563348755665  1.0000
  Ga  Ga22      1.0  0.0008330528729417048  0.0022284132510614744  1.4432952674126696e-05  1.0000
  Ga  Ga23      1.0  0.0008508816812867288  0.007289701519195946  0.9994416555591609  1.0000
  Ga  Ga24      1.0  0.0058508813982083956  0.009789701322615672  0.9997269770410555  1.0000
  Ga  Ga25      1.0  0.0033508815001125243  0.007289701519195946  0.9997269768170725  1.0000
  Ga  Ga26      1.0  0.00835088192921528  0.004789701408619542  0.9994416555733951  1.0000
  Ga  Ga27      1.0  0.008234205651432876  0.009760540481933054  1.0321874964902023e-05  1.0000
  Ga  Ga28      1.0  0.003350881541106731  0.002289701298043138  0.9991563346495718  1.0000
  Ga  Ga29      1.0  0.003398049153221064  0.005630895737282574  0.999537659812212  1.0000
  Ga  Ga30      1.0  0.008398049193448867  0.003130895933862847  0.9992523388505969  1.0000
  Ga  Ga31      1.0  0.008418151837778599  0.008170997916563626  0.999833882019968  1.0000
  Ga  Ga32      1.0  0.003398049189543129  0.0006308959384701974  0.9989670179274552  1.0000
  Os  Os1       1.0  0.008374465437615082  0.007710298529949123  0.9989190158021435  1.0000
  Os  Os2       1.0  0.0034450777893800383  0.005197135834256409  0.9997760431775876  1.0000
  Os  Os3       1.0  0.0033744654708808886  0.00021029865895492737  0.9992043369450622  1.0000
  Os  Os4       1.0  0.008374465089734337  0.0027102986159529925  0.9994896578680252  1.0000
  Os  Os5       1.0  0.0008744654029221503  0.007710298529949123  0.9992043368197715  1.0000
  Os  Os6       1.0  0.005874465539519211  0.005210298726529397  0.9989190158581382  1.0000
  Os  Os7       1.0  0.005874465193337426  0.00021029865895492737  0.9994896576430363  1.0000
  Os  Os8       1.0  0.0009189059070328891  0.002693731813375967  0.9997633526927443  1.0000
  Os  Os9       1.0  0.005874465241861847  0.00646029862823926  0.9993469974568867  1.0000
  Os  Os10      1.0  0.0008744654285709225  0.003960298824819533  0.999061676254988  1.0000
  Os  Os11      1.0  0.0008744653943725597  0.008960298431658987  0.9996323181384874  1.0000
  Os  Os12      1.0  0.005908672316913006  0.0014550546282820355  0.9999105141668836  1.0000
  Os  Os13      1.0  0.008374464964318385  0.00646029862823926  0.9996323181548609  1.0000
  Os  Os14      1.0  0.0033744653437659754  0.003960298824819533  0.9993469972329037  1.0000
  Os  Os15      1.0  0.0033289614266068606  0.008946800738607132  0.9999085527309459  1.0000
  Os  Os16      1.0  0.0083744653873917  0.0014602987142431293  0.9990616762692769  1.0000
