data_image0
_chemical_formula_structural       COAu8Ca8
_chemical_formula_sum              "C1 O1 Au8 Ca8"
_cell_length_a       5.964719958849221
_cell_length_b       6.234053265901626
_cell_length_c       105.77003479003906
_cell_angle_alpha    86.87433116596539
_cell_angle_beta     86.45395534425738
_cell_angle_gamma    77.13398339379573

_space_group_name_H-M_alt    "P 1"
_space_group_IT_number       1

loop_
  _space_group_symop_operation_xyz
  'x, y, z'

loop_
  _atom_site_type_symbol
  _atom_site_label
  _atom_site_symmetry_multiplicity
  _atom_site_fract_x
  _atom_site_fract_y
  _atom_site_fract_z
  _atom_site_occupancy
  C   C1        1.0  0.007883331734220041  0.009864505057428986  4.1095487877109336e-05  1.0000
  O   O1        1.0  0.007883331734220041  0.009864505057428986  0.0001545488372862408  1.0000
  Au  Au1       1.0  0.0035672512510325064  0.004905210114606683  0.9990990108465813  1.0000
  Au  Au2       1.0  0.001900584498894482  0.0007385433661401741  0.9993808329546165  1.0000
  Au  Au3       1.0  0.009766082446802559  0.008496384916535892  0.9991943001205915  1.0000
  Au  Au4       1.0  0.001432748882774395  0.0026630514073328992  0.9989124775918391  1.0000
  Au  Au5       1.0  0.000233917977062112  0.006571876568593761  0.9996626556593488  1.0000
  Au  Au6       1.0  0.008328036138826581  0.002604852456088013  0.9999326409585474  1.0000
  Au  Au7       1.0  0.0063194415760996  0.00013549515231092046  0.9997541717613263  1.0000
  Au  Au8       1.0  0.008099416007540612  0.004329718168069384  0.9994761222275356  1.0000
  Ca  Ca1       1.0  0.008694736232430594  0.003739872803340512  0.9991778312006023  1.0000
  Ca  Ca2       1.0  0.0003614026716925414  0.00790653955180702  0.9988960087048221  1.0000
  Ca  Ca3       1.0  0.004638597011373387  0.009661722841300874  0.9991154797661824  1.0000
  Ca  Ca4       1.0  0.0029719305721114396  0.005495056092834366  0.9993973021548919  1.0000
  Ca  Ca5       1.0  0.0053568363320274735  0.005356255054248608  0.9997316759527247  1.0000
  Ca  Ca6       1.0  0.007028069554160185  0.009573206005794099  0.9994596536241148  1.0000
  Ca  Ca7       1.0  0.001229458199792784  0.001357867962255747  0.9996844474197477  1.0000
  Ca  Ca8       1.0  0.009459424854419952  0.007211576073734823  0.9999438296514753  1.0000
