data_image0
_chemical_formula_structural       HAl36Ni12
_chemical_formula_sum              "H1 Al36 Ni12"
_cell_length_a       16.234872526297718
_cell_length_b       4.879164695739746
_cell_length_c       109.82232666015625
_cell_angle_alpha    90.0
_cell_angle_beta     113.84641114125823
_cell_angle_gamma    90.0

_space_group_name_H-M_alt    "P 1"
_space_group_IT_number       1

loop_
  _space_group_symop_operation_xyz
  'x, y, z'

loop_
  _atom_site_type_symbol
  _atom_site_label
  _atom_site_symmetry_multiplicity
  _atom_site_fract_x
  _atom_site_fract_y
  _atom_site_fract_z
  _atom_site_occupancy
  H   H1        1.0  0.0019636447402092733  0.00951223326019927  0.0002281603461601161  1.0000
  Al  Al1       1.0  0.0058618908163866916  0.005774381083646475  0.9998489470233791  1.0000
  Al  Al2       1.0  0.002528557787453427  0.005774381083646475  0.00015111937799071974  1.0000
  Al  Al3       1.0  0.009195224597957487  0.005774381083646475  0.9995467744423804  1.0000
  Al  Al4       1.0  0.0057533835653121425  0.0013155506608635847  6.423485576486393e-06  1.0000
  Al  Al5       1.0  0.0024200502854997002  0.0013155506608635847  0.9994020786965347  1.0000
  Al  Al6       1.0  0.009086716343366231  0.0013155506608635847  0.999704251115971  1.0000
  Al  Al7       1.0  0.007056166517043663  0.0013155506608635847  0.9998883237348773  1.0000
  Al  Al8       1.0  0.003722833488110398  0.0013155506608635847  0.00019049608948900097  1.0000
  Al  Al9       1.0  0.0003895000828583675  0.0013155506608635847  0.999586151564319  1.0000
  Al  Al10      1.0  0.005913282914031404  0.006315550756302316  0.00013437362178826088  1.0000
  Al  Al11      1.0  0.0025799498850981395  0.006315550756302316  0.9995300291191089  1.0000
  Al  Al12      1.0  0.0092466166956022  0.006315550756302316  0.9998322013121581  1.0000
  Al  Al13      1.0  0.007420050205218363  0.003536698635333037  0.9994020786157536  1.0000
  Al  Al14      1.0  0.004086716674526744  0.003536698635333037  0.9997042509403776  1.0000
  Al  Al15      1.0  0.0007533835201538909  0.003536698635333037  6.423287492265989e-06  1.0000
  Al  Al16      1.0  0.006277166602206105  0.008536698253578112  0.9996481285026645  1.0000
  Al  Al17      1.0  0.002943833071514486  0.008536698253578112  0.9999503008272884  1.0000
  Al  Al18      1.0  0.009610499882018547  0.008536698253578112  0.0002524735630746616  1.0000
  Al  Al19      1.0  0.008722833156949885  0.003536698635333037  0.00019049626508251222  1.0000
  Al  Al20      1.0  0.005389499877137442  0.003536698635333037  0.9995861514760408  1.0000
  Al  Al21      1.0  0.0020561667227645885  0.003536698635333037  0.999888324094524  1.0000
  Al  Al22      1.0  0.007579949553937626  0.008536698253578112  0.9995300290233339  1.0000
  Al  Al23      1.0  0.004246616274125183  0.008536698253578112  0.9998322010915831  1.0000
  Al  Al24      1.0  0.0009132831824721243  0.008536698253578112  0.00013437398518334064  1.0000
  Al  Al25      1.0  0.0046104999622998835  0.006315550756302316  0.0002524733724873443  1.0000
  Al  Al26      1.0  0.0012771665570478535  0.006315550756302316  0.9996481283045803  1.0000
  Al  Al27      1.0  0.007943833242112326  0.006315550756302316  0.9999503010328695  1.0000
  Al  Al28      1.0  0.007528557958051267  0.009077867926233954  0.00015111958357184318  1.0000
  Al  Al29      1.0  0.004195224427359648  0.009077867926233954  0.9995467745081679  1.0000
  Al  Al30      1.0  0.0008618910848274117  0.009077867926233954  0.9998489468440371  1.0000
  Al  Al31      1.0  0.007471442302863076  0.004077867926233954  0.9996875054855312  1.0000
  Al  Al32      1.0  0.004138108772171457  0.004077867926233954  0.9999896780815237  1.0000
  Al  Al33      1.0  0.0008047756177986035  0.004077867926233954  0.9993853330286104  1.0000
  Al  Al34      1.0  0.005804775662956855  0.0007743811790852053  0.9993853332266946  1.0000
  Al  Al35      1.0  0.002471442132265236  0.0007743811790852053  0.9996875055513187  1.0000
  Al  Al36      1.0  0.009138108441010944  0.0007743811790852053  0.9999896777143802  1.0000
  Ni  Ni1       1.0  0.008737515609903095  0.00048776716927501995  0.9994637902526405  1.0000
  Ni  Ni2       1.0  0.005404182330090652  0.00048776716927501995  0.9997659625922584  1.0000
  Ni  Ni3       1.0  0.002070848799399033  0.00048776716927501995  6.813491688232742e-05  1.0000
  Ni  Ni4       1.0  0.007070848969996873  0.004364481888324774  6.813512246345086e-05  1.0000
  Ni  Ni5       1.0  0.003737515439305254  0.004364481888324774  0.9994637903184279  1.0000
  Ni  Ni6       1.0  0.0004041821908527091  0.004364481888324774  0.9997659629312885  1.0000
  Ni  Ni7       1.0  0.004595818011105028  0.009364481888324774  7.266201488890858e-05  1.0000
  Ni  Ni8       1.0  0.001262484480413409  0.009364481888324774  0.999468317482222  1.0000
  Ni  Ni9       1.0  0.00792915129091747  0.009364481888324774  0.9997704896752712  1.0000
  Ni  Ni10      1.0  0.006262484651011249  0.005487767121555655  0.9994683174164345  1.0000
  Ni  Ni11      1.0  0.0029291511203196298  0.005487767121555655  0.9997704894696899  1.0000
  Ni  Ni12      1.0  0.009595817429065337  0.005487767121555655  7.26621754886137e-05  1.0000
