data_image0
_chemical_formula_structural       COPt6Rh18
_chemical_formula_sum              "C1 O1 Pt6 Rh18"
_cell_length_a       4.750413197138159
_cell_length_b       7.264584265386795
_cell_length_c       100.59547424316406
_cell_angle_alpha    86.14966302497639
_cell_angle_beta     89.92952060547591
_cell_angle_gamma    89.85158452129305

_space_group_name_H-M_alt    "P 1"
_space_group_IT_number       1

loop_
  _space_group_symop_operation_xyz
  'x, y, z'

loop_
  _atom_site_type_symbol
  _atom_site_label
  _atom_site_symmetry_multiplicity
  _atom_site_fract_x
  _atom_site_fract_y
  _atom_site_fract_z
  _atom_site_occupancy
  C   C1        1.0  0.002496140503264502  0.0041450969637384346  2.8569270732351184e-05  1.0000
  O   O1        1.0  0.002496140503264502  0.0041450969637384346  0.0001478585807568103  1.0000
  Pt  Pt1       1.0  0.0008333333832466334  0.009583332757694449  0.999560304565437  1.0000
  Pt  Pt2       1.0  0.004166666495880152  0.0006944443887650882  0.9998982421129179  1.0000
  Pt  Pt3       1.0  0.00749999977058996  0.005138888669597885  0.9997292729323821  1.0000
  Pt  Pt4       1.0  0.0008333333994948541  0.0029166666255496035  0.9990533983410873  1.0000
  Pt  Pt5       1.0  0.004166666585042407  0.004027777647573744  0.9993913357848643  1.0000
  Pt  Pt6       1.0  0.00749999985852032  0.008472222249633597  0.9992223671952889  1.0000
  Rh  Rh1       1.0  0.0025000000142512205  0.004305555531570602  0.9998559997717317  1.0000
  Rh  Rh2       1.0  0.005833333484765654  0.00874999987664881  0.999687031183391  1.0000
  Rh  Rh3       1.0  0.009166666884583464  0.0031944442525648166  0.9995180624052992  1.0000
  Rh  Rh4       1.0  0.005833333440800474  0.007083333086630954  0.9999404840519376  1.0000
  Rh  Rh5       1.0  0.00916666644753076  0.001527777719528605  0.9997715152726224  1.0000
  Rh  Rh6       1.0  0.002500000059201917  0.005972222064606813  0.9996025469044312  1.0000
  Rh  Rh7       1.0  0.007500000117741273  0.003472222136561674  0.999982726392178  1.0000
  Rh  Rh8       1.0  0.0008333333373104216  0.007916666481639882  0.9998137574314913  1.0000
  Rh  Rh9       1.0  0.004166666540091711  0.002361111114537533  0.9996447886521647  1.0000
  Rh  Rh10      1.0  0.0025000001031670964  0.00763888885462467  0.9993490937396254  1.0000
  Rh  Rh11      1.0  0.005833333306933902  0.0020833332305406757  0.9991801249615451  1.0000
  Rh  Rh12      1.0  0.009166666972513823  0.006527777832600529  0.9990111563719469  1.0000
  Rh  Rh13      1.0  0.005833333261983206  0.00041666669750446396  0.9994335781251046  1.0000
  Rh  Rh14      1.0  0.009166666536446634  0.004861111042582672  0.9992646092405163  1.0000
  Rh  Rh15      1.0  0.0025000001491033083  0.009305555130679237  0.999095640577312  1.0000
  Rh  Rh16      1.0  0.00750000020665715  0.006805555459615742  0.9994758200638127  1.0000
  Rh  Rh17      1.0  0.000833333355036916  0.0012499999640225698  0.9993068515052699  1.0000
  Rh  Rh18      1.0  0.004166666629007587  0.0056944444375916  0.9991378829163177  1.0000
