data_image0
_chemical_formula_structural       Fe8W4H
_chemical_formula_sum              "Fe8 W4 H1"
_cell_length_a       4.663094520568848
_cell_length_b       4.663094430897715
_cell_length_c       38.93058776855469
_cell_angle_alpha    90.0
_cell_angle_beta     90.0
_cell_angle_gamma    120.00000063612207

_space_group_name_H-M_alt    "P 1"
_space_group_IT_number       1

loop_
  _space_group_symop_operation_xyz
  'x, y, z'

loop_
  _atom_site_type_symbol
  _atom_site_label
  _atom_site_symmetry_multiplicity
  _atom_site_fract_x
  _atom_site_fract_y
  _atom_site_fract_z
  _atom_site_occupancy
  Fe  Fe1       1.0  0.0008523280934905021  0.0008382194004455162  0.9985044619672684  1.0000
  Fe  Fe2       1.0  0.0008523280934905021  0.0008382194004455162  0.9995020518968107  1.0000
  Fe  Fe3       1.0  0.002528638005766094  0.009161780456570635  0.0  1.0000
  Fe  Fe4       1.0  0.00426164052642935  0.0025428757177899863  0.9990032571234206  1.0000
  Fe  Fe5       1.0  0.00914767211901746  0.007428907084010948  0.9990032571234206  1.0000
  Fe  Fe6       1.0  0.002528935860825783  0.004191371323658342  0.9999999410546063  1.0000
  Fe  Fe7       1.0  0.007499428271748224  0.009161762929518313  0.9999999800963606  1.0000
  Fe  Fe8       1.0  0.009147672345384607  0.0025428757177899863  0.9990032571234206  1.0000
  W   W1        1.0  0.004185661540632903  0.0075048863945913185  0.9986416236880745  1.0000
  W   W2        1.0  0.007518974111140693  0.004171574979298153  0.999612764360139  1.0000
  W   W3        1.0  0.0075189671230890005  0.004171580975395  0.0002545920452073506  1.0000
  W   W4        1.0  0.004185661540632903  0.0075048863945913185  0.9993648901760045  1.0000
  H   H1        1.0  0.002528638005766094  0.009161780456570635  0.0003853011592124577  1.0000
