data_image0
_chemical_formula_structural       HAu4Pd8Zn4
_chemical_formula_sum              "H1 Au4 Pd8 Zn4"
_cell_length_a       4.510096073150635
_cell_length_b       4.510096073150635
_cell_length_c       108.2694320678711
_cell_angle_alpha    90.0
_cell_angle_beta     90.0
_cell_angle_gamma    90.0

_space_group_name_H-M_alt    "P 1"
_space_group_IT_number       1

loop_
  _space_group_symop_operation_xyz
  'x, y, z'

loop_
  _atom_site_type_symbol
  _atom_site_label
  _atom_site_symmetry_multiplicity
  _atom_site_fract_x
  _atom_site_fract_y
  _atom_site_fract_z
  _atom_site_occupancy
  H   H1        1.0  0.002500000008259891  0.007500000231276954  0.00011383572446966903  1.0000
  Au  Au1       1.0  0.005000000016519782  0.005000000016519782  0.999564365219524  1.0000
  Au  Au2       1.0  0.009999999207050442  0.010000000033039564  0.9998613506221967  1.0000
  Au  Au3       1.0  0.005000000016519782  0.005000000016519782  0.9989752574454106  1.0000
  Au  Au4       1.0  2.499999877601585e-10  4.999999816744156e-11  0.9992698114700976  1.0000
  Pd  Pd1       1.0  0.005000000016519782  4.999999816744156e-11  0.9997116423694978  1.0000
  Pd  Pd2       1.0  2.499999877601585e-10  0.005000000016519782  0.9997116423694978  1.0000
  Pd  Pd3       1.0  1.0499999830556176e-09  0.005000000016519782  0.0  1.0000
  Pd  Pd4       1.0  0.00499999919053066  4.999999816744156e-11  8.202769610877697e-08  1.0000
  Pd  Pd5       1.0  0.005000000016519782  4.999999816744156e-11  0.9991225343201238  1.0000
  Pd  Pd6       1.0  2.499999877601585e-10  0.005000000016519782  0.9991225343201238  1.0000
  Pd  Pd7       1.0  2.499999877601585e-10  0.005000000016519782  0.9994170886200716  1.0000
  Pd  Pd8       1.0  0.005000000016519782  4.999999816744156e-11  0.9994170886200716  1.0000
  Zn  Zn1       1.0  2.499999877601585e-10  4.999999816744156e-11  0.999564365219524  1.0000
  Zn  Zn2       1.0  0.0050000004295143435  0.005000000016519782  0.9998669973207134  1.0000
  Zn  Zn3       1.0  2.499999877601585e-10  4.999999816744156e-11  0.9989752574454106  1.0000
  Zn  Zn4       1.0  0.005000000016519782  0.005000000016519782  0.9992698114700976  1.0000
