data_image0
_chemical_formula_structural       CONa16Ge8Se24
_chemical_formula_sum              "C1 O1 Na16 Ge8 Se24"
_cell_length_a       16.60801887512207
_cell_length_b       11.336506870252263
_cell_length_c       99.72777557373047
_cell_angle_alpha    80.28517960107793
_cell_angle_beta     90.0
_cell_angle_gamma    90.0

_space_group_name_H-M_alt    "P 1"
_space_group_IT_number       1

loop_
  _space_group_symop_operation_xyz
  'x, y, z'

loop_
  _atom_site_type_symbol
  _atom_site_label
  _atom_site_symmetry_multiplicity
  _atom_site_fract_x
  _atom_site_fract_y
  _atom_site_fract_z
  _atom_site_occupancy
  C   C1        1.0  0.00041229740347561295  0.002874988464673362  0.9999448521676979  1.0000
  O   O1        1.0  0.00041229740347561295  0.002874988464673362  6.517997256132894e-05  1.0000
  Na  Na1       1.0  0.0035243175584575618  0.00191056314531151  0.9995768915659103  1.0000
  Na  Na2       1.0  0.003329235982229452  0.0071255466277906155  0.9992264401010146  1.0000
  Na  Na3       1.0  0.007822455629617846  0.00023992975152773067  0.9997619559928452  1.0000
  Na  Na4       1.0  0.008329236296258865  0.005034633984752565  0.9994875887077264  1.0000
  Na  Na5       1.0  0.0066707639729092025  0.007534633984752565  0.9993012829316198  1.0000
  Na  Na6       1.0  0.00698123318955691  0.0027532811003074665  0.9995996240930203  1.0000
  Na  Na7       1.0  0.0018708313492655946  0.009760070540189346  0.999746146586557  1.0000
  Na  Na8       1.0  0.001670764107493237  0.004625546627790616  0.9994127458771213  1.0000
  Na  Na9       1.0  0.009761744269375938  0.0017441793941993177  0.9994680662711035  1.0000
  Na  Na10      1.0  0.00937947716220197  0.006622563045560939  0.9997893907797267  1.0000
  Na  Na11      1.0  0.005328606299422846  0.009077435247477431  0.9997428956762935  1.0000
  Na  Na12      1.0  0.00523825599979213  0.004244179394199318  0.999281760494997  1.0000
  Na  Na13      1.0  0.004761744179653248  0.00041600113499612733  0.9992459624436084  1.0000
  Na  Na14      1.0  0.004741288303692785  0.0055495006203738675  0.9996157177639156  1.0000
  Na  Na15      1.0  0.00023825591006944105  0.007916001218343863  0.9994322683137441  1.0000
  Na  Na16      1.0  0.00041229740347561295  0.0031365559968762604  0.9997686473714739  1.0000
  Ge  Ge1       1.0  0.006701789181683134  0.0013880066808877908  0.9993129153961978  1.0000
  Ge  Ge2       1.0  0.006643946758268986  0.006307497268861393  0.9997002357257295  1.0000
  Ge  Ge3       1.0  0.0017017889798070832  0.0007721738483076542  0.9994011133185142  1.0000
  Ge  Ge4       1.0  0.0019010943637929182  0.005211904950508781  0.9997791646657409  1.0000
  Ge  Ge5       1.0  0.003298210997762244  0.008272174098350862  0.9995874188866156  1.0000
  Ge  Ge6       1.0  0.003298210997762244  0.0032721737649599185  0.9992148075440064  1.0000
  Ge  Ge7       1.0  0.008298211087484934  0.00888800651419232  0.9994992209722929  1.0000
  Ge  Ge8       1.0  0.008489414624769664  0.00374432035189014  0.9999194106261815  1.0000
  Se  Se1       1.0  0.0014705009337978624  0.001989770332313424  0.9995696683223868  1.0000
  Se  Se2       1.0  0.0014705009337978624  0.006989770499008895  0.999197056766976  1.0000
  Se  Se3       1.0  0.006112633665273788  0.0010380641274812287  0.9998538353829488  1.0000
  Se  Se4       1.0  0.006470500687060466  0.005170410446925229  0.9995169720353699  1.0000
  Se  Se5       1.0  0.008529499133494154  0.007670410113534285  0.9993306662656584  1.0000
  Se  Se6       1.0  0.008623446864357094  0.0027971410126336497  0.9997242924089481  1.0000
  Se  Se7       1.0  0.003571973989248781  0.009520591158152129  0.9997491462685811  1.0000
  Se  Se8       1.0  0.003529499043771465  0.004489770165617952  0.9993833625494777  1.0000
  Se  Se9       1.0  0.008066466352986574  0.001012273587542594  0.9994054641773689  1.0000
  Se  Se10      1.0  0.007768838247648404  0.005637798878312839  0.9998673700430868  1.0000
  Se  Se11      1.0  0.003066466487570608  0.001147906941652851  0.9993085645373431  1.0000
  Se  Se12      1.0  0.0031497089557456113  0.00626212876251683  0.9997516386747645  1.0000
  Se  Se13      1.0  0.001933533602152081  0.008647907025000586  0.9994948704074788  1.0000
  Se  Se14      1.0  0.0018734219797691843  0.003536856168745959  0.999938456940244  1.0000
  Se  Se15      1.0  0.0069469739264428985  0.008419070815436908  0.9996013431528117  1.0000
  Se  Se16      1.0  0.006933533467568047  0.0035122735875425942  0.9992191584012623  1.0000
  Se  Se17      1.0  0.0006194189795501175  0.0005353416737078834  0.9992514636362747  1.0000
  Se  Se18      1.0  0.0007590970754458715  0.00564946956167359  0.999643682644212  1.0000
  Se  Se19      1.0  0.005619419069272807  0.0016248389388352975  0.9994625650768385  1.0000
  Se  Se20      1.0  0.005526800580053598  0.006460362350614186  0.9998367813383997  1.0000
  Se  Se21      1.0  0.009313690691866732  0.009055996876260217  0.9996653929979551  1.0000
  Se  Se22      1.0  0.009380580751281814  0.004124838772139826  0.9992762596027662  1.0000
  Se  Se23      1.0  0.004380581110172571  0.008035341840403354  0.9994377692059748  1.0000
  Se  Se24      1.0  0.005305178807988851  0.00230413648811848  0.999693731961479  1.0000
