data_image0
_chemical_formula_structural       COSi8Rh8Si8Rh8
_chemical_formula_sum              "C1 O1 Si16 Rh16"
_cell_length_a       4.632179983621083
_cell_length_b       7.286283615554712
_cell_length_c       106.17744445800781
_cell_angle_alpha    90.61547208201928
_cell_angle_beta     71.99515939660024
_cell_angle_gamma    109.19578620124453

_space_group_name_H-M_alt    "P 1"
_space_group_IT_number       1

loop_
  _space_group_symop_operation_xyz
  'x, y, z'

loop_
  _atom_site_type_symbol
  _atom_site_label
  _atom_site_symmetry_multiplicity
  _atom_site_fract_x
  _atom_site_fract_y
  _atom_site_fract_z
  _atom_site_occupancy
  C   C1        1.0  0.0003399000441199737  0.0005174640925666937  1.749536277290792e-05  1.0000
  O   O1        1.0  0.0003399000441199737  0.0005174640925666937  0.00013051338439986623  1.0000
  Si  Si1       1.0  0.006962896129518667  0.004048480808041162  0.9986401897136942  1.0000
  Si  Si2       1.0  0.0019628960114753836  0.009048481167192006  0.9989809159357171  1.0000
  Si  Si3       1.0  0.007131001591845454  0.004628410108958269  0.999020435500662  1.0000
  Si  Si4       1.0  0.0021310012231731492  0.009628409651857196  0.998679709244431  1.0000
  Si  Si5       1.0  0.0036017580378900527  0.006099166549764882  0.9992609363701929  1.0000
  Si  Si6       1.0  0.008601758093994607  0.0010991667347819822  0.9989202104300904  1.0000
  Si  Si7       1.0  0.003433652597445765  0.005519237520931746  0.9988806908638147  1.0000
  Si  Si8       1.0  0.008433652727925418  0.0005192376039173579  0.9992214174036661  1.0000
  Rh  Rh1       1.0  0.00966009999823538  0.0062617269280279475  0.9987886874977338  1.0000
  Rh  Rh2       1.0  0.004660100238264421  0.0012617271130450482  0.9991294139014547  1.0000
  Rh  Rh3       1.0  0.009467909468461856  0.007449275515695336  0.999210339656858  1.0000
  Rh  Rh4       1.0  0.00446790949708344  0.0024492757007124367  0.9988696133017136  1.0000
  Rh  Rh5       1.0  0.0009045540106177477  0.0038859204297780957  0.9991124391496597  1.0000
  Rh  Rh6       1.0  0.005904554290020483  0.00888592078892894  0.9987717127393354  1.0000
  Rh  Rh7       1.0  0.0010967446989468637  0.0026983718421107073  0.9986907869883973  1.0000
  Rh  Rh8       1.0  0.006096744925497733  0.00769837220126155  0.9990315133405019  1.0000
  Si  Si9       1.0  0.006962896129518667  0.004048480808041162  0.9993216424754103  1.0000
  Si  Si10      1.0  0.001967407945349541  0.009031448710543122  0.9996605974407866  1.0000
  Si  Si11      1.0  0.007153058559877647  0.004648085045143476  0.9997284510809306  1.0000
  Si  Si12      1.0  0.0021310012231731492  0.009628409651857196  0.9993611614447788  1.0000
  Si  Si13      1.0  0.003431446546400864  0.006329660854163618  0.9999316551019893  1.0000
  Si  Si14      1.0  0.008601758093994607  0.0010991667347819822  0.9996016626304384  1.0000
  Si  Si15      1.0  0.003433652597445765  0.005519237520931746  0.9995621433448467  1.0000
  Si  Si16      1.0  0.008647841357558384  0.000371590012119099  0.9998825710808136  1.0000
  Rh  Rh9       1.0  0.00966009999823538  0.0062617269280279475  0.9994701396980816  1.0000
  Rh  Rh10      1.0  0.004739890611754263  0.0011753994941484445  0.9998075938612162  1.0000
  Rh  Rh11      1.0  0.009340577340730176  0.007254830705086328  0.9998793908866492  1.0000
  Rh  Rh12      1.0  0.00446790949708344  0.0024492757007124367  0.9995510655020615  1.0000
  Rh  Rh13      1.0  0.0012186023939957226  0.003846125428029445  0.9997928263351622  1.0000
  Rh  Rh14      1.0  0.005904554290020483  0.00888592078892894  0.9994531655010516  1.0000
  Rh  Rh15      1.0  0.0010967446989468637  0.0026983718421107073  0.9993722391887453  1.0000
  Rh  Rh16      1.0  0.006105091171101834  0.007724434036606117  0.999703124044225  1.0000
