data_image0
_chemical_formula_structural       COMn6Re6Ti12
_chemical_formula_sum              "C1 O1 Mn6 Re6 Ti12"
_cell_length_a       6.1379594802856445
_cell_length_b       7.5174343603092115
_cell_length_c       103.05392456054688
_cell_angle_alpha    94.34775299657768
_cell_angle_beta     90.0
_cell_angle_gamma    114.09484266793284

_space_group_name_H-M_alt    "P 1"
_space_group_IT_number       1

loop_
  _space_group_symop_operation_xyz
  'x, y, z'

loop_
  _atom_site_type_symbol
  _atom_site_label
  _atom_site_symmetry_multiplicity
  _atom_site_fract_x
  _atom_site_fract_y
  _atom_site_fract_z
  _atom_site_occupancy
  C   C1        1.0  0.0021706196254316023  0.00012044200279033704  0.0001264383419206421  1.0000
  O   O1        1.0  0.0021706196254316023  0.00012044200279033704  0.00024288246930217368  1.0000
  Mn  Mn1       1.0  0.006668144899634675  0.004119205278431709  0.9997793687073221  1.0000
  Mn  Mn2       1.0  0.0024653676509361496  0.005712891200374455  0.9994955362625002  1.0000
  Mn  Mn3       1.0  0.0003871085149552659  0.0015808917729805772  6.2883596193260145e-06  1.0000
  Mn  Mn4       1.0  0.009548701026204101  0.009879558266512144  0.9996291795162602  1.0000
  Mn  Mn5       1.0  0.005382034535896273  0.0015462246789699789  0.9993618930117526  1.0000
  Mn  Mn6       1.0  0.0037637167320523726  0.008306741891040388  0.9999016476240131  1.0000
  Re  Re1       1.0  0.001659615182271353  0.004100297588625566  0.9997710719287757  1.0000
  Re  Re2       1.0  0.007465367796598511  0.005712891200374455  0.9994955362625002  1.0000
  Re  Re3       1.0  0.0053779201006226955  0.0015262675606299394  8.440363357900106e-06  1.0000
  Re  Re4       1.0  0.00454870110813918  0.009879558266512144  0.9996291795162602  1.0000
  Re  Re5       1.0  0.00038203442816681814  0.0015462246789699789  0.9993618930117526  1.0000
  Re  Re6       1.0  0.008752989543602272  0.008293957547276043  0.9999071265112344  1.0000
  Ti  Ti1       1.0  0.009340367945692341  0.004462891352899755  0.9992950712558811  1.0000
  Ti  Ti2       1.0  0.00767286661933407  0.0010951959970362678  0.9998208478399148  1.0000
  Ti  Ti3       1.0  0.0035070343868024425  0.0027962245264446794  0.9995623580183717  1.0000
  Ti  Ti4       1.0  0.0014237009150698567  0.008629557874304231  0.9994287145066287  1.0000
  Ti  Ti5       1.0  0.009617965394719331  0.005143524607263913  0.9999597627868563  1.0000
  Ti  Ti6       1.0  0.0055903679198712865  0.006962891592582368  0.9996960012721315  1.0000
  Ti  Ti7       1.0  0.004741412254575168  0.005143035981572294  0.9999599098859369  1.0000
  Ti  Ti8       1.0  0.0005903677742089254  0.006962891592582368  0.9996960012721315  1.0000
  Ti  Ti9       1.0  0.006423700909000591  0.008629557874304231  0.9994287145066287  1.0000
  Ti  Ti10      1.0  0.008507034532464803  0.0027962245264446794  0.9995623580183717  1.0000
  Ti  Ti11      1.0  0.004340367800029979  0.004462891352899755  0.9992950712558811  1.0000
  Ti  Ti12      1.0  0.002639412595659136  0.0010946520128319271  0.999821126504198  1.0000
