data_image0
_chemical_formula_structural       Sb2Pd2Sb2Pd2Sb2Pd2Sb2Pd2CO
_chemical_formula_sum              "Sb8 Pd8 C1 O1"
_cell_length_a       8.351433249763051
_cell_length_b       5.725454330444336
_cell_length_c       103.40573120117188
_cell_angle_alpha    90.0
_cell_angle_beta     119.99999821966482
_cell_angle_gamma    90.0

_space_group_name_H-M_alt    "P 1"
_space_group_IT_number       1

loop_
  _space_group_symop_operation_xyz
  'x, y, z'

loop_
  _atom_site_type_symbol
  _atom_site_label
  _atom_site_symmetry_multiplicity
  _atom_site_fract_x
  _atom_site_fract_y
  _atom_site_fract_z
  _atom_site_occupancy
  Sb  Sb1       1.0  0.003351286289215075  0.003749998672665649  0.9997427575073007  1.0000
  Sb  Sb2       1.0  0.0016846197015262104  0.008749998204194701  0.9994735450577271  1.0000
  Pd  Pd1       1.0  1.7953099753329043e-05  0.0012499986629058374  0.9996081512924931  1.0000
  Pd  Pd2       1.0  1.7953099753329043e-05  0.0062499984384301755  0.9996081512924931  1.0000
  Sb  Sb3       1.0  0.0032585031670620667  0.00375000062462793  0.00013158443885628778  1.0000
  Sb  Sb4       1.0  0.0017258595062199017  0.00875000145746517  0.9998840202629261  1.0000
  Pd  Pd3       1.0  0.009982033277943935  0.001277492702289711  6.157710390484958e-06  1.0000
  Pd  Pd4       1.0  0.009982046669832151  0.006222523918669113  6.1602686334459435e-06  1.0000
  Sb  Sb5       1.0  0.008351286052281668  0.003749998672665649  0.9997427574862046  1.0000
  Sb  Sb6       1.0  0.006684619722129115  0.008749998204194701  0.9994735450470308  1.0000
  Pd  Pd5       1.0  0.005017952876903939  0.0012499986629058374  0.9996081512719658  1.0000
  Pd  Pd6       1.0  0.005017952876903939  0.0062499984384301755  0.9996081512719658  1.0000
  Sb  Sb7       1.0  0.008258502930128659  0.00375000062462793  0.00013158470596781493  1.0000
  Sb  Sb8       1.0  0.0067258595268228066  0.00875000145746517  0.9998840202522298  1.0000
  Pd  Pd7       1.0  0.004982033772413653  0.001277492702289711  6.157741886400792e-06  1.0000
  Pd  Pd8       1.0  0.004982046649229247  0.006222523918669113  6.160567537414179e-06  1.0000
  C   C1        1.0  0.00249218146540914  0.001250001021526927  0.00020121533713687482  1.0000
  O   O1        1.0  0.00249218146540914  0.001250001021526927  0.00031726329868892345  1.0000
