data_image0
_chemical_formula_structural       HGe8Pt4Ge8Pt4
_chemical_formula_sum              "H1 Ge16 Pt8"
_cell_length_a       8.638072582198285
_cell_length_b       6.007077693939209
_cell_length_c       104.55229187011719
_cell_angle_alpha    90.0
_cell_angle_beta     94.16173653672855
_cell_angle_gamma    90.0

_space_group_name_H-M_alt    "P 1"
_space_group_IT_number       1

loop_
  _space_group_symop_operation_xyz
  'x, y, z'

loop_
  _atom_site_type_symbol
  _atom_site_label
  _atom_site_symmetry_multiplicity
  _atom_site_fract_x
  _atom_site_fract_y
  _atom_site_fract_z
  _atom_site_occupancy
  H   H1        1.0  0.0017714640857280641  0.00625  8.529869104198149e-05  1.0000
  Ge  Ge1       1.0  0.00011893170629509734  0.0012499999689924912  0.9994403821469656  1.0000
  Ge  Ge2       1.0  0.005170499691602375  0.0012499999689924912  0.9998657513945576  1.0000
  Ge  Ge3       1.0  0.005523629535913601  0.0012499999689924912  0.9992714240156234  1.0000
  Ge  Ge4       1.0  0.0005236292159344603  0.0012499999689924912  0.9996845220091227  1.0000
  Ge  Ge5       1.0  0.009881068285056818  0.003749999751939929  0.9999138341261973  1.0000
  Ge  Ge6       1.0  0.00384378704493639  0.003750000062015018  0.9995457344789298  1.0000
  Ge  Ge7       1.0  0.006798774084847204  0.003750000062015018  0.9995791703055065  1.0000
  Ge  Ge8       1.0  0.0033700564139483176  0.003750000062015018  2.0206470322330634e-05  1.0000
  Pt  Pt1       1.0  0.00782570994965348  0.00125000027906758  0.9997706384923465  1.0000
  Pt  Pt2       1.0  0.002821280513003288  0.0012499999689924912  0.9993559030806464  1.0000
  Pt  Pt3       1.0  0.007821280400578185  0.003750000062015018  0.9993559032510005  1.0000
  Pt  Pt4       1.0  0.002738248520457965  0.003750000062015018  0.999768531616481  1.0000
  Ge  Ge9       1.0  0.00011893170629509734  0.00625  0.9994403821469656  1.0000
  Ge  Ge10      1.0  0.005170499691602375  0.00625  0.9998657513945576  1.0000
  Ge  Ge11      1.0  0.005523629535913601  0.00625  0.9992714240156234  1.0000
  Ge  Ge12      1.0  0.0005236292159344603  0.00625  0.9996845220091227  1.0000
  Ge  Ge13      1.0  0.009881068285056818  0.008749999627909894  0.9999138341261973  1.0000
  Ge  Ge14      1.0  0.00384378704493639  0.008750000248060072  0.9995457344789298  1.0000
  Ge  Ge15      1.0  0.006798774084847204  0.008750000248060072  0.9995791703055065  1.0000
  Ge  Ge16      1.0  0.0033700564139483176  0.008750000248060072  2.0206470322330634e-05  1.0000
  Pt  Pt5       1.0  0.00782570994965348  0.006250000620150178  0.9997706384923465  1.0000
  Pt  Pt6       1.0  0.002821280513003288  0.00625  0.9993559030806464  1.0000
  Pt  Pt7       1.0  0.007821280400578185  0.008750000248060072  0.9993559032510005  1.0000
  Pt  Pt8       1.0  0.002738248520457965  0.008749999627909894  0.999768531616481  1.0000
