data_image0
_chemical_formula_structural       CONi24Si12
_chemical_formula_sum              "C1 O1 Ni24 Si12"
_cell_length_a       8.476410780478247
_cell_length_b       6.385826616928413
_cell_length_c       100.14653015136719
_cell_angle_alpha    95.78852669822857
_cell_angle_beta     90.87015474102819
_cell_angle_gamma    87.94570380253657

_space_group_name_H-M_alt    "P 1"
_space_group_IT_number       1

loop_
  _space_group_symop_operation_xyz
  'x, y, z'

loop_
  _atom_site_type_symbol
  _atom_site_label
  _atom_site_symmetry_multiplicity
  _atom_site_fract_x
  _atom_site_fract_y
  _atom_site_fract_z
  _atom_site_occupancy
  C   C1        1.0  0.009329352646189469  0.003259957715240228  0.0001776843898606391  1.0000
  O   O1        1.0  0.009329352646189469  0.003259957715240228  0.0002975090537861645  1.0000
  Ni  Ni1       1.0  0.008888888763789784  0.008506944239112092  0.9994550926647809  1.0000
  Ni  Ni2       1.0  0.0055555554773686145  0.002673611091254698  0.9995805195304257  1.0000
  Ni  Ni3       1.0  0.002222222190947446  0.004340277638490927  0.9993296658530123  1.0000
  Ni  Ni4       1.0  0.009444444311526645  0.003645833269086794  0.9995596149599233  1.0000
  Ni  Ni5       1.0  0.006111111025105476  0.005312499816323022  0.9993087615800971  1.0000
  Ni  Ni6       1.0  0.0027777777386843072  0.009479166457376599  0.9994341882241699  1.0000
  Ni  Ni7       1.0  0.009166666537658213  0.004826389000369979  0.9993192136534944  1.0000
  Ni  Ni8       1.0  0.0058333332512370455  0.008993055641423553  0.9994446405951544  1.0000
  Ni  Ni9       1.0  0.0024999999648158766  0.003159722200386951  0.9995700671613266  1.0000
  Ni  Ni10      1.0  0.0008333333765804848  0.0002430555506336617  0.9996327807425256  1.0000
  Ni  Ni11      1.0  0.00749999989444763  0.0019097221332620728  0.9993819272332249  1.0000
  Ni  Ni12      1.0  0.004166666608026461  0.006076389067494857  0.9995073538791832  1.0000
  Ni  Ni13      1.0  0.008888888763789784  0.0010069443974288653  0.9998313732068964  1.0000
  Ni  Ni14      1.0  0.0055555554773686145  0.005173611185072045  0.9999567995543248  1.0000
  Ni  Ni15      1.0  0.002222222190947446  0.0068402777323082736  0.9997059461744985  1.0000
  Ni  Ni16      1.0  0.009444444311526645  0.00614583336290414  0.9999358952814095  1.0000
  Ni  Ni17      1.0  0.006111111025105476  0.007812499910140369  0.9996850419015832  1.0000
  Ni  Ni18      1.0  0.0027777777386843072  0.001979166615693371  0.9998104684686981  1.0000
  Ni  Ni19      1.0  0.009166666537658213  0.0073263890941873255  0.9996954939749807  1.0000
  Ni  Ni20      1.0  0.0058333332512370455  0.001493055506561118  0.9998209205402101  1.0000
  Ni  Ni21      1.0  0.0024999999648158766  0.00565972200102509  0.9999463474809274  1.0000
  Ni  Ni22      1.0  0.0008333333765804848  0.002743055424566602  9.060765010563227e-06  1.0000
  Ni  Ni23      1.0  0.00749999989444763  0.00440972222707942  0.999758207257124  1.0000
  Ni  Ni24      1.0  0.004166666608026461  0.008576388574953785  0.9998836341968985  1.0000
  Si  Si1       1.0  0.0011111112054241082  0.006562499878388321  0.9994969018058946  1.0000
  Si  Si2       1.0  0.00777777766831606  0.000729166695158097  0.9996223285415393  1.0000
  Si  Si3       1.0  0.004444444381894892  0.0023958332423943255  0.9993714748641258  1.0000
  Si  Si4       1.0  0.007222222120579199  0.005590277665183396  0.9995178062463969  1.0000
  Si  Si5       1.0  0.00388888883415803  0.009756944892595388  0.9996432328942406  1.0000
  Si  Si6       1.0  0.0005555555477368615  0.00142361106456223  0.9993923794346283  1.0000
  Si  Si7       1.0  0.0011111112054241082  0.009062499972205667  0.9998731821273809  1.0000
  Si  Si8       1.0  0.00777777766831606  0.003229166788975444  0.9999986085654383  1.0000
  Si  Si9       1.0  0.004444444381894892  0.004895833336211673  0.9997477551856121  1.0000
  Si  Si10      1.0  0.007222222120579199  0.008090277759000742  0.999894086270296  1.0000
  Si  Si11      1.0  0.00388888883415803  0.002256944464553744  1.9513432585210567e-05  1.0000
  Si  Si12      1.0  0.0005555555477368615  0.003923611158379576  0.9997686597561145  1.0000
