data_image0
_chemical_formula_structural       HPd10Sn14
_chemical_formula_sum              "H1 Pd10 Sn14"
_cell_length_a       7.054892773850324
_cell_length_b       9.89173088431895
_cell_length_c       101.8405990600586
_cell_angle_alpha    87.78688397333113
_cell_angle_beta     91.40316290952622
_cell_angle_gamma    103.22622702164503

_space_group_name_H-M_alt    "P 1"
_space_group_IT_number       1

loop_
  _space_group_symop_operation_xyz
  'x, y, z'

loop_
  _atom_site_type_symbol
  _atom_site_label
  _atom_site_symmetry_multiplicity
  _atom_site_fract_x
  _atom_site_fract_y
  _atom_site_fract_z
  _atom_site_occupancy
  H   H1        1.0  0.009087100519687533  0.009850812759152968  0.00011710183518837231  1.0000
  Pd  Pd1       1.0  0.0046840166928531065  0.008414128883832382  0.9997493639791585  1.0000
  Pd  Pd2       1.0  0.004676306009639086  0.002787293358905884  0.9998848753741387  1.0000
  Pd  Pd3       1.0  0.0013129826778387511  0.0041773687341874755  0.9999353701067968  1.0000
  Pd  Pd4       1.0  0.008078920223833417  0.007039844123233415  0.9997038056423395  1.0000
  Pd  Pd5       1.0  0.0009128997455452825  0.0012170804102677071  9.82855412892708e-06  1.0000
  Pd  Pd6       1.0  0.002184016795164212  0.007164129069636198  0.9993585496114352  1.0000
  Pd  Pd7       1.0  0.0021763060335744013  0.0015372933511640585  0.9994940610070084  1.0000
  Pd  Pd8       1.0  0.008812982490740905  0.0029273687264456502  0.999544556091936  1.0000
  Pd  Pd9       1.0  0.005578920317949723  0.005789843921945948  0.9993129915686912  1.0000
  Pd  Pd10      1.0  0.008412900013958875  0.009967080270914846  0.9996190143181305  1.0000
  Sn  Sn1       1.0  0.001280293370249126  0.00696440312902544  0.9998701894165898  1.0000
  Sn  Sn2       1.0  0.00812264359453563  0.004258326166260822  0.9997707115021914  1.0000
  Sn  Sn3       1.0  0.00532570577522083  0.0012829197019887648  0.9996654767786639  1.0000
  Sn  Sn4       1.0  0.004040236058077436  0.009921312146049925  0.9999696406496683  1.0000
  Sn  Sn5       1.0  0.0011130352495108615  0.0021157685634857946  0.9997449796458996  1.0000
  Sn  Sn6       1.0  0.00823437642353472  0.009079198932118582  0.9998872416509833  1.0000
  Sn  Sn7       1.0  0.004246948338164528  0.005384104904115817  0.9997493970736302  1.0000
  Sn  Sn8       1.0  0.008780293585463388  0.005714403314829255  0.9994793751090486  1.0000
  Sn  Sn9       1.0  0.005622643486420472  0.003008326158518996  0.9993798974274741  1.0000
  Sn  Sn10      1.0  0.0028257056535717245  3.291965190883011e-05  0.9992746629967193  1.0000
  Sn  Sn11      1.0  0.0015402360778569962  0.00867131233185374  0.999578826281805  1.0000
  Sn  Sn12      1.0  0.008613034909744244  0.0008657684589711482  0.999354165338506  1.0000
  Sn  Sn13      1.0  0.005734376393912061  0.007829198343739832  0.99949642728594  1.0000
  Sn  Sn14      1.0  0.0017469483662555974  0.00413410470282835  0.9993585829998698  1.0000
