data_image0
_chemical_formula_structural       COCr6Mn3Se12
_chemical_formula_sum              "C1 O1 Cr6 Mn3 Se12"
_cell_length_a       6.711242041884574
_cell_length_b       6.735704974932821
_cell_length_c       100.87774658203125
_cell_angle_alpha    93.35360530430745
_cell_angle_beta     93.54807542603925
_cell_angle_gamma    116.39507366972006

_space_group_name_H-M_alt    "P 1"
_space_group_IT_number       1

loop_
  _space_group_symop_operation_xyz
  'x, y, z'

loop_
  _atom_site_type_symbol
  _atom_site_label
  _atom_site_symmetry_multiplicity
  _atom_site_fract_x
  _atom_site_fract_y
  _atom_site_fract_z
  _atom_site_occupancy
  C   C1        1.0  0.003318560563117946  0.0023415999405732284  0.0001599852159309338  1.0000
  O   O1        1.0  0.003318560563117946  0.0023415999405732284  0.00027894073506807296  1.0000
  Cr  Cr1       1.0  0.0004364336699261394  0.00558375662353035  0.9999146079335348  1.0000
  Cr  Cr2       1.0  0.006307310810140801  0.001566824559100915  0.9999241198478318  1.0000
  Cr  Cr3       1.0  0.002713967379548203  0.007646401225432515  0.9996367145942489  1.0000
  Cr  Cr4       1.0  0.007762010537700928  0.0030607954701547314  0.9996455612551349  1.0000
  Cr  Cr5       1.0  0.00471396741829755  0.009646401255207436  0.9993306236290361  1.0000
  Cr  Cr6       1.0  0.009762010889283586  0.005060795499929652  0.9993394702912102  1.0000
  Mn  Mn1       1.0  0.008391708871599202  0.008843750034737408  0.999920871030736  1.0000
  Mn  Mn2       1.0  0.00023798914939966929  0.00035359854474231674  0.9996411377253541  1.0000
  Mn  Mn3       1.0  0.0022379890921819445  0.0023535984582089536  0.9993350470547221  1.0000
  Se  Se1       1.0  0.006746259451343276  0.004938647609804349  0.9998398806693236  1.0000
  Se  Se2       1.0  0.009760675286162774  0.002561449115266023  5.019142850927518e-05  1.0000
  Se  Se3       1.0  0.004939994422114673  0.008142336646051306  4.023380151426954e-05  1.0000
  Se  Se4       1.0  0.001994005492362071  0.009604898737678344  0.999855989704826  1.0000
  Se  Se5       1.0  0.008892419596390548  0.006440919520612662  0.9995405439176767  1.0000
  Se  Se6       1.0  0.0015835585989326377  0.004266277174974584  0.9997417316374219  1.0000
  Se  Se7       1.0  0.006590389427290855  0.009449554292265223  0.9997453686886573  1.0000
  Se  Se8       1.0  0.003885588802538843  0.0012576423257831678  0.9995369071617106  1.0000
  Se  Se9       1.0  0.0008924195364236045  0.008440919550387583  0.9992344531499956  1.0000
  Se  Se10      1.0  0.003583558602922729  0.006266277204749505  0.999435640967496  1.0000
  Se  Se11      1.0  0.008590389754878044  0.0014495546383986747  0.9994392777170065  1.0000
  Se  Se12      1.0  0.0058855887710114446  0.003257642122941521  0.9992308161952999  1.0000
