data_image0
_chemical_formula_structural       COAl12Pd8Al12Pd8
_chemical_formula_sum              "C1 O1 Al24 Pd16"
_cell_length_a       7.391180038452148
_cell_length_b       11.33947838259852
_cell_length_c       99.87110137939453
_cell_angle_alpha    100.84549317007715
_cell_angle_beta     90.0
_cell_angle_gamma    70.97960119005526

_space_group_name_H-M_alt    "P 1"
_space_group_IT_number       1

loop_
  _space_group_symop_operation_xyz
  'x, y, z'

loop_
  _atom_site_type_symbol
  _atom_site_label
  _atom_site_symmetry_multiplicity
  _atom_site_fract_x
  _atom_site_fract_y
  _atom_site_fract_z
  _atom_site_occupancy
  C   C1        1.0  0.0017985492107917287  0.00988718246407983  0.00021123012416241467  1.0000
  O   O1        1.0  0.0017985492107917287  0.00988718246407983  0.00033138524564354133  1.0000
  Al  Al1       1.0  0.0075091627994342625  0.005075077225234141  0.9993052781579149  1.0000
  Al  Al2       1.0  9.16274744090075e-06  7.507695530225551e-05  0.9996257386475299  1.0000
  Al  Al3       1.0  0.0050091628940787366  7.507695530225551e-05  0.9994120983093178  1.0000
  Al  Al4       1.0  0.0025091627591127944  0.005075077225234141  0.9995189184961271  1.0000
  Al  Al5       1.0  0.007563250723328087  0.0083002347376608  0.9995878208780006  1.0000
  Al  Al6       1.0  6.325060178224516e-05  0.003300234567457445  0.9994810006933219  1.0000
  Al  Al7       1.0  0.005063250768108298  0.003300234567457445  0.9992673603551098  1.0000
  Al  Al8       1.0  0.00256325068300662  0.0083002347376608  0.9993741805397884  1.0000
  Al  Al9       1.0  0.004955074790438758  0.006849919883010837  0.9995568362989321  1.0000
  Al  Al10      1.0  0.0074550749641880175  0.0018499195355123174  0.9994500161104658  1.0000
  Al  Al11      1.0  0.00245507492386655  0.0018499195355123174  0.9992363757722537  1.0000
  Al  Al12      1.0  0.009955074830760224  0.006849919883010837  0.99934319596072  1.0000
  Pd  Pd1       1.0  0.008780797772812057  0.00586514063869286  0.9995357974394992  1.0000
  Pd  Pd2       1.0  0.0012807976069424255  0.0008651405571370851  0.9994289772567144  1.0000
  Pd  Pd3       1.0  0.006280797773268478  0.0008651405571370851  0.9996426175949266  1.0000
  Pd  Pd4       1.0  0.00378079773249059  0.00586514063869286  0.999322157101287  1.0000
  Pd  Pd5       1.0  0.0037375279182499505  0.009285013627388452  0.999608859729858  1.0000
  Pd  Pd6       1.0  0.006237528003351629  0.004285013457185096  0.9995020395451795  1.0000
  Pd  Pd7       1.0  0.001237527963030161  0.004285013457185096  0.9992883992069673  1.0000
  Pd  Pd8       1.0  0.008737527958571419  0.009285013627388452  0.9993952193916459  1.0000
  Al  Al13      1.0  0.0075091627994342625  0.005075077225234141  0.9997325588343392  1.0000
  Al  Al14      1.0  0.00015466905859648413  0.009924923639966254  4.6007065058402576e-05  1.0000
  Al  Al15      1.0  0.004892248418850103  0.000212106159326715  0.9998464230191507  1.0000
  Al  Al16      1.0  0.0024944477188307158  0.005091535889783205  0.9999520573164357  1.0000
  Al  Al17      1.0  0.007502418727152521  0.00822008172212028  0.9999990163475604  1.0000
  Al  Al18      1.0  0.00989103780790839  0.003307911802595152  0.9998993991519723  1.0000
  Al  Al19      1.0  0.005063250768108298  0.003300234567457445  0.999694641031534  1.0000
  Al  Al20      1.0  0.0025737903295649026  0.008298658938254216  0.9997996585889386  1.0000
  Al  Al21      1.0  0.00504482869543252  0.006787165905562645  0.9999804120115757  1.0000
  Al  Al22      1.0  0.007394846057893954  0.0018666604539604914  0.9998828530039376  1.0000
  Al  Al23      1.0  0.00245507492386655  0.0018499195355123174  0.9996636564486779  1.0000
  Al  Al24      1.0  0.009990836936863624  0.00682802534877164  0.9997717551643627  1.0000
  Pd  Pd9       1.0  0.008827131895232902  0.005813120464988307  0.9999580620881026  1.0000
  Pd  Pd10      1.0  0.0012104805649068837  0.0009105023223567147  0.999854459907378  1.0000
  Pd  Pd11      1.0  0.006581156944636822  0.000615557679821094  6.379538620106307e-05  1.0000
  Pd  Pd12      1.0  0.00378079773249059  0.00586514063869286  0.9997494377777113  1.0000
  Pd  Pd13      1.0  0.0037705551941466958  0.00919318962587396  2.2515403487829906e-05  1.0000
  Pd  Pd14      1.0  0.006160480999740449  0.004298310948982202  0.9999259049473666  1.0000
  Pd  Pd15      1.0  0.001237527963030161  0.004285013457185096  0.9997156798833916  1.0000
  Pd  Pd16      1.0  0.008743845237232047  0.00925287356028385  0.9998124592350902  1.0000
