data_image0
_chemical_formula_structural       COFe8Ni24
_chemical_formula_sum              "C1 O1 Fe8 Ni24"
_cell_length_a       4.989798069000244
_cell_length_b       6.11122989654541
_cell_length_c       104.5703353881836
_cell_angle_alpha    90.0
_cell_angle_beta     90.0
_cell_angle_gamma    90.0

_space_group_name_H-M_alt    "P 1"
_space_group_IT_number       1

loop_
  _space_group_symop_operation_xyz
  'x, y, z'

loop_
  _atom_site_type_symbol
  _atom_site_label
  _atom_site_symmetry_multiplicity
  _atom_site_fract_x
  _atom_site_fract_y
  _atom_site_fract_z
  _atom_site_occupancy
  C   C1        1.0  0.002500017134042534  0.008312710066526854  0.00016380594321142562  1.0000
  O   O1        1.0  0.002500017134042534  0.008312710066526854  0.00027856147377512566  1.0000
  Fe  Fe1       1.0  7.650000563359442e-09  0.0016713247969675515  0.9994601923827704  1.0000
  Fe  Fe2       1.0  0.00500000776444629  0.0016713247969675515  0.9990469494676623  1.0000
  Fe  Fe3       1.0  7.650000563359442e-09  0.008337991223865648  0.999184697201031  1.0000
  Fe  Fe4       1.0  0.00500000776444629  0.005004658162811877  0.9993224446494018  1.0000
  Fe  Fe5       1.0  2.9750002111731662e-08  0.008236202151101522  0.9999963423373932  1.0000
  Fe  Fe6       1.0  0.00500000776444629  0.008337991223865648  0.9995979398311412  1.0000
  Fe  Fe7       1.0  1.4350001219633997e-08  0.004959647303295101  0.9997372085981184  1.0000
  Fe  Fe8       1.0  0.005000035387957129  0.0017027890878914915  0.9998758389698768  1.0000
  Ni  Ni1       1.0  7.650000563359442e-09  0.0016713247969675515  0.9990469494676623  1.0000
  Ni  Ni2       1.0  0.00500000776444629  0.008337991223865648  0.999184697201031  1.0000
  Ni  Ni3       1.0  7.650000563359442e-09  0.005004658162811877  0.9993224446494018  1.0000
  Ni  Ni4       1.0  0.00500000776444629  0.0016713247969675515  0.9994601923827704  1.0000
  Ni  Ni5       1.0  0.007500007913762564  0.005004658162811877  0.9991158234768456  1.0000
  Ni  Ni6       1.0  0.0025000078017753586  0.0016713247969675515  0.9992535709252164  1.0000
  Ni  Ni7       1.0  0.007500007913762564  0.008337991223865648  0.9993913183735871  1.0000
  Ni  Ni8       1.0  0.0025000078017753586  0.008337991223865648  0.9989780757434769  1.0000
  Ni  Ni9       1.0  0.0025000078017753586  0.005004658162811877  0.9991158234768456  1.0000
  Ni  Ni10      1.0  0.007500007913762564  0.0016713247969675515  0.9992535709252164  1.0000
  Ni  Ni11      1.0  0.0025000078017753586  0.008337991223865648  0.9993913183735871  1.0000
  Ni  Ni12      1.0  0.007500007913762564  0.008337991223865648  0.9989780757434769  1.0000
  Ni  Ni13      1.0  7.650000563359442e-09  0.008337991223865648  0.9995979398311412  1.0000
  Ni  Ni14      1.0  0.005000004404830107  0.00500463225561474  0.9997332442778083  1.0000
  Ni  Ni15      1.0  0.009999993131451359  0.0016107819631855144  0.9998803812658582  1.0000
  Ni  Ni16      1.0  0.005000004778120793  0.008389217981952185  0.0  1.0000
  Ni  Ni17      1.0  0.007500007913762564  0.0016713247969675515  0.9996668135553266  1.0000
  Ni  Ni18      1.0  0.00248548996702141  0.0083473592663507  0.9998006462730159  1.0000
  Ni  Ni19      1.0  0.0075183633634243454  0.004983992448840832  0.999938028354123  1.0000
  Ni  Ni20      1.0  0.0025000078017753586  0.005004658162811877  0.9995290661069558  1.0000
  Ni  Ni21      1.0  0.0025000078017753586  0.0016713247969675515  0.9996668135553266  1.0000
  Ni  Ni22      1.0  0.0075145438531148325  0.008347370848391775  0.9998006485529988  1.0000
  Ni  Ni23      1.0  0.0024816545918577  0.004984031766822371  0.9999380277841273  1.0000
  Ni  Ni24      1.0  0.007500007913762564  0.005004658162811877  0.9995290661069558  1.0000
