data_image0
_chemical_formula_structural       COAl18Fe6Al18Fe6
_chemical_formula_sum              "C1 O1 Al36 Fe12"
_cell_length_a       9.360013961791992
_cell_length_b       6.96714106269799
_cell_length_c       104.83570861816406
_cell_angle_alpha    84.40077132073111
_cell_angle_beta     90.0
_cell_angle_gamma    47.79961278987876

_space_group_name_H-M_alt    "P 1"
_space_group_IT_number       1

loop_
  _space_group_symop_operation_xyz
  'x, y, z'

loop_
  _atom_site_type_symbol
  _atom_site_label
  _atom_site_symmetry_multiplicity
  _atom_site_fract_x
  _atom_site_fract_y
  _atom_site_fract_z
  _atom_site_occupancy
  C   C1        1.0  0.009201287364429987  0.0075651036436320245  4.5290538850261505e-05  1.0000
  O   O1        1.0  0.009201287364429987  0.0075651036436320245  0.00015975558589260025  1.0000
  Al  Al1       1.0  0.00754636579921027  0.006620300662621738  0.9990645659825296  1.0000
  Al  Al2       1.0  0.0008796997177169451  0.009953633685289483  0.99884304010922  1.0000
  Al  Al3       1.0  0.004213033104445926  0.003286966911831522  0.9992860912920075  1.0000
  Al  Al4       1.0  0.009166666199707919  0.0033796998616264402  0.9992799289729992  1.0000
  Al  Al5       1.0  0.002499999754153358  0.006713033612416657  0.9990584030949683  1.0000
  Al  Al6       1.0  0.005833333310113929  4.636650049551501e-05  0.9988368773589841  1.0000
  Al  Al7       1.0  0.0007869666526944609  0.005000000262124089  0.999172247193488  1.0000
  Al  Al8       1.0  0.0041203001095205475  0.008333333284791834  0.9989507216044547  1.0000
  Al  Al9       1.0  0.00745363340523422  0.0016666666933644906  0.9987291958650956  1.0000
  Al  Al10      1.0  0.005786966139909357  0.006713033612416657  0.998726114634485  1.0000
  Al  Al11      1.0  0.009120299695869928  4.636650049551501e-05  0.9991691658194674  1.0000
  Al  Al12      1.0  0.002453633445145012  0.0033796998616264402  0.9989476402282396  1.0000
  Al  Al13      1.0  0.004166666103472943  0.009953633685289483  0.9991753285697031  1.0000
  Al  Al14      1.0  0.0074999994902019244  0.003286966911831522  0.9989538031158007  1.0000
  Al  Al15      1.0  0.0008333330446473635  0.006620300662621738  0.9987322772377699  1.0000
  Al  Al16      1.0  0.0025463665101674963  0.008333333284791834  0.9992830103492145  1.0000
  Al  Al17      1.0  0.005879699805881168  0.0016666666933644906  0.9990614846098553  1.0000
  Al  Al18      1.0  0.009213032989661328  0.005000000262124089  0.9988399587330047  1.0000
  Fe  Fe1       1.0  0.007500000215310994  0.008333333284791834  0.9992830103492145  1.0000
  Fe  Fe2       1.0  0.0008333332762043655  0.0016666666933644906  0.9990614846098553  1.0000
  Fe  Fe3       1.0  0.0041666663604844  0.005000000262124089  0.9988399587330047  1.0000
  Fe  Fe4       1.0  0.005833332883870884  0.005000000262124089  0.999172247193488  1.0000
  Fe  Fe5       1.0  0.009166666340696971  0.008333333284791834  0.9989507216044547  1.0000
  Fe  Fe6       1.0  0.0024999998990909763  0.0016666666933644906  0.9987291958650956  1.0000
  Al  Al19      1.0  0.007665026312077283  0.006443292633656024  0.9997252868330737  1.0000
  Al  Al20      1.0  0.0008796997177169451  0.009953633685289483  0.9995076170301864  1.0000
  Al  Al21      1.0  0.004859512712355144  0.0030252492966103928  0.9999543665604328  1.0000
  Al  Al22      1.0  0.008671968884477698  0.003963226311484875  0.9999672246894112  1.0000
  Al  Al23      1.0  0.002371637269005271  0.00682119693361881  0.99972778452455  1.0000
  Al  Al24      1.0  0.005833333310113929  4.636650049551501e-05  0.9995014542799506  1.0000
  Al  Al25      1.0  0.0008019945830022715  0.0051077449129053685  0.9998600484714939  1.0000
  Al  Al26      1.0  0.0041203001095205475  0.008333333284791834  0.9996152988096977  1.0000
  Al  Al27      1.0  0.00745363340523422  0.0016666666933644906  0.9993937730703385  1.0000
  Al  Al28      1.0  0.005786966139909357  0.006713033612416657  0.9993906915554516  1.0000
  Al  Al29      1.0  0.008704055454266245  0.0005179051402743668  0.9998723447437545  1.0000
  Al  Al30      1.0  0.002453633445145012  0.0033796998616264402  0.9996122174334824  1.0000
  Al  Al31      1.0  0.004177628375775857  0.00012291819974066492  0.9998545727791983  1.0000
  Al  Al32      1.0  0.0074999994902019244  0.003286966911831522  0.9996183803210437  1.0000
  Al  Al33      1.0  0.0008333330446473635  0.006620300662621738  0.9993968544430127  1.0000
  Al  Al34      1.0  0.002304145631484575  0.00866337154162796  0.9999438245711244  1.0000
  Al  Al35      1.0  0.005842973943782263  0.0017571528392442586  0.9997177566909893  1.0000
  Al  Al36      1.0  0.009213032989661328  0.005000000262124089  0.9995045356539711  1.0000
  Fe  Fe7       1.0  0.007428993219331006  0.00840730033413948  0.9999034757640266  1.0000
  Fe  Fe8       1.0  0.0010449254623060389  0.001498022152147586  0.9997132903327499  1.0000
  Fe  Fe9       1.0  0.0041666663604844  0.005000000262124089  0.9995045356539711  1.0000
  Fe  Fe10      1.0  0.005519500047777439  0.005640306430400205  0.9998311393934116  1.0000
  Fe  Fe11      1.0  0.009166666340696971  0.008333333284791834  0.9996152988096977  1.0000
  Fe  Fe12      1.0  0.0024999998990909763  0.0016666666933644906  0.9993937730703385  1.0000
