data_image0
_chemical_formula_structural       COIn16Ir8
_chemical_formula_sum              "C1 O1 In16 Ir8"
_cell_length_a       5.744550329767268
_cell_length_b       9.662758090147072
_cell_length_c       102.7164077758789
_cell_angle_alpha    88.14044976955353
_cell_angle_beta     89.76282848420284
_cell_angle_gamma    82.17688974787457

_space_group_name_H-M_alt    "P 1"
_space_group_IT_number       1

loop_
  _space_group_symop_operation_xyz
  'x, y, z'

loop_
  _atom_site_type_symbol
  _atom_site_label
  _atom_site_symmetry_multiplicity
  _atom_site_fract_x
  _atom_site_fract_y
  _atom_site_fract_z
  _atom_site_occupancy
  C   C1        1.0  0.00261108142859404  0.006352435768750107  2.9422755563285745e-05  1.0000
  O   O1        1.0  0.00261108142859404  0.006352435768750107  0.00014624950776901327  1.0000
  In  In1       1.0  0.0057033518450702175  0.0006894343857667366  0.999320800917928  1.0000
  In  In2       1.0  0.0008051555384003468  0.001134724934360471  0.9991789707042046  1.0000
  In  In3       1.0  0.004733727246512598  0.005777582173443749  0.9992927250233377  1.0000
  In  In4       1.0  0.00963192313673969  0.005332291673519302  0.9994345552370089  1.0000
  In  In5       1.0  0.005407074395794143  0.003249855879725926  0.9995521724618683  1.0000
  In  In6       1.0  0.00895857524990292  0.007860018356591428  0.9991751075073186  1.0000
  In  In7       1.0  0.0007442898165636878  0.0017885893223874563  0.9995163702691193  1.0000
  In  In8       1.0  0.0014785027957501615  0.00860699925971599  0.9994384185093005  1.0000
  In  In9       1.0  0.001396808308686352  0.009207582944801345  0.9997860702892761  1.0000
  In  In10      1.0  0.006519441073874731  0.009706154245005998  0.9996339875908031  1.0000
  In  In11      1.0  0.00036807678417067653  0.004352638089705437  0.9997477315470379  1.0000
  In  In12      1.0  0.005229194490869807  0.0038783477025629153  0.9998917780651587  1.0000
  In  In13      1.0  0.0008767793432249371  0.0019314724231622674  0.9999939010053528  1.0000
  In  In14      1.0  0.0046728612592250385  0.00643144665880931  0.9996301248781586  1.0000
  In  In15      1.0  0.006208820231438457  0.00029384656874449546  0.9999588829756306  1.0000
  In  In16      1.0  0.007267199766428483  0.00703782198915619  0.9999043832260351  1.0000
  Ir  Ir1       1.0  0.0026931589752379054  0.003343489749354008  0.9993094576219118  1.0000
  Ir  Ir2       1.0  0.003815347878936489  0.008480670141177253  0.9991903140769403  1.0000
  Ir  Ir3       1.0  0.007743919434451231  0.003123526955864341  0.9993040683190659  1.0000
  Ir  Ir4       1.0  0.006621730344833546  0.007986346696421558  0.9994232119420148  1.0000
  Ir  Ir5       1.0  0.008272388902716579  0.001951198085552989  0.9997563298790347  1.0000
  Ir  Ir6       1.0  0.009529633306342601  0.0070520988327494386  0.9996453314673989  1.0000
  Ir  Ir7       1.0  0.00333883867396825  0.0016800986659313664  0.9997450917304448  1.0000
  Ir  Ir8       1.0  0.002610228578156677  0.006410701472175408  0.9998607098492522  1.0000
