data_image0
_chemical_formula_structural       COZn4Pd4Zn4Pd4Zn4Pd4Zn4Pd4
_chemical_formula_sum              "C1 O1 Zn16 Pd16"
_cell_length_a       7.500417272997521
_cell_length_b       8.320631980895996
_cell_length_c       103.28253173828125
_cell_angle_alpha    90.0
_cell_angle_beta     73.89854992209041
_cell_angle_gamma    73.89854992209041

_space_group_name_H-M_alt    "P 1"
_space_group_IT_number       1

loop_
  _space_group_symop_operation_xyz
  'x, y, z'

loop_
  _atom_site_type_symbol
  _atom_site_label
  _atom_site_symmetry_multiplicity
  _atom_site_fract_x
  _atom_site_fract_y
  _atom_site_fract_z
  _atom_site_occupancy
  C   C1        1.0  0.0030341348328565146  0.004241323380446204  0.9998998749268009  1.0000
  O   O1        1.0  0.0030341348328565146  0.004241323380446204  1.606131492220456e-05  1.0000
  Zn  Zn1       1.0  0.0012363015173484562  0.004690980048055902  0.9995750006712327  1.0000
  Zn  Zn2       1.0  0.006170120486476232  0.0009576932445067564  0.9996809881334073  1.0000
  Zn  Zn3       1.0  0.006288716518863749  0.0034278579412706685  0.9998733423384745  1.0000
  Zn  Zn4       1.0  0.00124231889750991  0.0021895950644289326  0.9997813045557226  1.0000
  Pd  Pd1       1.0  0.008763697996704024  0.0003090201629744235  0.9998176270840128  1.0000
  Pd  Pd2       1.0  0.0037363014633542873  0.0015659801063261675  0.9995246495151542  1.0000
  Pd  Pd3       1.0  0.0037588005635954555  0.004060156947761469  0.999724718264986  1.0000
  Pd  Pd4       1.0  0.008697750058659266  0.0028254571822427968  0.9996273617722806  1.0000
  Zn  Zn5       1.0  0.0012363015173484562  0.004690980048055902  0.9991721912407736  1.0000
  Zn  Zn6       1.0  0.006236301139389273  0.0009409801873174208  0.9992728937935591  1.0000
  Zn  Zn7       1.0  0.006236301139389273  0.003440980142545698  0.999474298364513  1.0000
  Zn  Zn8       1.0  0.0012363015173484562  0.0021909800928276253  0.9993735961002789  1.0000
  Pd  Pd5       1.0  0.00873630135536595  0.0003159801333232517  0.9994239472029971  1.0000
  Pd  Pd6       1.0  0.0037363014633542873  0.0015659801063261675  0.9991218400846951  1.0000
  Pd  Pd7       1.0  0.0037363014633542873  0.004065980061554445  0.9993232449442003  1.0000
  Pd  Pd8       1.0  0.00873630135536595  0.002815980088551529  0.9992225426320432  1.0000
  Zn  Zn9       1.0  0.0012363015173484562  0.009690979958512458  0.9995750006712327  1.0000
  Zn  Zn10      1.0  0.006170120486476232  0.005957693378821926  0.9996809881334073  1.0000
  Zn  Zn11      1.0  0.006288716518863749  0.008427858299444453  0.9998733423384745  1.0000
  Zn  Zn12      1.0  0.00124231889750991  0.007189595422602717  0.9997813045557226  1.0000
  Pd  Pd9       1.0  0.008763697996704024  0.005309020521148207  0.9998176270840128  1.0000
  Pd  Pd10      1.0  0.0037363014633542873  0.006565980240641337  0.9995246495151542  1.0000
  Pd  Pd11      1.0  0.0037588005635954555  0.009060157305935252  0.999724718264986  1.0000
  Pd  Pd12      1.0  0.008697750058659266  0.00782545754041658  0.9996273617722806  1.0000
  Zn  Zn13      1.0  0.0012363015173484562  0.009690979958512458  0.9991721912407736  1.0000
  Zn  Zn14      1.0  0.006236301139389273  0.00594098032163259  0.9992728937935591  1.0000
  Zn  Zn15      1.0  0.006236301139389273  0.008440980053002253  0.999474298364513  1.0000
  Zn  Zn16      1.0  0.0012363015173484562  0.007190980227142794  0.9993735961002789  1.0000
  Pd  Pd13      1.0  0.00873630135536595  0.005315980267638421  0.9994239472029971  1.0000
  Pd  Pd14      1.0  0.0037363014633542873  0.006565980240641337  0.9991218400846951  1.0000
  Pd  Pd15      1.0  0.0037363014633542873  0.009065979972011  0.9993232449442003  1.0000
  Pd  Pd16      1.0  0.00873630135536595  0.007815979999008084  0.9992225426320432  1.0000
