data_image0
_chemical_formula_structural       HAu2Ca2In4
_chemical_formula_sum              "H1 Au2 Ca2 In4"
_cell_length_a       6.016965964848164
_cell_length_b       4.671236991882324
_cell_length_c       101.32674407958984
_cell_angle_alpha    90.0
_cell_angle_beta     90.0
_cell_angle_gamma    112.84081172107064

_space_group_name_H-M_alt    "P 1"
_space_group_IT_number       1

loop_
  _space_group_symop_operation_xyz
  'x, y, z'

loop_
  _atom_site_type_symbol
  _atom_site_label
  _atom_site_symmetry_multiplicity
  _atom_site_fract_x
  _atom_site_fract_y
  _atom_site_fract_z
  _atom_site_occupancy
  H   H1        1.0  0.001921250652300358  0.004259681422006428  8.182563619170371e-05  1.0000
  Au  Au1       1.0  0.0057426509176985155  0.0028381178101559417  0.9996219609960365  1.0000
  Au  Au2       1.0  0.004447358124967699  0.007193465420595396  0.0  1.0000
  Ca  Ca1       1.0  0.0014723448833295482  0.005702965001815582  0.9996219609960365  1.0000
  Ca  Ca2       1.0  0.008527654874818954  0.0042281103882523706  7.86950123630582e-06  1.0000
  In  In1       1.0  0.007279861044169005  0.00860672308223531  0.9994678171846886  1.0000
  In  In2       1.0  0.007462147204235397  0.00869459682962598  0.999772905065123  1.0000
  In  In3       1.0  0.0026772218300406127  0.0013054032133683075  0.9993896477665365  1.0000
  In  In4       1.0  0.002788738547310495  0.0013574684234818617  0.9998728309071034  1.0000
