data_image0
_chemical_formula_structural       HTa16
_chemical_formula_sum              "H1 Ta16"
_cell_length_a       5.753463268280029
_cell_length_b       4.697683334350586
_cell_length_c       102.54650115966797
_cell_angle_alpha    90.0
_cell_angle_beta     90.0
_cell_angle_gamma    90.0

_space_group_name_H-M_alt    "P 1"
_space_group_IT_number       1

loop_
  _space_group_symop_operation_xyz
  'x, y, z'

loop_
  _atom_site_type_symbol
  _atom_site_label
  _atom_site_symmetry_multiplicity
  _atom_site_fract_x
  _atom_site_fract_y
  _atom_site_fract_z
  _atom_site_occupancy
  H   H1        1.0  0.009166667046525466  0.002499999865189008  0.00014627496331181332  1.0000
  Ta  Ta1       1.0  0.004166666839329757  0.002499999865189008  0.9996032712005639  1.0000
  Ta  Ta2       1.0  0.004166666839329757  0.0075000001903214  0.0  1.0000
  Ta  Ta3       1.0  0.0025000001035978543  0.002499999865189008  0.9998677574543513  1.0000
  Ta  Ta4       1.0  0.0008333333678659514  0.0075000001903214  0.9997355143274577  1.0000
  Ta  Ta5       1.0  0.0025000001035978543  0.002499999865189008  0.9990742998554792  1.0000
  Ta  Ta6       1.0  0.0025000001035978543  0.0075000001903214  0.9994710286549153  1.0000
  Ta  Ta7       1.0  0.0008333333678659514  0.002499999865189008  0.9993387858186441  1.0000
  Ta  Ta8       1.0  0.004166666839329757  0.0075000001903214  0.9992065426917505  1.0000
  Ta  Ta9       1.0  0.009166667046525466  0.002499999865189008  0.9996032712005639  1.0000
  Ta  Ta10      1.0  0.009166667046525466  0.0075000001903214  0.0  1.0000
  Ta  Ta11      1.0  0.0075000003107935625  0.002499999865189008  0.9998677574543513  1.0000
  Ta  Ta12      1.0  0.00583333357506166  0.0075000001903214  0.9997355143274577  1.0000
  Ta  Ta13      1.0  0.0075000003107935625  0.002499999865189008  0.9990742998554792  1.0000
  Ta  Ta14      1.0  0.0075000003107935625  0.0075000001903214  0.9994710286549153  1.0000
  Ta  Ta15      1.0  0.00583333357506166  0.002499999865189008  0.9993387858186441  1.0000
  Ta  Ta16      1.0  0.009166667046525466  0.0075000001903214  0.9992065426917505  1.0000
