data_image0
_chemical_formula_structural       HSr16
_chemical_formula_sum              "H1 Sr16"
_cell_length_a       8.7028169631958
_cell_length_b       8.7028169631958
_cell_length_c       106.92292785644531
_cell_angle_alpha    90.0
_cell_angle_beta     90.0
_cell_angle_gamma    90.0

_space_group_name_H-M_alt    "P 1"
_space_group_IT_number       1

loop_
  _space_group_symop_operation_xyz
  'x, y, z'

loop_
  _atom_site_type_symbol
  _atom_site_label
  _atom_site_symmetry_multiplicity
  _atom_site_fract_x
  _atom_site_fract_y
  _atom_site_fract_z
  _atom_site_occupancy
  H   H1        1.0  0.0012500000856111376  0.0037500002568334125  0.0001402878315773791  1.0000
  Sr  Sr1       1.0  0.0012500000856111376  0.0037500002568334125  0.9994244618933881  1.0000
  Sr  Sr2       1.0  0.0037500002568334125  0.0012500000856111376  0.9991366928400821  1.0000
  Sr  Sr3       1.0  0.0012500000856111376  0.0037500002568334125  0.0  1.0000
  Sr  Sr4       1.0  0.0037500002568334125  0.0012500000856111376  0.999712230946694  1.0000
  Sr  Sr5       1.0  0.0012500000856111376  0.008750000171222275  0.9994244618933881  1.0000
  Sr  Sr6       1.0  0.0037500002568334125  0.006250000428055688  0.9991366928400821  1.0000
  Sr  Sr7       1.0  0.0012500000856111376  0.008750000171222275  0.0  1.0000
  Sr  Sr8       1.0  0.0037500002568334125  0.006250000428055688  0.999712230946694  1.0000
  Sr  Sr9       1.0  0.006250000428055688  0.0037500002568334125  0.9994244618933881  1.0000
  Sr  Sr10      1.0  0.008750000171222275  0.0012500000856111376  0.9991366928400821  1.0000
  Sr  Sr11      1.0  0.006250000428055688  0.0037500002568334125  0.0  1.0000
  Sr  Sr12      1.0  0.008750000171222275  0.0012500000856111376  0.999712230946694  1.0000
  Sr  Sr13      1.0  0.006250000428055688  0.008750000171222275  0.9994244618933881  1.0000
  Sr  Sr14      1.0  0.008750000171222275  0.006250000428055688  0.9991366928400821  1.0000
  Sr  Sr15      1.0  0.006250000428055688  0.008750000171222275  0.0  1.0000
  Sr  Sr16      1.0  0.008750000171222275  0.006250000428055688  0.999712230946694  1.0000
