data_image0
_chemical_formula_structural       V12Sn4H
_chemical_formula_sum              "V12 Sn4 H1"
_cell_length_a       4.982881546020508
_cell_length_b       7.046858787536621
_cell_length_c       41.812564849853516
_cell_angle_alpha    90.0
_cell_angle_beta     90.0
_cell_angle_gamma    90.0

_space_group_name_H-M_alt    "P 1"
_space_group_IT_number       1

loop_
  _space_group_symop_operation_xyz
  'x, y, z'

loop_
  _atom_site_type_symbol
  _atom_site_label
  _atom_site_symmetry_multiplicity
  _atom_site_fract_x
  _atom_site_fract_y
  _atom_site_fract_z
  _atom_site_occupancy
  V   V1        1.0  4.5909999283172494e-07  0.0062192216236958775  0.0  1.0000
  V   V2        1.0  4.077999776902009e-07  0.0012727498950067713  0.9991823652429774  1.0000
  V   V3        1.0  4.077999776902009e-07  0.003772749826282854  0.9987610289483869  1.0000
  V   V4        1.0  0.009999591950274932  0.008701495674343264  0.9996875449181332  1.0000
  V   V5        1.0  0.005001189160668181  0.006343705483818405  0.9996875752104318  1.0000
  V   V6        1.0  0.005000407900201533  0.0012727498950067713  0.9987610289483869  1.0000
  V   V7        1.0  0.005000565647530206  0.008827455512745887  3.991455821244088e-08  1.0000
  V   V8        1.0  0.005000407900201533  0.003772749826282854  0.9991823652429774  1.0000
  V   V9        1.0  0.007499490423795151  0.0025231121810652  0.9997927461511418  1.0000
  V   V10       1.0  0.0075004077506779995  0.007522749921439046  0.9989716969174922  1.0000
  V   V11       1.0  0.002501435276405617  0.0025231618737436845  0.999792920777334  1.0000
  V   V12       1.0  0.00250040786282065  0.007522749921439046  0.9989716969174922  1.0000
  Sn  Sn1       1.0  0.005000407900201533  0.005022749858001585  0.9985503609792815  1.0000
  Sn  Sn2       1.0  0.0049992782498999985  0.009977249465332154  0.999386776605083  1.0000
  Sn  Sn3       1.0  1.1115999708757124e-06  0.005067315732274017  0.9993868692638789  1.0000
  Sn  Sn4       1.0  4.077999776902009e-07  2.274990045842828e-05  0.9985503609792815  1.0000
  H   H1        1.0  0.0037513122185368988  0.004433433810942424  9.899166816669377e-05  1.0000
