data_image0
_chemical_formula_structural       COGa8Sb8Ga8Sb8
_chemical_formula_sum              "C1 O1 Ga16 Sb16"
_cell_length_a       7.684421062469482
_cell_length_b       15.246966589108876
_cell_length_c       101.05622100830078
_cell_angle_alpha    98.36573147484611
_cell_angle_beta     90.0
_cell_angle_gamma    75.4042037701183

_space_group_name_H-M_alt    "P 1"
_space_group_IT_number       1

loop_
  _space_group_symop_operation_xyz
  'x, y, z'

loop_
  _atom_site_type_symbol
  _atom_site_label
  _atom_site_symmetry_multiplicity
  _atom_site_fract_x
  _atom_site_fract_y
  _atom_site_fract_z
  _atom_site_occupancy
  C   C1        1.0  0.006711835686943742  0.0015274632520687224  0.00026443928188761155  1.0000
  O   O1        1.0  0.006711835686943742  0.0015274632520687224  0.0003831847148190944  1.0000
  Ga  Ga1       1.0  0.004426641127082517  0.007516144512742817  0.9997074761407824  1.0000
  Ga  Ga2       1.0  0.006926640994284564  0.0025161447783387234  0.9995977203456287  1.0000
  Ga  Ga3       1.0  0.0019266406840223104  0.0025161447783387234  0.9993782088616242  1.0000
  Ga  Ga4       1.0  0.00942664143734477  0.007516144512742817  0.9994879643618696  1.0000
  Ga  Ga5       1.0  0.009009974473168036  0.005016144900921449  0.9996525982488114  1.0000
  Ga  Ga6       1.0  0.0015099738285818817  1.6144949044746117e-05  0.9995428424488839  1.0000
  Ga  Ga7       1.0  0.006509974138844134  1.6144949044746117e-05  0.9997623539328883  1.0000
  Ga  Ga8       1.0  0.004009974162905783  0.005016144900921449  0.9994330867648069  1.0000
  Sb  Sb1       1.0  0.003490026868998611  0.009389373028910629  0.9997485956800259  1.0000
  Sb  Sb2       1.0  0.005990026736200658  0.004389373294506535  0.9996388398848722  1.0000
  Sb  Sb3       1.0  0.0009900264259384047  0.004389373294506535  0.9994193284008678  1.0000
  Sb  Sb4       1.0  0.008490027179260866  0.009389373028910629  0.9995290841960215  1.0000
  Sb  Sb5       1.0  0.008073360215084131  0.0068893734170892605  0.9996937177880549  1.0000
  Sb  Sb6       1.0  0.0005733595894520106  0.001889373427304488  0.9995839619872953  1.0000
  Sb  Sb7       1.0  0.005573359899714263  0.001889373427304488  0.9993644505032909  1.0000
  Sb  Sb8       1.0  0.003073359904821877  0.0068893734170892605  0.9994742060091422  1.0000
  Ga  Ga9       1.0  0.004790940708016909  0.007729010948467987  0.00010212969670801578  1.0000
  Ga  Ga10      1.0  0.007424123379494064  0.0027140433524760693  0.9999867829952072  1.0000
  Ga  Ga11      1.0  0.0019266406840223104  0.0025161447783387234  0.999817231829633  1.0000
  Ga  Ga12      1.0  0.009390584417189249  0.007541564083993552  0.9999340088250477  1.0000
  Ga  Ga13      1.0  0.008347365477690535  0.005226910575182339  4.383724752573499e-05  1.0000
  Ga  Ga14      1.0  0.001444364017279167  0.0001244010442655907  0.9999843550085837  1.0000
  Ga  Ga15      1.0  0.006178062729340944  0.009983854302290832  0.00019536457011358355  1.0000
  Ga  Ga16      1.0  0.004009974162905783  0.005016144900921449  0.9998721097328158  1.0000
  Sb  Sb9       1.0  0.0030383080072484926  0.009422879995499416  0.0002048743402181459  1.0000
  Sb  Sb10      1.0  0.005742583620726596  0.004436042070522267  9.288717537767563e-05  1.0000
  Sb  Sb11      1.0  0.0009900264259384047  0.004389373294506535  0.9998583513688766  1.0000
  Sb  Sb12      1.0  0.0085011275014814  0.009414948893136824  0.9999685338108117  1.0000
  Sb  Sb13      1.0  0.008197646722062194  0.00696155727672962  0.00015281425900053183  1.0000
  Sb  Sb14      1.0  0.0008196439938571426  0.0019808575540591453  4.264104291037076e-05  1.0000
  Sb  Sb15      1.0  0.005573359899714263  0.001889373427304488  0.9998034734712997  1.0000
  Sb  Sb16      1.0  0.003041165843307534  0.00689279500742459  0.9999126667881059  1.0000
