data_image0
_chemical_formula_structural       HFe4Sn4Rh8Fe4Sn4Rh8
_chemical_formula_sum              "H1 Fe8 Sn8 Rh16"
_cell_length_a       5.823442459106445
_cell_length_b       8.163663311612224
_cell_length_c       35.05934524536133
_cell_angle_alpha    69.10426479980482
_cell_angle_beta     90.0
_cell_angle_gamma    69.10426479980482

_space_group_name_H-M_alt    "P 1"
_space_group_IT_number       1

loop_
  _space_group_symop_operation_xyz
  'x, y, z'

loop_
  _atom_site_type_symbol
  _atom_site_label
  _atom_site_symmetry_multiplicity
  _atom_site_fract_x
  _atom_site_fract_y
  _atom_site_fract_z
  _atom_site_occupancy
  H   H1        1.0  0.009464572948063759  0.0021649055332763037  0.9998143042926677  1.0000
  Fe  Fe1       1.0  0.0005354266579879038  2.129020027976342e-05  0.9983058724508272  1.0000
  Fe  Fe2       1.0  0.005611143588416682  0.009867114870340041  0.9991476402204982  1.0000
  Fe  Fe3       1.0  0.00803542690196743  0.005021290022578058  0.9987211285249853  1.0000
  Fe  Fe4       1.0  0.0030219052136125388  0.005054381383246103  0.9994853075242703  1.0000
  Sn  Sn1       1.0  0.0005506519861572871  0.009978709956282706  0.9991491316663424  1.0000
  Sn  Sn2       1.0  0.005535426275763649  2.129020027976342e-05  0.9983058724508272  1.0000
  Sn  Sn3       1.0  0.008363207614070113  0.004378635303914912  0.9996363490167414  1.0000
  Sn  Sn4       1.0  0.0030354263646145026  0.005021290022578058  0.9987211285249853  1.0000
  Rh  Rh1       1.0  0.0066377382734050475  0.0024672562000873036  0.9993157499784259  1.0000
  Rh  Rh2       1.0  0.0017854266458021493  0.002521290202261567  0.9985135002678491  1.0000
  Rh  Rh3       1.0  0.001985653070817519  0.002463067196153241  0.9993150943920271  1.0000
  Rh  Rh4       1.0  0.006785426863302145  0.002521290202261567  0.9985135002678491  1.0000
  Rh  Rh5       1.0  0.00922639025720691  0.007438088715050331  0.9989178164615059  1.0000
  Rh  Rh6       1.0  0.0045027583216465696  0.007250363840081305  0.999680581822178  1.0000
  Rh  Rh7       1.0  0.004432415513262232  0.007437768455618799  0.9989179178641571  1.0000
  Rh  Rh8       1.0  0.009335496454225982  0.007254533025981238  0.999681018890608  1.0000
  Fe  Fe5       1.0  0.0005354266579879038  2.129020027976342e-05  0.9966448479667133  1.0000
  Fe  Fe6       1.0  0.005535426275763649  2.129020027976342e-05  0.9974753603150269  1.0000
  Fe  Fe7       1.0  0.00803542690196743  0.005021290022578058  0.9970601042533846  1.0000
  Fe  Fe8       1.0  0.0030354263646145026  0.005021290022578058  0.997890616389185  1.0000
  Sn  Sn5       1.0  0.0005354266579879038  2.129020027976342e-05  0.9974753603150269  1.0000
  Sn  Sn6       1.0  0.005535426275763649  2.129020027976342e-05  0.9966448479667133  1.0000
  Sn  Sn7       1.0  0.00803542690196743  0.005021290022578058  0.997890616389185  1.0000
  Sn  Sn8       1.0  0.0030354263646145026  0.005021290022578058  0.9970601042533846  1.0000
  Rh  Rh9       1.0  0.006785426863302145  0.002521290202261567  0.9976829881320488  1.0000
  Rh  Rh10      1.0  0.0017854266458021493  0.002521290202261567  0.9968524759962485  1.0000
  Rh  Rh11      1.0  0.0017854266458021493  0.002521290202261567  0.9976829881320488  1.0000
  Rh  Rh12      1.0  0.006785426863302145  0.002521290202261567  0.9968524759962485  1.0000
  Rh  Rh13      1.0  0.009285426808512487  0.007521290107135003  0.9972677320635485  1.0000
  Rh  Rh14      1.0  0.004285426910865426  0.007521290107135003  0.9980982441993488  1.0000
  Rh  Rh15      1.0  0.004285426910865426  0.007521290107135003  0.9972677320635485  1.0000
  Rh  Rh16      1.0  0.009285426808512487  0.007521290107135003  0.9980982441993488  1.0000
