data_image0
_chemical_formula_structural       COIn3Pd9
_chemical_formula_sum              "C1 O1 In3 Pd9"
_cell_length_a       5.817535877227783
_cell_length_b       5.732840754269941
_cell_length_c       98.22405242919922
_cell_angle_alpha    91.38576586390181
_cell_angle_beta     90.0
_cell_angle_gamma    59.51007548961995

_space_group_name_H-M_alt    "P 1"
_space_group_IT_number       1

loop_
  _space_group_symop_operation_xyz
  'x, y, z'

loop_
  _atom_site_type_symbol
  _atom_site_label
  _atom_site_symmetry_multiplicity
  _atom_site_fract_x
  _atom_site_fract_y
  _atom_site_fract_z
  _atom_site_occupancy
  C   C1        1.0  0.0024416690002509057  0.004282087520862205  0.00016900590482339285  1.0000
  O   O1        1.0  0.0024416690002509057  0.004282087520862205  0.000291175821681026  1.0000
  In  In1       1.0  0.0058392144576523645  0.007486997272028867  0.9995242177273572  1.0000
  In  In2       1.0  0.00914191466151996  0.0008815878993185915  1.2443499506094222e-06  1.0000
  In  In3       1.0  0.0025073875264152237  0.004150645986046028  0.9997582601083824  1.0000
  Pd  Pd1       1.0  0.007504701024546888  0.004156045910322161  0.9997593287608663  1.0000
  Pd  Pd2       1.0  0.0008392147650229382  0.007486997272028867  0.9995242177273572  1.0000
  Pd  Pd3       1.0  0.004164179777107267  0.000837081335678195  0.9999927794539374  1.0000
  Pd  Pd4       1.0  0.0024887285888084646  0.00916291861528645  0.9997596383127207  1.0000
  Pd  Pd5       1.0  0.005839214622653502  0.002486997249397164  0.9995242176469211  1.0000
  Pd  Pd6       1.0  0.009160784676670615  0.005856930021712916  0.9999925102070831  1.0000
  Pd  Pd7       1.0  0.00751378538679231  0.00916291861528645  0.9997596386161324  1.0000
  Pd  Pd8       1.0  0.000839214769935236  0.002486997249397164  0.9995242176469211  1.0000
  Pd  Pd9       1.0  0.00414769712920961  0.005856942091954383  0.9999925096172968  1.0000
