data_image0
_chemical_formula_structural       V4Co4Si4V4Co4Si4H
_chemical_formula_sum              "V8 Co8 Si8 H1"
_cell_length_a       5.990012168884277
_cell_length_b       6.864283561706543
_cell_length_c       98.54531860351562
_cell_angle_alpha    90.0
_cell_angle_beta     90.0
_cell_angle_gamma    90.0

_space_group_name_H-M_alt    "P 1"
_space_group_IT_number       1

loop_
  _space_group_symop_operation_xyz
  'x, y, z'

loop_
  _atom_site_type_symbol
  _atom_site_label
  _atom_site_symmetry_multiplicity
  _atom_site_fract_x
  _atom_site_fract_y
  _atom_site_fract_z
  _atom_site_occupancy
  V   V1        1.0  0.004710887125968181  0.0067802719736852896  0.9996443193764201  1.0000
  V   V2        1.0  0.00021098716349166605  0.001780271941122908  0.9994632774687509  1.0000
  V   V3        1.0  0.009710887287666597  0.008219728395355032  0.9996443193764201  1.0000
  V   V4        1.0  0.005210987364059894  0.0032197280914394734  0.9994632774687509  1.0000
  Co  Co1       1.0  0.006389132282319503  0.009390665110341145  0.9994632774687509  1.0000
  Co  Co2       1.0  0.0013891319651418417  0.005609334715992822  0.9994632774687509  1.0000
  Co  Co3       1.0  0.008532742680365479  0.004390665349131941  0.9996443193764201  1.0000
  Co  Co4       1.0  0.0035327422077085706  0.0006093348191070287  0.9996443193764201  1.0000
  Si  Si1       1.0  0.007630567515267913  0.0062378505414142785  0.9994632774687509  1.0000
  Si  Si2       1.0  0.002630567353569497  0.008762149827626043  0.9994632774687509  1.0000
  Si  Si3       1.0  0.002291306819280915  0.0037621497950636614  0.9996443193764201  1.0000
  Si  Si4       1.0  0.007291306825500085  0.00123785023749872  0.9996443193764201  1.0000
  V   V5        1.0  0.004923853579129255  0.00720934212892744  0.9999942116332  1.0000
  V   V6        1.0  7.622235440787841e-05  0.0019173668924533497  0.9998377176629145  1.0000
  V   V7        1.0  0.00992377817791419  0.00779119280587069  0.9999942527626611  1.0000
  V   V8        1.0  0.005076319015271973  0.0030821178404267574  0.9998376021375165  1.0000
  Co  Co5       1.0  0.0064121817695574086  0.009334581835811132  0.9998233598519324  1.0000
  Co  Co6       1.0  0.0014115237751698261  0.005664746120057691  0.9998234917081458  1.0000
  Co  Co7       1.0  0.00857818802009176  0.00405044382178225  0.9999999830643396  1.0000
  Co  Co8       1.0  0.0035801487626419305  0.0009487703041425393  0.0  1.0000
  Si  Si5       1.0  0.007582633885691141  0.006074486160414898  0.9998260616946174  1.0000
  Si  Si6       1.0  0.002582798842951812  0.008925521263808014  0.9998260756060527  1.0000
  Si  Si7       1.0  0.002406756067531547  0.004241684857315293  2.8009767830869774e-05  1.0000
  Si  Si8       1.0  0.007406303629145311  0.0007555082979888223  2.7947468794255302e-05  1.0000
  H   H1        1.0  7.622235440787841e-05  0.0019173668924533497  0.999989931749869  1.0000
