data_image0
_chemical_formula_structural       COAu12Se12
_chemical_formula_sum              "C1 O1 Au12 Se12"
_cell_length_a       12.19883416705576
_cell_length_b       6.499781081451903
_cell_length_c       111.18081665039062
_cell_angle_alpha    77.0267191674258
_cell_angle_beta     59.801649249948284
_cell_angle_gamma    79.07850011937637

_space_group_name_H-M_alt    "P 1"
_space_group_IT_number       1

loop_
  _space_group_symop_operation_xyz
  'x, y, z'

loop_
  _atom_site_type_symbol
  _atom_site_label
  _atom_site_symmetry_multiplicity
  _atom_site_fract_x
  _atom_site_fract_y
  _atom_site_fract_z
  _atom_site_occupancy
  C   C1        1.0  0.001953254679409282  0.007716559828326213  0.9997584554901408  1.0000
  O   O1        1.0  0.001953254679409282  0.007716559828326213  0.9998663874614608  1.0000
  Au  Au1       1.0  0.00609548643390029  0.0063800702326171545  0.9991999149371097  1.0000
  Au  Au2       1.0  0.0026070365258054175  0.006520712025353488  0.9995104351073344  1.0000
  Au  Au3       1.0  0.0094288198996923  0.006380070126316122  0.9988912525314586  1.0000
  Au  Au4       1.0  0.007557096492118829  0.0015002665379689666  0.9995495704280504  1.0000
  Au  Au5       1.0  0.004428819701004285  0.001380070168136953  0.9988912524829036  1.0000
  Au  Au6       1.0  0.0010954862352122756  0.0013800701273995878  0.9991999148904844  1.0000
  Au  Au7       1.0  0.009485685828562625  0.0064641398013953934  0.9993570761219832  1.0000
  Au  Au8       1.0  0.00609548643390029  0.0063800702326171545  0.9987369213803942  1.0000
  Au  Au9       1.0  0.0027621527907082674  0.006380070365755472  0.9990455837954836  1.0000
  Au  Au10      1.0  0.007762153166796295  0.001380070061835921  0.9990455836339679  1.0000
  Au  Au11      1.0  0.004383617113368792  0.0014697888674523548  0.9993485386311559  1.0000
  Au  Au12      1.0  0.0010954862352122756  0.0013800701273995878  0.9987369213337689  1.0000
  Se  Se1       1.0  0.008218179768237584  0.004140210859264726  0.9991300389015365  1.0000
  Se  Se2       1.0  0.004738999720406226  0.004274418642583959  0.9994359036563031  1.0000
  Se  Se3       1.0  0.0015515131914535906  0.004140210430038632  0.9988213760521447  1.0000
  Se  Se4       1.0  0.0072325601992893  0.008211012352798927  0.9994930781101675  1.0000
  Se  Se5       1.0  0.003972792389962944  0.00861993030147231  0.9988067974460014  1.0000
  Se  Se6       1.0  0.0006394591902709541  0.008619930367517415  0.9991154598374951  1.0000
  Se  Se7       1.0  0.007937135572121114  0.004768946122672244  0.9996025916640614  1.0000
  Se  Se8       1.0  0.0048848466572456  0.004140210617814395  0.9989757071993496  1.0000
  Se  Se9       1.0  0.0015515131914535906  0.004140210430038632  0.9992843701449657  1.0000
  Se  Se10      1.0  0.0005143143914133897  0.006768630464718196  0.9996913205036815  1.0000
  Se  Se11      1.0  0.007306125855754954  0.008619930195171278  0.9989611285970659  1.0000
  Se  Se12      1.0  0.003972792389962944  0.00861993030147231  0.999269791002717  1.0000
