data_image0
_chemical_formula_structural       COAl18Cu6
_chemical_formula_sum              "C1 O1 Al18 Cu6"
_cell_length_a       8.2668537509189
_cell_length_b       6.299111657065438
_cell_length_c       100.0265884399414
_cell_angle_alpha    87.59534111557328
_cell_angle_beta     85.21034569979993
_cell_angle_gamma    107.74545997776545

_space_group_name_H-M_alt    "P 1"
_space_group_IT_number       1

loop_
  _space_group_symop_operation_xyz
  'x, y, z'

loop_
  _atom_site_type_symbol
  _atom_site_label
  _atom_site_symmetry_multiplicity
  _atom_site_fract_x
  _atom_site_fract_y
  _atom_site_fract_z
  _atom_site_occupancy
  C   C1        1.0  0.00609173414741939  0.0007431954085205424  2.78910874988177e-05  1.0000
  O   O1        1.0  0.00609173414741939  0.0007431954085205424  0.00014785943297428294  1.0000
  Al  Al1       1.0  0.009791666603255634  0.009482918691125677  0.9996380239407872  1.0000
  Al  Al2       1.0  0.008958333396744367  0.006982918943781066  0.9998881787862063  1.0000
  Al  Al3       1.0  0.009375000000000001  0.003232918850009001  0.9997631015719715  1.0000
  Al  Al4       1.0  0.006523807253694555  0.009073756339805835  0.9997911465625821  1.0000
  Al  Al5       1.0  0.00694047385695019  0.005323756468003974  0.9996660693477608  1.0000
  Al  Al6       1.0  0.006107140650438921  0.0028237564246990894  0.9999162241939619  1.0000
  Al  Al7       1.0  0.0018095260003749877  0.0011420811741863245  0.9998601333504035  1.0000
  Al  Al8       1.0  0.0022261926036306217  0.0073920809413129335  0.9997350563153027  1.0000
  Al  Al9       1.0  0.0026428592068862555  0.0036420810695110724  0.9996099785045934  1.0000
  Al  Al10      1.0  0.0010416666270347712  0.008232918653409985  0.9992627914319248  1.0000
  Al  Al11      1.0  0.00020833334621369936  0.005732918579986505  0.9995129462787182  1.0000
  Al  Al12      1.0  0.0006250000237791373  0.00198291873830324  0.9993878687653606  1.0000
  Al  Al13      1.0  0.007773807063461457  0.007823756215348586  0.9994159142043978  1.0000
  Al  Al14      1.0  0.008190473666717091  0.004073756343546725  0.9992908366916325  1.0000
  Al  Al15      1.0  0.007357140460205824  0.0015737564482219773  0.9995409915374426  1.0000
  Al  Al16      1.0  0.0030595260479332623  0.009892081080997322  0.999484901169262  1.0000
  Al  Al17      1.0  0.003476192651188896  0.006142081209195463  0.9993598236564968  1.0000
  Al  Al18      1.0  0.0038928592544445304  0.002392081189413466  0.9992347461441226  1.0000
  Cu  Cu1       1.0  0.004583333111394719  0.0013579187260193636  0.9997005624449686  1.0000
  Cu  Cu2       1.0  0.003749999904883451  0.008857918654598255  0.9999507174700103  1.0000
  Cu  Cu3       1.0  0.004166666508139085  0.005107918782796394  0.999825640255189  1.0000
  Cu  Cu4       1.0  0.005833333396744366  0.0001079189792962978  0.9993253300825043  1.0000
  Cu  Cu5       1.0  0.004999999714650353  0.007607918530141007  0.999575485111826  1.0000
  Cu  Cu6       1.0  0.005416666317905988  0.0038579186583391455  0.9994504075990608  1.0000
