data_image0
_chemical_formula_structural       COZn16Cu8Au8Zn16Cu8Au8
_chemical_formula_sum              "C1 O1 Zn32 Cu16 Au16"
_cell_length_a       12.13190323971619
_cell_length_b       6.578917245583316
_cell_length_c       109.47350311279297
_cell_angle_alpha    92.42173428794132
_cell_angle_beta     74.94867434311291
_cell_angle_gamma    74.94867500006949

_space_group_name_H-M_alt    "P 1"
_space_group_IT_number       1

loop_
  _space_group_symop_operation_xyz
  'x, y, z'

loop_
  _atom_site_type_symbol
  _atom_site_label
  _atom_site_symmetry_multiplicity
  _atom_site_fract_x
  _atom_site_fract_y
  _atom_site_fract_z
  _atom_site_occupancy
  C   C1        1.0  0.007614083048637599  0.005618580618022397  0.9999149567488749  1.0000
  O   O1        1.0  0.007614083048637599  0.005618580618022397  2.4572536965025742e-05  1.0000
  Zn  Zn1       1.0  0.0005730444877606488  0.0015484852174442762  0.9998175815004413  1.0000
  Zn  Zn2       1.0  0.005618287743640862  0.003948906689901517  0.9993762794338311  1.0000
  Zn  Zn3       1.0  0.0055636948241942355  0.009073658645829418  0.9996804172106857  1.0000
  Zn  Zn4       1.0  0.0006182877701429229  0.0064489066766504856  0.9995265193841711  1.0000
  Zn  Zn5       1.0  0.008122103033268949  0.002696999045087474  0.9993010448164774  1.0000
  Zn  Zn6       1.0  0.003122103391046764  0.005196998866198566  0.9994512847568633  1.0000
  Zn  Zn7       1.0  0.0030594227052989534  0.0003332509120991022  0.9997634943365495  1.0000
  Zn  Zn8       1.0  0.008169892211243725  0.0076164269670827576  0.9995930131597345  1.0000
  Zn  Zn9       1.0  0.008122890144464639  0.0020834037886433183  0.9996514414271391  1.0000
  Zn  Zn10      1.0  0.0030987789276350425  0.004503563248061554  0.9997961518072881  1.0000
  Zn  Zn11      1.0  0.0031182877568918924  0.00951071117318497  0.9994927569724956  1.0000
  Zn  Zn12      1.0  0.008118287399114077  0.007010711352073879  0.9993425170321097  1.0000
  Zn  Zn13      1.0  0.0006221033628883251  0.0007588026674131584  0.9995677623167661  1.0000
  Zn  Zn14      1.0  0.005644697709441755  0.003136154486346411  0.9997315282369782  1.0000
  Zn  Zn15      1.0  0.005622103377795734  0.008258803362733049  0.9994175223451878  1.0000
  Zn  Zn16      1.0  0.0006718278952377366  0.0055733986422318695  0.9998490916664454  1.0000
  Cu  Cu1       1.0  0.00937019504392812  0.003908977397473603  0.9994536839995013  1.0000
  Cu  Cu2       1.0  0.004343640337124018  0.006388247876607308  0.9995919979016265  1.0000
  Cu  Cu3       1.0  0.004370195401705935  0.0014089774339507964  0.9993034441034974  1.0000
  Cu  Cu4       1.0  0.009426955169368943  0.0088332134597927  0.9997511385257339  1.0000
  Cu  Cu5       1.0  0.006870195388454905  0.000798732081548052  0.9994903577054698  1.0000
  Cu  Cu6       1.0  0.0019370461999183143  0.0032839069392467226  0.999630918345068  1.0000
  Cu  Cu7       1.0  0.0018701955805948435  0.00829873233686488  0.9993401172485432  1.0000
  Cu  Cu8       1.0  0.006822820967726342  0.005913740538102031  0.9997787250217416  1.0000
  Au  Au1       1.0  0.00937019504392812  0.009589228301430875  0.9994128038825091  1.0000
  Au  Au2       1.0  0.004370195401705935  0.002089227419768372  0.9995630438428891  1.0000
  Au  Au3       1.0  0.004399092585881093  0.006960225099251952  0.9998388707618491  1.0000
  Au  Au4       1.0  0.009269493177139942  0.0046775986516160994  0.999721224157183  1.0000
  Au  Au5       1.0  0.006870195388454905  0.0051184821637408244  0.9995312378031875  1.0000
  Au  Au6       1.0  0.001858362741874765  0.007744448653095842  0.9996936786590626  1.0000
  Au  Au7       1.0  0.0018701955805948435  0.0026184819996605073  0.9993809979114411  1.0000
  Au  Au8       1.0  0.007021643400613796  0.009881518725834698  0.999814346923597  1.0000
  Zn  Zn17      1.0  0.0006182877701429229  0.0014489066086401385  0.9992260395470617  1.0000
  Zn  Zn18      1.0  0.005618287743640862  0.003948906689901517  0.9987753194659457  1.0000
  Zn  Zn19      1.0  0.005618287743640862  0.008948906757911865  0.9990757995752884  1.0000
  Zn  Zn20      1.0  0.0006182877701429229  0.0064489066766504856  0.9989255594162857  1.0000
  Zn  Zn21      1.0  0.008122103033268949  0.002696999045087474  0.9987000848485921  1.0000
  Zn  Zn22      1.0  0.003122103391046764  0.005196998866198566  0.998850324788978  1.0000
  Zn  Zn23      1.0  0.003122103391046764  0.00019699879818821798  0.9991508049197538  1.0000
  Zn  Zn24      1.0  0.008122103033268949  0.007696999113097821  0.9990005649579348  1.0000
  Zn  Zn25      1.0  0.008118287399114077  0.002010710717310631  0.9990420371935611  1.0000
  Zn  Zn26      1.0  0.0031182877568918924  0.004510710538421722  0.999192277133947  1.0000
  Zn  Zn27      1.0  0.0031182877568918924  0.00951071117318497  0.9988917972768434  1.0000
  Zn  Zn28      1.0  0.008118287399114077  0.007010711352073879  0.9987415573364576  1.0000
  Zn  Zn29      1.0  0.0006221033628883251  0.0007588026674131584  0.998966802621114  1.0000
  Zn  Zn30      1.0  0.005622103377795734  0.003258802727969802  0.9991170425066391  1.0000
  Zn  Zn31      1.0  0.005622103377795734  0.008258803362733049  0.9988165626495357  1.0000
  Zn  Zn32      1.0  0.0006221033628883251  0.0057588027354235054  0.9992672824582235  1.0000
  Cu  Cu9       1.0  0.00937019504392812  0.003908977397473603  0.9988527243038492  1.0000
  Cu  Cu10      1.0  0.004370195401705935  0.0064089772185846935  0.999002964244235  1.0000
  Cu  Cu11      1.0  0.004370195401705935  0.0014089774339507964  0.9987024844078451  1.0000
  Cu  Cu12      1.0  0.00937019504392812  0.00890897746548395  0.9991532041409587  1.0000
  Cu  Cu13      1.0  0.006870195388454905  0.000798732081548052  0.9988893974653512  1.0000
  Cu  Cu14      1.0  0.0018701955805948435  0.003298731985478083  0.9990396374107142  1.0000
  Cu  Cu15      1.0  0.0018701955805948435  0.00829873233686488  0.9987391575528911  1.0000
  Cu  Cu16      1.0  0.006870195388454905  0.0057987324329348494  0.9991898773031803  1.0000
  Au  Au9       1.0  0.00937019504392812  0.009589228301430875  0.998811844186857  1.0000
  Au  Au10      1.0  0.004370195401705935  0.002089227419768372  0.9989620841472369  1.0000
  Au  Au11      1.0  0.004370195401705935  0.007089227487778719  0.9992625639843463  1.0000
  Au  Au12      1.0  0.00937019504392812  0.004589227666667628  0.9991123240439604  1.0000
  Au  Au13      1.0  0.006870195388454905  0.0051184821637408244  0.9989302781075354  1.0000
  Au  Au14      1.0  0.0018701955805948435  0.007618482067670854  0.9990805180528983  1.0000
  Au  Au15      1.0  0.0018701955805948435  0.0026184819996605073  0.9987800379435556  1.0000
  Au  Au16      1.0  0.006870195388454905  0.00011848209573047663  0.9992307579660781  1.0000
