data_image0
_chemical_formula_structural       HSb16Au8
_chemical_formula_sum              "H1 Sb16 Au8"
_cell_length_a       6.836798667907715
_cell_length_b       9.668693542480469
_cell_length_c       31.325225830078125
_cell_angle_alpha    90.0
_cell_angle_beta     90.0
_cell_angle_gamma    90.0

_space_group_name_H-M_alt    "P 1"
_space_group_IT_number       1

loop_
  _space_group_symop_operation_xyz
  'x, y, z'

loop_
  _atom_site_type_symbol
  _atom_site_label
  _atom_site_symmetry_multiplicity
  _atom_site_fract_x
  _atom_site_fract_y
  _atom_site_fract_z
  _atom_site_occupancy
  H   H1        1.0  0.008693483268116474  0.000604731952147586  0.0001932066112519667  1.0000
  Sb  Sb1       1.0  0.0008936714645139918  0.006160346307859456  0.9996800233576217  1.0000
  Sb  Sb2       1.0  0.001745856919287372  0.001634783864821332  0.9980514444979249  1.0000
  Sb  Sb3       1.0  0.006745857006469469  0.0016117490587728193  0.9972798065695281  1.0000
  Sb  Sb4       1.0  0.006745857006469469  0.006611748750537562  0.9988230821884757  1.0000
  Sb  Sb5       1.0  0.009268892194872771  0.00787326626915004  0.9976691804994112  1.0000
  Sb  Sb6       1.0  0.009492625432022166  0.0028136951051501427  0.9993246414309365  1.0000
  Sb  Sb7       1.0  0.00426889183524662  0.005373266423267668  0.9976620705680418  1.0000
  Sb  Sb8       1.0  0.0045019570985965355  0.0004269860202519194  0.9992699435037665  1.0000
  Sb  Sb9       1.0  0.006887320857354325  0.0055661658264995525  0.0  1.0000
  Sb  Sb10      1.0  0.006745857006469469  0.0003732664425323721  0.9984408184278081  1.0000
  Sb  Sb11      1.0  0.002144061558084619  0.0034875701974974257  1.9770237690763934e-05  1.0000
  Sb  Sb12      1.0  0.001745856919287372  0.00787326626915004  0.9984337087342846  1.0000
  Sb  Sb13      1.0  0.00426889183524662  0.009134783787762517  0.9972798065695281  1.0000
  Sb  Sb14      1.0  0.00426889183524662  0.004134783710703704  0.9988230821884757  1.0000
  Sb  Sb15      1.0  0.009268892194872771  0.00411174890465519  0.9980514444979249  1.0000
  Sb  Sb16      1.0  0.008569752255854208  0.009626733422614702  0.9995563619741054  1.0000
  Au  Au1       1.0  0.00564248038106388  0.003108976775459739  0.9996107901838774  1.0000
  Au  Au2       1.0  0.005507374284636017  0.00787326626915004  0.9980514444979249  1.0000
  Au  Au3       1.0  0.0005073743336759473  0.005373266423267668  0.9972798065695281  1.0000
  Au  Au4       1.0  0.0005073743336759473  0.0003732664425323721  0.9988230821884757  1.0000
  Au  Au5       1.0  0.005242905212450217  0.007721893475621303  0.9995800243242281  1.0000
  Au  Au6       1.0  0.005507374284636017  0.0028732663847382614  0.9980514444979249  1.0000
  Au  Au7       1.0  0.0005073743336759473  0.005373266423267668  0.9988230821884757  1.0000
  Au  Au8       1.0  0.0005073743336759473  0.0003732664425323721  0.9972798065695281  1.0000
