data_image0
_chemical_formula_structural       COCa3PbCa3Pb
_chemical_formula_sum              "C1 O1 Ca6 Pb2"
_cell_length_a       5.170364856719971
_cell_length_b       5.170364856719971
_cell_length_c       101.02218627929688
_cell_angle_alpha    90.0
_cell_angle_beta     90.0
_cell_angle_gamma    90.0

_space_group_name_H-M_alt    "P 1"
_space_group_IT_number       1

loop_
  _space_group_symop_operation_xyz
  'x, y, z'

loop_
  _atom_site_type_symbol
  _atom_site_label
  _atom_site_symmetry_multiplicity
  _atom_site_fract_x
  _atom_site_fract_y
  _atom_site_fract_z
  _atom_site_occupancy
  C   C1        1.0  0.007500042250601099  0.002500011081416182  0.00017145257258038938  1.0000
  O   O1        1.0  0.007500042250601099  0.002500011081416182  0.00029023801126485706  1.0000
  Ca  Ca1       1.0  0.0024998396004635597  0.00749994498199352  0.9997509344427763  1.0000
  Ca  Ca2       1.0  0.007500246874931119  0.007500016312305745  0.999999959288938  1.0000
  Ca  Ca3       1.0  0.0025000424235230687  0.002500011081416182  0.0  1.0000
  Pb  Pb1       1.0  0.007497665294035133  0.0025000076590022116  0.999767744571292  1.0000
  Ca  Ca4       1.0  0.0024997531394790446  0.007499984609944756  0.9992378977694963  1.0000
  Ca  Ca5       1.0  0.007499753326811178  0.007499984609944756  0.9994938001300677  1.0000
  Ca  Ca6       1.0  0.0024997531394790446  0.002499984242485572  0.9994938001300677  1.0000
  Pb  Pb2       1.0  0.007499753326811178  0.002499984242485572  0.9992378977694963  1.0000
