data_image0
_chemical_formula_structural       HV10Pt10V10Pt10
_chemical_formula_sum              "H1 V20 Pt20"
_cell_length_a       6.997020777521646
_cell_length_b       7.258870415648685
_cell_length_c       105.38508605957031
_cell_angle_alpha    80.48454425870203
_cell_angle_beta     84.48446869781485
_cell_angle_gamma    54.539173731736646

_space_group_name_H-M_alt    "P 1"
_space_group_IT_number       1

loop_
  _space_group_symop_operation_xyz
  'x, y, z'

loop_
  _atom_site_type_symbol
  _atom_site_label
  _atom_site_symmetry_multiplicity
  _atom_site_fract_x
  _atom_site_fract_y
  _atom_site_fract_z
  _atom_site_occupancy
  H   H1        1.0  0.0070093726741602795  0.007615467413866178  0.999980436536367  1.0000
  V   V1        1.0  0.001817466764370959  0.006023265122241448  0.9988818040016914  1.0000
  V   V2        1.0  0.009817467024374558  0.004023265203637798  0.9990161118903876  1.0000
  V   V3        1.0  0.007817466813677279  0.0020232652850341497  0.9991504195445402  1.0000
  V   V4        1.0  0.003817466975068236  0.008023265040845096  0.9987474963475388  1.0000
  V   V5        1.0  0.005817466583900725  2.326539872275415e-05  0.9992847271984469  1.0000
  V   V6        1.0  0.0061825333532406984  0.0019756647942690947  0.998924442345354  1.0000
  V   V7        1.0  0.004182534166287536  0.00997566462766094  0.9990587502899038  1.0000
  V   V8        1.0  0.0021825334207029026  0.00797566470905729  0.9991930579474698  1.0000
  V   V9        1.0  0.008182534192754082  0.003975664553895495  0.9987901344062043  1.0000
  V   V10       1.0  0.00018253347744930475  0.005975664790453641  0.9986558267995878  1.0000
  Pt  Pt1       1.0  0.008773897426949267  0.008088618679909093  0.9990861917237969  1.0000
  Pt  Pt2       1.0  0.00677389721625199  0.0060886187613054445  0.9992204993779495  1.0000
  Pt  Pt3       1.0  0.0047738973525845675  0.004088619160656293  0.9986832682259391  1.0000
  Pt  Pt4       1.0  0.0007738972749508023  8.86191942799803e-05  0.9989518838163158  1.0000
  Pt  Pt5       1.0  0.0027738975032597195  0.0020886190830753954  0.9988175758795957  1.0000
  Pt  Pt6       1.0  0.00722610290463539  0.007910311069993292  0.9988543625263742  1.0000
  Pt  Pt7       1.0  0.005226102693938113  0.005910311151389644  0.9989886704633213  1.0000
  Pt  Pt8       1.0  0.0032261026710983386  0.003910310914831498  0.9991229781198956  1.0000
  Pt  Pt9       1.0  0.009226103115332668  0.00991031098859694  0.9987200548722216  1.0000
  Pt  Pt10      1.0  0.0012261027278447397  0.001910310996227849  0.9992572857723415  1.0000
  V   V11       1.0  0.001817466764370959  0.006023265122241448  0.9995533430848139  1.0000
  V   V12       1.0  0.009785662003683865  0.004013224518587386  0.9996875683986283  1.0000
  V   V13       1.0  0.007644615260877754  0.002135914337523645  0.9998106250088545  1.0000
  V   V14       1.0  0.003817466975068236  0.008023265040845096  0.9994190348650723  1.0000
  V   V15       1.0  0.00545795088555969  0.009976734226587744  0.9999254514351116  1.0000
  V   V16       1.0  0.0061825333532406984  0.0019756647942690947  0.999595981145682  1.0000
  V   V17       1.0  0.00423725095961555  0.009936962570417  0.9997296467487401  1.0000
  V   V18       1.0  0.0023425152410703827  0.008042487297895914  0.9998550541926273  1.0000
  V   V19       1.0  0.008182534192754082  0.003975664553895495  0.9994616734893268  1.0000
  V   V20       1.0  0.00018253347744930475  0.005975664790453641  0.9993273655999158  1.0000
  Pt  Pt11      1.0  0.008825670221754544  0.008109844686197938  0.9997691526006535  1.0000
  Pt  Pt12      1.0  0.006746875740893762  0.005958375060833599  0.9998890979728939  1.0000
  Pt  Pt13      1.0  0.0047738973525845675  0.004088619160656293  0.9993548070262671  1.0000
  Pt  Pt14      1.0  0.0007738972749508023  8.86191942799803e-05  0.9996234223338494  1.0000
  Pt  Pt15      1.0  0.0027738975032597195  0.0020886190830753954  0.9994891146799239  1.0000
  Pt  Pt16      1.0  0.00722610290463539  0.007910311069993292  0.9995259013267023  1.0000
  Pt  Pt17      1.0  0.005226102693938113  0.005910311151389644  0.9996602089808548  1.0000
  Pt  Pt18      1.0  0.0031796991115350176  0.003960520381218997  0.9997995321290882  1.0000
  Pt  Pt19      1.0  0.009226103115332668  0.00991031098859694  0.9993915936725496  1.0000
  Pt  Pt20      1.0  0.001034654642619875  0.0018127592181265931  0.9999178349414423  1.0000
