data_image0
_chemical_formula_structural       COAg12Sn4
_chemical_formula_sum              "C1 O1 Ag12 Sn4"
_cell_length_a       4.954258918762207
_cell_length_b       8.13156273086966
_cell_length_c       37.47374725341797
_cell_angle_alpha    98.95765042532388
_cell_angle_beta     90.0
_cell_angle_gamma    90.0

_space_group_name_H-M_alt    "P 1"
_space_group_IT_number       1

loop_
  _space_group_symop_operation_xyz
  'x, y, z'

loop_
  _atom_site_type_symbol
  _atom_site_label
  _atom_site_symmetry_multiplicity
  _atom_site_fract_x
  _atom_site_fract_y
  _atom_site_fract_z
  _atom_site_occupancy
  C   C1        1.0  0.005833333167907206  0.003089960586847077  0.00046199771543635584  1.0000
  O   O1        1.0  0.005833333167907206  0.003089960586847077  0.0007822217494840362  1.0000
  Ag  Ag1       1.0  0.007499999518760358  0.008369631269865525  0.9983220305145619  1.0000
  Ag  Ag2       1.0  0.007499999518760358  0.003369631186384463  0.9994069984141517  1.0000
  Ag  Ag3       1.0  0.0024999997142639624  0.004125415149463305  0.9984860306768913  1.0000
  Ag  Ag4       1.0  0.0024999999022481977  0.009116040077855107  0.999610972062816  1.0000
  Ag  Ag5       1.0  0.0024999997142639624  0.007921802681284059  0.9987684134311948  1.0000
  Ag  Ag6       1.0  0.002500000090232433  0.0027853970942535466  0.9998775106521529  1.0000
  Ag  Ag7       1.0  0.007499999518760358  0.004622040737362911  0.00015616420690276034  1.0000
  Ag  Ag8       1.0  0.007499999518760358  0.009573243589633995  0.9991246155463145  1.0000
  Ag  Ag9       1.0  0.0024999997142639624  0.005426756428917353  0.9993098227170355  1.0000
  Ag  Ag10      1.0  0.0024999997142639624  0.0004267566063146084  0.9982248545343162  1.0000
  Ag  Ag11      1.0  0.007499999518760358  0.0020682899069304154  0.9985832067716501  1.0000
  Ag  Ag12      1.0  0.007499999518760358  0.0071653877405159876  0.9996679714453678  1.0000
  Sn  Sn1       1.0  0.0024999999022481977  0.006400549560650675  9.341106679805883e-05  1.0000
  Sn  Sn2       1.0  0.0024999997142639624  0.0016506233736776155  0.9990339847555182  1.0000
  Sn  Sn3       1.0  0.007499999518760358  0.005844422846224234  0.9988590443316074  1.0000
  Sn  Sn4       1.0  0.007500000270697299  0.0008551917037203851  0.9999485859228402  1.0000
