data_image0
_chemical_formula_structural       COZn5Pd5Zn5Pd5
_chemical_formula_sum              "C1 O1 Zn10 Pd10"
_cell_length_a       4.533723782748933
_cell_length_b       6.578037546619479
_cell_length_c       102.42707824707031
_cell_angle_alpha    104.08892584479744
_cell_angle_beta     97.61368019506952
_cell_angle_gamma    73.13111546978205

_space_group_name_H-M_alt    "P 1"
_space_group_IT_number       1

loop_
  _space_group_symop_operation_xyz
  'x, y, z'

loop_
  _atom_site_type_symbol
  _atom_site_label
  _atom_site_symmetry_multiplicity
  _atom_site_fract_x
  _atom_site_fract_y
  _atom_site_fract_z
  _atom_site_occupancy
  C   C1        1.0  0.009698804472929598  0.007598194763580594  0.0001756639823714557  1.0000
  O   O1        1.0  0.009698804472929598  0.007598194763580594  0.00029282015747101757  1.0000
  Zn  Zn1       1.0  0.00030119543994041074  0.005038260854096902  0.9997950392557673  1.0000
  Zn  Zn2       1.0  0.008301195547723435  0.009038260553463878  0.999689510251166  1.0000
  Zn  Zn3       1.0  0.0023785932184080994  0.0009617389182869187  0.9999055936163523  1.0000
  Zn  Zn4       1.0  0.006422799896244661  0.0030418038782558756  9.870511425018306e-05  1.0000
  Zn  Zn5       1.0  0.004387926097576611  0.007136827455743557  1.7084880478119824e-05  1.0000
  Pd  Pd1       1.0  0.00046680155613938165  0.004960107869561774  4.7382120052512515e-05  1.0000
  Pd  Pd2       1.0  0.008397545396471624  0.009018302964562573  0.999954478197652  1.0000
  Pd  Pd3       1.0  0.0023011953257033126  0.0010382610158168343  0.9996367457568254  1.0000
  Pd  Pd4       1.0  0.0063146709334092185  0.0029925765985238557  0.9998432182276319  1.0000
  Pd  Pd5       1.0  0.00430119539971002  0.007038260721566477  0.9997422747531927  1.0000
  Zn  Zn6       1.0  0.00030119543994041074  0.005038260854096902  0.9992673942065461  1.0000
  Zn  Zn7       1.0  0.008301195547723435  0.009038260553463878  0.9991618652019448  1.0000
  Zn  Zn8       1.0  0.0023011953257033126  0.0010382610158168343  0.9993729232322147  1.0000
  Zn  Zn9       1.0  0.00630119525858095  0.003038260888368148  0.9995839812541725  1.0000
  Zn  Zn10      1.0  0.00430119539971002  0.007038260721566477  0.9994784522285821  1.0000
  Pd  Pd6       1.0  0.00030119543994041074  0.005038260854096902  0.9995312167311566  1.0000
  Pd  Pd7       1.0  0.008301195547723435  0.009038260553463878  0.9994256877265554  1.0000
  Pd  Pd8       1.0  0.0023011953257033126  0.0010382610158168343  0.9991091007076042  1.0000
  Pd  Pd9       1.0  0.00630119525858095  0.003038260888368148  0.9993201587295619  1.0000
  Pd  Pd10      1.0  0.00430119539971002  0.007038260721566477  0.9992146297039716  1.0000
