data_image0
_chemical_formula_structural       HMn8Ru4Si4Mn8Ru4Si4Mn8Ru4Si4Mn8Ru4Si4
_chemical_formula_sum              "H1 Mn32 Ru16 Si16"
_cell_length_a       8.139947891235352
_cell_length_b       8.139947891235352
_cell_length_c       104.53487396240234
_cell_angle_alpha    90.0
_cell_angle_beta     90.0
_cell_angle_gamma    90.0

_space_group_name_H-M_alt    "P 1"
_space_group_IT_number       1

loop_
  _space_group_symop_operation_xyz
  'x, y, z'

loop_
  _atom_site_type_symbol
  _atom_site_label
  _atom_site_symmetry_multiplicity
  _atom_site_fract_x
  _atom_site_fract_y
  _atom_site_fract_z
  _atom_site_occupancy
  H   H1        1.0  0.004999999487426063  0.003749981767012827  0.00011786036589170823  1.0000
  Mn  Mn1       1.0  3.4999999450547996e-10  0.001249999986270341  0.9995910820510313  1.0000
  Mn  Mn2       1.0  0.0024999988284024307  0.001250004333995696  0.9999973201112717  1.0000
  Mn  Mn3       1.0  0.002499997684264179  0.003749986343565832  0.9998682412750122  1.0000
  Mn  Mn4       1.0  1.8499999826482718e-09  0.0037499897759805862  0.9997346921562782  1.0000
  Mn  Mn5       1.0  3.4999999450547996e-10  0.001249999986270341  0.9990404706874455  1.0000
  Mn  Mn6       1.0  0.0025000004301959826  0.001249999986270341  0.9994534292814085  1.0000
  Mn  Mn7       1.0  0.0025000004301959826  0.003750000073224848  0.9993157765117857  1.0000
  Mn  Mn8       1.0  3.4999999450547996e-10  0.003750000073224848  0.9991781234570684  1.0000
  Ru  Ru1       1.0  6.49999970311333e-10  0.0012500332806934546  0.9998659719224294  1.0000
  Ru  Ru2       1.0  0.0025000004301959826  0.003750000073224848  0.9995910820510313  1.0000
  Ru  Ru3       1.0  3.4999999450547996e-10  0.001249999986270341  0.9993157765117857  1.0000
  Ru  Ru4       1.0  0.0025000004301959826  0.003750000073224848  0.9990404706874455  1.0000
  Si  Si1       1.0  0.009999999890162727  0.003749981767012827  0.0  1.0000
  Si  Si2       1.0  0.0024999988284024307  0.0012500077664104499  0.9997236669800121  1.0000
  Si  Si3       1.0  3.4999999450547996e-10  0.003750000073224848  0.9994534292814085  1.0000
  Si  Si4       1.0  0.0025000004301959826  0.001249999986270341  0.9991781234570684  1.0000
  Mn  Mn9       1.0  3.4999999450547996e-10  0.006249999816937879  0.9995910820510313  1.0000
  Mn  Mn10      1.0  0.0024999988284024307  0.006250004393490885  0.9999973201112717  1.0000
  Mn  Mn11      1.0  0.002499997684264179  0.008749985830991895  0.9998682412750122  1.0000
  Mn  Mn12      1.0  1.8499999826482718e-09  0.0087499894922343  0.9997346921562782  1.0000
  Mn  Mn13      1.0  3.4999999450547996e-10  0.006249999816937879  0.9990404706874455  1.0000
  Mn  Mn14      1.0  0.0025000004301959826  0.006249999816937879  0.9994534292814085  1.0000
  Mn  Mn15      1.0  0.0025000004301959826  0.00874999956065091  0.9993157765117857  1.0000
  Mn  Mn16      1.0  3.4999999450547996e-10  0.00874999956065091  0.9991781234570684  1.0000
  Ru  Ru5       1.0  6.49999970311333e-10  0.0062500332257748184  0.9998659719224294  1.0000
  Ru  Ru6       1.0  0.0025000004301959826  0.00874999956065091  0.9995910820510313  1.0000
  Ru  Ru7       1.0  3.4999999450547996e-10  0.006249999816937879  0.9993157765117857  1.0000
  Ru  Ru8       1.0  0.0025000004301959826  0.00874999956065091  0.9990404706874455  1.0000
  Si  Si5       1.0  0.009999999890162727  0.00874998125443889  0.0  1.0000
  Si  Si6       1.0  0.0024999988284024307  0.006250007597077989  0.9997236669800121  1.0000
  Si  Si7       1.0  3.4999999450547996e-10  0.00874999956065091  0.9994534292814085  1.0000
  Si  Si8       1.0  0.0025000004301959826  0.006249999816937879  0.9991781234570684  1.0000
  Mn  Mn17      1.0  0.0050000004027366644  0.001249999986270341  0.9995910820510313  1.0000
  Mn  Mn18      1.0  0.007499998773483794  0.001250004333995696  0.9999973201112717  1.0000
  Mn  Mn19      1.0  0.007499997400517893  0.003749986343565832  0.9998682412750122  1.0000
  Mn  Mn20      1.0  0.005000001775702566  0.0037499897759805862  0.9997346921562782  1.0000
  Mn  Mn21      1.0  0.0050000004027366644  0.001249999986270341  0.9990404706874455  1.0000
  Mn  Mn22      1.0  0.007500000146449696  0.001249999986270341  0.9994534292814085  1.0000
  Mn  Mn23      1.0  0.007500000146449696  0.003750000073224848  0.9993157765117857  1.0000
  Mn  Mn24      1.0  0.0050000004027366644  0.003750000073224848  0.9991781234570684  1.0000
  Ru  Ru9       1.0  0.0050000004027366644  0.0012500332806934546  0.9998659719224294  1.0000
  Ru  Ru10      1.0  0.007500000146449696  0.003750000073224848  0.9995910820510313  1.0000
  Ru  Ru11      1.0  0.0050000004027366644  0.001249999986270341  0.9993157765117857  1.0000
  Ru  Ru12      1.0  0.007500000146449696  0.003750000073224848  0.9990404706874455  1.0000
  Si  Si9       1.0  0.004999999487426063  0.003749981767012827  0.0  1.0000
  Si  Si10      1.0  0.007499998773483794  0.0012500077664104499  0.9997236669800121  1.0000
  Si  Si11      1.0  0.0050000004027366644  0.003750000073224848  0.9994534292814085  1.0000
  Si  Si12      1.0  0.007500000146449696  0.001249999986270341  0.9991781234570684  1.0000
  Mn  Mn25      1.0  0.0050000004027366644  0.006249999816937879  0.9995910820510313  1.0000
  Mn  Mn26      1.0  0.007499998773483794  0.006250004393490885  0.9999973201112717  1.0000
  Mn  Mn27      1.0  0.007499997400517893  0.008749985830991895  0.9998682412750122  1.0000
  Mn  Mn28      1.0  0.005000001775702566  0.0087499894922343  0.9997346921562782  1.0000
  Mn  Mn29      1.0  0.0050000004027366644  0.006249999816937879  0.9990404706874455  1.0000
  Mn  Mn30      1.0  0.007500000146449696  0.006249999816937879  0.9994534292814085  1.0000
  Mn  Mn31      1.0  0.007500000146449696  0.00874999956065091  0.9993157765117857  1.0000
  Mn  Mn32      1.0  0.0050000004027366644  0.00874999956065091  0.9991781234570684  1.0000
  Ru  Ru13      1.0  0.0050000004027366644  0.0062500332257748184  0.9998659719224294  1.0000
  Ru  Ru14      1.0  0.007500000146449696  0.00874999956065091  0.9995910820510313  1.0000
  Ru  Ru15      1.0  0.0050000004027366644  0.006249999816937879  0.9993157765117857  1.0000
  Ru  Ru16      1.0  0.007500000146449696  0.00874999956065091  0.9990404706874455  1.0000
  Si  Si13      1.0  0.004999999487426063  0.00874998125443889  0.0  1.0000
  Si  Si14      1.0  0.007499998773483794  0.006250007597077989  0.9997236669800121  1.0000
  Si  Si15      1.0  0.0050000004027366644  0.00874999956065091  0.9994534292814085  1.0000
  Si  Si16      1.0  0.007500000146449696  0.006249999816937879  0.9991781234570684  1.0000
