data_image0
_chemical_formula_structural       COCrSe2CrSe2CrSe2CrSe2CrSe2CrSe2CrSe2CrSe2
_chemical_formula_sum              "C1 O1 Cr8 Se16"
_cell_length_a       6.917109489440918
_cell_length_b       6.91710961615973
_cell_length_c       104.80715942382812
_cell_angle_alpha    90.0
_cell_angle_beta     90.0
_cell_angle_gamma    119.99999939399189

_space_group_name_H-M_alt    "P 1"
_space_group_IT_number       1

loop_
  _space_group_symop_operation_xyz
  'x, y, z'

loop_
  _atom_site_type_symbol
  _atom_site_label
  _atom_site_symmetry_multiplicity
  _atom_site_fract_x
  _atom_site_fract_y
  _atom_site_fract_z
  _atom_site_occupancy
  C   C1        1.0  0.004166670619613476  0.0016666630473397414  0.00016526078772193981  1.0000
  O   O1        1.0  0.004166670619613476  0.0016666630473397414  0.00027975701474177865  1.0000
  Cr  Cr1       1.0  0.0008333295150037973  3.349999763390164e-09  0.9991169865141283  1.0000
  Se  Se1       1.0  0.004166662807878432  0.0016666700434613752  0.9989803382668292  1.0000
  Se  Se2       1.0  0.002499996240622438  0.0033333366665966183  0.9992536347614274  1.0000
  Cr  Cr2       1.0  0.0008333788860062677  0.009999996318485327  0.9998577161431619  1.0000
  Se  Se3       1.0  0.004166670505801991  0.0016666633582784808  0.9997155676387706  1.0000
  Se  Se4       1.0  0.0025000039073025835  0.003333329515005615  0.0  1.0000
  Cr  Cr3       1.0  0.0008333294609913323  0.005000003134262492  0.9991169865141283  1.0000
  Se  Se5       1.0  0.004166662640968099  0.006666669601928366  0.9989803382668292  1.0000
  Se  Se6       1.0  0.002499996239595945  0.008333336691471717  0.9992536347614274  1.0000
  Cr  Cr4       1.0  0.0008333791098223439  0.004999996604548967  0.9998577161431619  1.0000
  Se  Se7       1.0  0.004166670437455285  0.00666666338315358  0.9997155676387706  1.0000
  Se  Se8       1.0  0.002500003818126934  0.008333329228941975  0.0  1.0000
  Cr  Cr5       1.0  0.005833329407291456  3.349999763390164e-09  0.9991169865141283  1.0000
  Se  Se9       1.0  0.009166662969446944  0.0016666700434613752  0.9989803382668292  1.0000
  Se  Se10      1.0  0.0074999960655898834  0.0033333366665966183  0.9992536347614274  1.0000
  Cr  Cr6       1.0  0.005833378980254566  0.009999996318485327  0.9998577161431619  1.0000
  Se  Se11      1.0  0.00916667039808965  0.0016666633582784808  0.9997155676387706  1.0000
  Se  Se12      1.0  0.007500003799590242  0.003333329515005615  0.0  1.0000
  Cr  Cr7       1.0  0.005833329353278991  0.005000003134262492  0.9991169865141283  1.0000
  Se  Se13      1.0  0.009166662533255758  0.006666669601928366  0.9989803382668292  1.0000
  Se  Se14      1.0  0.007499996131883603  0.008333336691471717  0.9992536347614274  1.0000
  Cr  Cr8       1.0  0.005833379136750429  0.004999996604548967  0.9998577161431619  1.0000
  Se  Se15      1.0  0.009166670195102518  0.00666666338315358  0.9997155676387706  1.0000
  Se  Se16      1.0  0.007500003710414593  0.008333329228941975  0.0  1.0000
