data_image0
_chemical_formula_structural       HGa6Cu3Ga6Cu3
_chemical_formula_sum              "H1 Ga12 Cu6"
_cell_length_a       5.970799446105957
_cell_length_b       6.4288692935582965
_cell_length_c       102.52779388427734
_cell_angle_alpha    71.56504983320531
_cell_angle_beta     90.0
_cell_angle_gamma    90.0

_space_group_name_H-M_alt    "P 1"
_space_group_IT_number       1

loop_
  _space_group_symop_operation_xyz
  'x, y, z'

loop_
  _atom_site_type_symbol
  _atom_site_label
  _atom_site_symmetry_multiplicity
  _atom_site_fract_x
  _atom_site_fract_y
  _atom_site_fract_z
  _atom_site_occupancy
  H   H1        1.0  0.0009598164581718467  0.009085924658385695  0.9999714629384852  1.0000
  Ga  Ga1       1.0  0.0071557787021926935  0.007580742578367857  0.9992375409317199  1.0000
  Ga  Ga2       1.0  0.0071557787021926935  0.0042474091310171465  0.9995019227716462  1.0000
  Ga  Ga3       1.0  0.0071557787021926935  0.000914075683666436  0.9993697318957688  1.0000
  Ga  Ga4       1.0  0.00284422521601345  0.007580742578367857  0.9992375409317199  1.0000
  Ga  Ga5       1.0  0.00284422521601345  0.0042474091310171465  0.9995019227716462  1.0000
  Ga  Ga6       1.0  0.00284422521601345  0.000914075683666436  0.9993697318957688  1.0000
  Cu  Cu1       1.0  1.7000001014129183e-09  0.007580742578367857  0.9994358272896218  1.0000
  Cu  Cu2       1.0  1.7000001014129183e-09  0.0042474091310171465  0.9993036364137444  1.0000
  Cu  Cu3       1.0  1.7000001014129183e-09  0.000914075683666436  0.9995680182536707  1.0000
  Ga  Ga7       1.0  0.0071557787021926935  0.007580742578367857  0.9996341139381991  1.0000
  Ga  Ga8       1.0  0.007320590431838426  0.004455742089721955  0.999911648676663  1.0000
  Ga  Ga9       1.0  0.007120552281987216  0.0009189959661450092  0.9997675682826215  1.0000
  Ga  Ga10      1.0  0.00284422521601345  0.007580742578367857  0.9996341139381991  1.0000
  Ga  Ga11      1.0  0.002679391649231564  0.004455730178978093  0.999911649494188  1.0000
  Ga  Ga12      1.0  0.0028794444611599055  0.0009190274990758729  0.9997675670760151  1.0000
  Cu  Cu4       1.0  6.299999999565024e-09  0.007762065634839374  0.9998268070927557  1.0000
  Cu  Cu5       1.0  0.009999998302942561  0.004364858227600785  0.9996845955287889  1.0000
  Cu  Cu6       1.0  0.009999998926860737  0.0012708568241706624  0.9999320980695512  1.0000
