data_image0
_chemical_formula_structural       COGa6Ni10
_chemical_formula_sum              "C1 O1 Ga6 Ni10"
_cell_length_a       5.11751283967583
_cell_length_b       5.1175127029418945
_cell_length_c       100.22257995605469
_cell_angle_alpha    90.0
_cell_angle_beta     90.0
_cell_angle_gamma    96.12556677052481

_space_group_name_H-M_alt    "P 1"
_space_group_IT_number       1

loop_
  _space_group_symop_operation_xyz
  'x, y, z'

loop_
  _atom_site_type_symbol
  _atom_site_label
  _atom_site_symmetry_multiplicity
  _atom_site_fract_x
  _atom_site_fract_y
  _atom_site_fract_z
  _atom_site_occupancy
  C   C1        1.0  0.009135078811342146  0.007240324364862685  0.00017281987879608178  1.0000
  O   O1        1.0  0.009135078811342146  0.007240324364862685  0.00029255361867742193  1.0000
  Ga  Ga1       1.0  0.004654430368203285  0.006720972618074772  0.9994345849237963  1.0000
  Ga  Ga2       1.0  0.00028239338608301195  0.0010930092993212007  0.9994345849237963  1.0000
  Ga  Ga3       1.0  0.007468411568733586  0.003906990640068153  0.9996230564176233  1.0000
  Ga  Ga4       1.0  0.004654430368203285  0.006720972618074772  0.9998115282088117  1.0000
  Ga  Ga5       1.0  0.00028239338608301195  0.0010930092993212007  0.9998115282088117  1.0000
  Ga  Ga6       1.0  0.007468411568733586  0.003906990640068153  0.0  1.0000
  Ni  Ni1       1.0  0.009717606454678817  0.006156185578202674  0.9994345849237963  1.0000
  Ni  Ni2       1.0  0.005219217048853118  0.0016577961049702842  0.9994345849237963  1.0000
  Ni  Ni3       1.0  0.0024684118542641006  0.003906990728772427  0.9996230564176233  1.0000
  Ni  Ni4       1.0  0.0024684118542641006  0.008906990524946595  0.9996230564176233  1.0000
  Ni  Ni5       1.0  0.007468411568733586  0.00890699116419172  0.9996230564176233  1.0000
  Ni  Ni6       1.0  0.009717606454678817  0.006156185578202674  0.9998115282088117  1.0000
  Ni  Ni7       1.0  0.005219217048853118  0.0016577961049702842  0.9998115282088117  1.0000
  Ni  Ni8       1.0  0.0024684118542641006  0.003906990728772427  0.0  1.0000
  Ni  Ni9       1.0  0.0024684118542641006  0.008906990524946595  0.0  1.0000
  Ni  Ni10      1.0  0.007468411568733586  0.00890699116419172  0.0  1.0000
