data_image0
_chemical_formula_structural       COCa12Ge24
_chemical_formula_sum              "C1 O1 Ca12 Ge24"
_cell_length_a       11.096769702040094
_cell_length_b       10.844449042746522
_cell_length_c       102.61831665039062
_cell_angle_alpha    94.08535462767068
_cell_angle_beta     98.89013858515382
_cell_angle_gamma    110.42751221750305

_space_group_name_H-M_alt    "P 1"
_space_group_IT_number       1

loop_
  _space_group_symop_operation_xyz
  'x, y, z'

loop_
  _atom_site_type_symbol
  _atom_site_label
  _atom_site_symmetry_multiplicity
  _atom_site_fract_x
  _atom_site_fract_y
  _atom_site_fract_z
  _atom_site_occupancy
  C   C1        1.0  0.0016238132724721989  0.003906021454537414  0.00020511216914489703  1.0000
  O   O1        1.0  0.0016238132724721989  0.003906021454537414  0.00032205001324277737  1.0000
  Ca  Ca1       1.0  0.009363459990490925  0.008195018023953842  8.778015859415843e-06  1.0000
  Ca  Ca2       1.0  0.009050806125644264  0.001757658526030888  0.9998958407420017  1.0000
  Ca  Ca3       1.0  0.008502832345499018  0.004874516987154312  0.9997505991288972  1.0000
  Ca  Ca4       1.0  0.003926398585609151  0.007621789887536604  0.9999065737154089  1.0000
  Ca  Ca5       1.0  0.0035722769181073875  0.000985628223786017  0.9997726728733723  1.0000
  Ca  Ca6       1.0  0.004308029179316154  0.004197428756992049  2.8168708364815453e-05  1.0000
  Ca  Ca7       1.0  0.008086165669098384  0.008207850165349218  0.9996181573181586  1.0000
  Ca  Ca8       1.0  0.007669498992697747  0.0015411838084781505  0.9994857153134353  1.0000
  Ca  Ca9       1.0  0.0072528323162971125  0.004874516900574162  0.9993532735020486  1.0000
  Ca  Ca10      1.0  0.0027389437478180334  0.007652294647757849  0.9995077889650349  1.0000
  Ca  Ca11      1.0  0.002322277071417398  0.0009856282478373343  0.9993753469599875  1.0000
  Ca  Ca12      1.0  0.003155610241706752  0.004318961401980922  0.9996402310626338  1.0000
  Ge  Ge1       1.0  0.0022841997926477727  0.009226656678702792  0.9999904066522906  1.0000
  Ge  Ge2       1.0  0.0018372722753546373  0.0025595287659911444  0.9998392975954289  1.0000
  Ge  Ge3       1.0  0.0015088798603536786  0.005920098634714522  0.9997090555911252  1.0000
  Ge  Ge4       1.0  0.00752002903300292  0.005459421252088443  2.51087969315649e-05  1.0000
  Ge  Ge5       1.0  0.007073325275320249  0.008859234879124468  0.9998750292543788  1.0000
  Ge  Ge6       1.0  0.006578324484065384  0.0020312100659109363  0.9997311291869013  1.0000
  Ge  Ge7       1.0  0.005997519730209891  0.000546757978566096  0.9999792193319063  1.0000
  Ge  Ge8       1.0  0.006256704903799107  0.0029920168910534204  0.9999559242992169  1.0000
  Ge  Ge9       1.0  0.006009726857278647  0.00620873796852538  0.9998508801314918  1.0000
  Ge  Ge10      1.0  0.0006250000602289326  0.007786575080480123  0.9997673372823628  1.0000
  Ge  Ge11      1.0  0.0020661643034420125  0.0013634949111833254  4.479393938634493e-05  1.0000
  Ge  Ge12      1.0  0.0014367141007644265  0.004686602691969765  0.9999180140921715  1.0000
  Ge  Ge13      1.0  0.0010922130926970842  0.009253432123513993  0.9995766137812001  1.0000
  Ge  Ge14      1.0  0.0006755464162964488  0.0025867653361484563  0.9994441717732359  1.0000
  Ge  Ge15      1.0  0.00025887985396576144  0.005920098384384336  0.999311729673006  1.0000
  Ge  Ge16      1.0  0.0061616570776170795  0.005364543059876654  0.9995986873625756  1.0000
  Ge  Ge17      1.0  0.005744990766240278  0.0086978763732356  0.9994662452685356  1.0000
  Ge  Ge18      1.0  0.005328324089839642  0.0020312098872161924  0.9993338035532592  1.0000
  Ge  Ge19      1.0  0.005416666428184428  0.009453241691640841  0.9997011165871592  1.0000
  Ge  Ge20      1.0  0.005000000116807627  0.0027865752977360276  0.9995686745882573  1.0000
  Ge  Ge21      1.0  0.0045833334404069915  0.006119908734227615  0.9994362327794634  1.0000
  Ge  Ge22      1.0  0.009374999853990465  0.007786575017888262  0.9993700117921375  1.0000
  Ge  Ge23      1.0  0.0002083333382003178  0.001119908706713551  0.999634895567169  1.0000
  Ge  Ge24      1.0  0.009791666530391102  0.004453242011891146  0.9995024536041724  1.0000
