data_image0
_chemical_formula_structural       HAl5As5Pt25
_chemical_formula_sum              "H1 Al5 As5 Pt25"
_cell_length_a       8.133049632025445
_cell_length_b       8.966565155298701
_cell_length_c       106.27149963378906
_cell_angle_alpha    101.40632292962452
_cell_angle_beta     117.44138789244325
_cell_angle_gamma    77.26177432964622

_space_group_name_H-M_alt    "P 1"
_space_group_IT_number       1

loop_
  _space_group_symop_operation_xyz
  'x, y, z'

loop_
  _atom_site_type_symbol
  _atom_site_label
  _atom_site_symmetry_multiplicity
  _atom_site_fract_x
  _atom_site_fract_y
  _atom_site_fract_z
  _atom_site_occupancy
  H   H1        1.0  0.00416379438052648  0.005554730276879842  0.00023953888303547503  1.0000
  Al  Al1       1.0  0.005194162924448387  0.0062656288855190995  0.9998522039253083  1.0000
  Al  Al2       1.0  0.0031941629453250886  0.00026562925975971756  0.9996815490564197  1.0000
  Al  Al3       1.0  0.00726650745815975  0.0023320407406447743  2.408731431864487e-05  1.0000
  Al  Al4       1.0  0.0011941629662017897  0.004265629053345545  0.9995108945031476  1.0000
  Al  Al5       1.0  0.008920749077750848  0.008063757965343274  0.00016490861551724548  1.0000
  As  As1       1.0  0.001317412486121169  0.004253557838377441  0.9999423437143564  1.0000
  As  As2       1.0  0.009194162882694984  0.008265629141528268  0.9997668767089126  1.0000
  As  As3       1.0  0.003218407580346907  0.0001879077608232826  0.00011191200746217131  1.0000
  As  As4       1.0  0.007194162903571686  0.0022656292508716276  0.9995962218356038  1.0000
  As  As5       1.0  0.005194162924448387  0.0062656288855190995  0.9994255669992439  1.0000
  Pt  Pt1       1.0  0.008771520329898643  0.006725706240325869  0.9999188323576403  1.0000
  Pt  Pt2       1.0  0.006833551293052768  0.0007191664738285257  0.9997589476436012  1.0000
  Pt  Pt3       1.0  0.0008533585173851146  0.0026404412242042262  9.071058133669276e-05  1.0000
  Pt  Pt4       1.0  0.004833551313929469  0.004719166426352708  0.9995882928125455  1.0000
  Pt  Pt5       1.0  0.0028335513348061703  0.008719166484835795  0.9994176379832578  1.0000
  Pt  Pt6       1.0  0.0015547745767207077  0.00581209193634755  0.9997748059034183  1.0000
  Pt  Pt7       1.0  0.009554774493213902  0.00981209160069466  0.999604150895611  1.0000
  Pt  Pt8       1.0  0.0035786632431103545  0.0017924081183021744  0.9999526163619655  1.0000
  Pt  Pt9       1.0  0.007554774514090604  0.0038120921338736335  0.9994334960293746  1.0000
  Pt  Pt10      1.0  0.005560487444250857  0.00768693695929716  0.00010658937334351552  1.0000
  Pt  Pt11      1.0  0.007833551543573182  0.003719166493250217  0.9998442750906955  1.0000
  Pt  Pt12      1.0  0.005833551564449884  0.0077191665517333035  0.9996736202614078  1.0000
  Pt  Pt13      1.0  0.009805836658017588  0.009772710304375008  3.658672787982789e-05  1.0000
  Pt  Pt14      1.0  0.0038335513243678196  0.0017191664810243877  0.9995029653758911  1.0000
  Pt  Pt15      1.0  0.0015614347663212378  0.00585772299468758  0.00017042459847696782  1.0000
  Pt  Pt16      1.0  0.0005547745219193672  0.002812091998985613  0.999689478464596  1.0000
  Pt  Pt17      1.0  0.008554774242693488  0.0068120923229852935  0.9995188234608932  1.0000
  Pt  Pt18      1.0  0.002554774566282357  0.008812092093593678  0.9998601333436088  1.0000
  Pt  Pt19      1.0  0.006997758030181363  0.000657324451372181  0.0001859658282848256  1.0000
  Pt  Pt20      1.0  0.0046482878140523915  0.004809045205762475  3.317082751535834e-05  1.0000
  Pt  Pt21      1.0  0.008159413363026126  0.00518111257608869  0.00010984299264905608  1.0000
  Pt  Pt22      1.0  0.006076150836504365  0.009265693445318449  0.9999248248876499  1.0000
  Pt  Pt23      1.0  0.0001941629440202948  0.0012656292179593195  0.9994255670671772  1.0000
  Pt  Pt24      1.0  0.004194162934886738  0.003265629152108586  0.99976687649219  1.0000
  Pt  Pt25      1.0  0.0021941629557634392  0.0072656287867560575  0.9995962219362657  1.0000
