data_image0
_chemical_formula_structural       COAl36Ni12
_chemical_formula_sum              "C1 O1 Al36 Ni12"
_cell_length_a       11.811835961365063
_cell_length_b       8.867096319304551
_cell_length_c       103.00926208496094
_cell_angle_alpha    108.9860027672249
_cell_angle_beta     91.95071017432069
_cell_angle_gamma    62.96129177592521

_space_group_name_H-M_alt    "P 1"
_space_group_IT_number       1

loop_
  _space_group_symop_operation_xyz
  'x, y, z'

loop_
  _atom_site_type_symbol
  _atom_site_label
  _atom_site_symmetry_multiplicity
  _atom_site_fract_x
  _atom_site_fract_y
  _atom_site_fract_z
  _atom_site_occupancy
  C   C1        1.0  0.0020242291191550368  0.006664198192422844  0.00019453335260999062  1.0000
  O   O1        1.0  0.0020242291191550368  0.006664198192422844  0.00031102796751944966  1.0000
  Al  Al1       1.0  0.004477048647061072  0.0024253322465864003  0.9996969103569058  1.0000
  Al  Al2       1.0  0.0078103823170014445  0.0024253322465864003  0.9994298690969284  1.0000
  Al  Al3       1.0  0.0011500287758984336  0.002424610232159427  0.9999629257835583  1.0000
  Al  Al4       1.0  0.002909739424216971  0.004218760233988463  0.999976706046957  1.0000
  Al  Al5       1.0  0.006215597535681013  0.004379507060594679  0.9996881061169611  1.0000
  Al  Al6       1.0  0.009548931205621385  0.004379507060594679  0.9994210651463007  1.0000
  Al  Al7       1.0  0.0041135687477707955  0.0005383111893973995  0.9998758242036051  1.0000
  Al  Al8       1.0  0.007518380760637134  0.0004711573067916362  0.9995837370656451  1.0000
  Al  Al9       1.0  0.0008517142885714111  0.0004711573067916362  0.999316695831152  1.0000
  Al  Al10      1.0  0.0045425505302253465  0.0055248221938592815  0.9999410177946055  1.0000
  Al  Al11      1.0  0.008042163867103479  0.005471157150816394  0.9996676600736947  1.0000
  Al  Al12      1.0  0.0013754974739300305  0.005471157150816394  0.9994006188395095  1.0000
  Al  Al13      1.0  0.005289313871274461  0.004379507060594679  0.9993617512034522  1.0000
  Al  Al14      1.0  0.00864581371109587  0.004464041616625784  0.9999070239853486  1.0000
  Al  Al15      1.0  0.001955980201334089  0.004379507060594679  0.9996287924634295  1.0000
  Al  Al16      1.0  0.005813097019669634  0.00937950677883295  0.9994456742081428  1.0000
  Al  Al17      1.0  0.009387362619976065  0.009247395748804815  0.9999928631792206  1.0000
  Al  Al18      1.0  0.0024797633497292615  0.00937950677883295  0.9997127154681201  1.0000
  Al  Al19      1.0  0.0067509473513508314  0.0006195015230308172  4.475018432514467e-05  1.0000
  Al  Al20      1.0  0.009927285903729809  0.0004490510237844574  0.9997860608438642  1.0000
  Al  Al21      1.0  0.003258763741859308  0.0004711573067916362  0.9995244234133454  1.0000
  Al  Al22      1.0  0.007115880202696926  0.005471157150816394  0.9993413051601858  1.0000
  Al  Al23      1.0  0.0005400415325583739  0.005564449968262359  0.9999014608992428  1.0000
  Al  Al24      1.0  0.003782546532756554  0.005471157150816394  0.9996083464201632  1.0000
  Al  Al25      1.0  0.0025083252331547447  0.0095509487271583  4.2853130464212904e-05  1.0000
  Al  Al26      1.0  0.006739380684076187  0.00937950677883295  0.9997720291216516  1.0000
  Al  Al27      1.0  7.2714290902738e-05  0.00937950677883295  0.9995049878874664  1.0000
  Al  Al28      1.0  0.007241319150689459  0.002611786057241489  0.9998955321724863  1.0000
  Al  Al29      1.0  0.0005782110496234328  0.0024253322465864003  0.9996086934756996  1.0000
  Al  Al30      1.0  0.003911544403994706  0.0024253322465864003  0.9993416525038074  1.0000
  Al  Al31      1.0  0.00552109533751884  0.0074253322163976435  0.9995995421869366  1.0000
  Al  Al32      1.0  0.008854428376321015  0.0074253322163976435  0.9993325009244957  1.0000
  Al  Al33      1.0  0.002225940289511914  0.007090560038626152  0.9998387858501154  1.0000
  Al  Al34      1.0  0.002753266541783031  0.0074253322163976435  0.9994207178339575  1.0000
  Al  Al35      1.0  0.006198268404302785  0.007387889101675345  0.9999236739225482  1.0000
  Al  Al36      1.0  0.009419933250525578  0.0074253322163976435  0.9996877590693745  1.0000
  Ni  Ni1       1.0  0.0055904685739015525  0.0024253322465864003  0.9994977071149402  1.0000
  Ni  Ni2       1.0  0.009169605804614043  0.002204431806867438  1.4833776818685426e-05  1.0000
  Ni  Ni3       1.0  0.002257135219530279  0.0024253322465864003  0.9997647483761494  1.0000
  Ni  Ni4       1.0  0.005245032475938246  0.0024323652205656566  0.9999249105678466  1.0000
  Ni  Ni5       1.0  0.00854937319670105  0.0024253322465864003  0.9996612242477175  1.0000
  Ni  Ni6       1.0  0.001882706803527603  0.0024253322465864003  0.9993941830135323  1.0000
  Ni  Ni7       1.0  0.004347613519176777  0.007484102681315443  0.9998135724965038  1.0000
  Ni  Ni8       1.0  0.007741009080618732  0.0074253322163976435  0.9995317041689248  1.0000
  Ni  Ni9       1.0  0.0015879454567055416  0.007481035000506205  5.342824988556411e-05  1.0000
  Ni  Ni10      1.0  0.004782104457819233  0.0074253322163976435  0.9993681873254644  1.0000
  Ni  Ni11      1.0  0.008220660499687102  0.007433232613981152  0.9998987295464549  1.0000
  Ni  Ni12      1.0  0.0014487707878788607  0.0074253322163976435  0.9996352285854417  1.0000
