data_image0
_chemical_formula_structural       COV18Ir6
_chemical_formula_sum              "C1 O1 V18 Ir6"
_cell_length_a       6.773640155792236
_cell_length_b       6.7736403343013345
_cell_length_c       103.18392181396484
_cell_angle_alpha    90.0
_cell_angle_beta     90.0
_cell_angle_gamma    60.0000008717666

_space_group_name_H-M_alt    "P 1"
_space_group_IT_number       1

loop_
  _space_group_symop_operation_xyz
  'x, y, z'

loop_
  _atom_site_type_symbol
  _atom_site_label
  _atom_site_symmetry_multiplicity
  _atom_site_fract_x
  _atom_site_fract_y
  _atom_site_fract_z
  _atom_site_occupancy
  C   C1        1.0  0.00012666752210806868  0.002858792277611064  0.0  1.0000
  O   O1        1.0  0.00012666752210806868  0.002858792277611064  0.00011629742413096565  1.0000
  V   V1        1.0  0.006666755856625465  0.004583333392604589  0.9996986550375936  1.0000
  V   V2        1.0  8.926873747201235e-08  0.007916666480385576  0.9994306554633202  1.0000
  V   V3        1.0  0.003511146827507681  0.0009906919471375723  0.9999579086356687  1.0000
  V   V4        1.0  0.00012666752210806868  0.002858792277611064  0.9998321394126063  1.0000
  V   V5        1.0  0.003333422721443761  0.006249999618970497  0.9995646553948705  1.0000
  V   V6        1.0  0.006666755904026181  0.009583333341800655  0.9992966555317699  1.0000
  V   V7        1.0  0.004166755882027431  0.009583333341800655  0.9996986550375936  1.0000
  V   V8        1.0  0.007500089287333004  0.00291666653118951  0.9994306554633202  1.0000
  V   V9        1.0  0.0005740168167743513  0.006332033365666311  0.9999579173004844  1.0000
  V   V10       1.0  0.0024417960795378828  0.007847522961752278  0.9998321734942149  1.0000
  V   V11       1.0  0.005833422576970075  0.0012499999079178701  0.9995646553948705  1.0000
  V   V12       1.0  0.009166755878624214  0.004583333392604589  0.9992966555317699  1.0000
  V   V13       1.0  0.009166755627340204  0.007083333367202622  0.9996986550375936  1.0000
  V   V14       1.0  0.002500089179944574  0.0004166666359726234  0.9994306554633202  1.0000
  V   V15       1.0  0.0059152357434600015  0.003927616546865572  0.9999579103686319  1.0000
  V   V16       1.0  0.007430992046547409  0.0005441976469858392  0.9998321700282886  1.0000
  V   V17       1.0  0.0008334225169823608  0.0037499999618970494  0.9995646553948705  1.0000
  V   V18       1.0  0.00416675613331144  0.007083333367202622  0.9992966555317699  1.0000
  Ir  Ir1       1.0  0.0066667814204940355  0.007083309235334143  0.9998943111986278  1.0000
  Ir  Ir2       1.0  8.915794582456815e-08  0.0004166666359726234  0.999631655216232  1.0000
  Ir  Ir3       1.0  0.0033334222639967437  0.0037499999618970494  0.9993636556419587  1.0000
  Ir  Ir4       1.0  0.006666756155310189  0.007083333367202622  0.9994976552846817  1.0000
  Ir  Ir5       1.0  0.00999991077761093  0.00041679753548288975  1.283316979090501e-05  1.0000
  Ir  Ir6       1.0  0.0033334610178672496  0.0037499653517172583  0.9997672474520913  1.0000
