data_image0
_chemical_formula_structural       COSb8Ir8Sb8Ir8
_chemical_formula_sum              "C1 O1 Sb16 Ir16"
_cell_length_a       11.964704269308662
_cell_length_b       7.066922664642334
_cell_length_c       98.56063079833984
_cell_angle_alpha    90.0
_cell_angle_beta     80.18280387586434
_cell_angle_gamma    72.82304815210162

_space_group_name_H-M_alt    "P 1"
_space_group_IT_number       1

loop_
  _space_group_symop_operation_xyz
  'x, y, z'

loop_
  _atom_site_type_symbol
  _atom_site_label
  _atom_site_symmetry_multiplicity
  _atom_site_fract_x
  _atom_site_fract_y
  _atom_site_fract_z
  _atom_site_occupancy
  C   C1        1.0  0.009550086759936963  0.00888741299522921  0.9999752421772324  1.0000
  O   O1        1.0  0.009550086759936963  0.00888741299522921  9.699428673953496e-05  1.0000
  Sb  Sb1       1.0  0.00044991277968179977  0.008437500006442578  0.9995767200235128  1.0000
  Sb  Sb2       1.0  0.005449912590892372  0.0009375001219230761  0.9996802117636957  1.0000
  Sb  Sb3       1.0  0.005449912590892372  0.005937500100837292  0.9994732281580999  1.0000
  Sb  Sb4       1.0  0.00044991277968179977  0.0034375000275283624  0.9997837036291086  1.0000
  Sb  Sb5       1.0  0.007949912206689325  0.0030208334575858673  0.9996284658369878  1.0000
  Sb  Sb6       1.0  0.0029499126438858954  0.0055208332389875825  0.9997319576972591  1.0000
  Sb  Sb7       1.0  0.0029499126438858954  0.0005208333918595236  0.9995249740916633  1.0000
  Sb  Sb8       1.0  0.007949912206689325  0.008020833436500082  0.9998354497449592  1.0000
  Ir  Ir1       1.0  0.009199912180192565  0.0007291666354813011  0.9998095767781775  1.0000
  Ir  Ir2       1.0  0.004199912617389134  0.0032291664168830167  0.9994991011248816  1.0000
  Ir  Ir3       1.0  0.004199912617389134  0.008229166395797231  0.9997060847304774  1.0000
  Ir  Ir4       1.0  0.009199912180192565  0.005729166614395516  0.9996025928702061  1.0000
  Ir  Ir5       1.0  0.006699912895605132  0.001979166277775017  0.9994473551844627  1.0000
  Ir  Ir6       1.0  0.0016999126703826574  0.004479166390386255  0.999550847058445  1.0000
  Ir  Ir7       1.0  0.0016999126703826574  0.00947916636930047  0.9997578306640408  1.0000
  Ir  Ir8       1.0  0.006699912895605132  0.0069791662566892326  0.9996543387900585  1.0000
  Sb  Sb9       1.0  0.00044991277968179977  0.008437500006442578  0.9991627525099457  1.0000
  Sb  Sb10      1.0  0.005449912590892372  0.0009375001219230761  0.9992662442501286  1.0000
  Sb  Sb11      1.0  0.005449912590892372  0.005937500100837292  0.9990592606445328  1.0000
  Sb  Sb12      1.0  0.00044991277968179977  0.0034375000275283624  0.9993697361155415  1.0000
  Sb  Sb13      1.0  0.007949912206689325  0.0030208334575858673  0.9992144983234207  1.0000
  Sb  Sb14      1.0  0.0029499126438858954  0.0055208332389875825  0.9993179901836919  1.0000
  Sb  Sb15      1.0  0.0029499126438858954  0.0005208333918595236  0.9991110065780962  1.0000
  Sb  Sb16      1.0  0.007949912206689325  0.008020833436500082  0.999421482231392  1.0000
  Ir  Ir9       1.0  0.009199912180192565  0.0007291666354813011  0.9993956092646104  1.0000
  Ir  Ir10      1.0  0.004199912617389134  0.0032291664168830167  0.9990851336113145  1.0000
  Ir  Ir11      1.0  0.004199912617389134  0.008229166395797231  0.9992921172169102  1.0000
  Ir  Ir12      1.0  0.009199912180192565  0.005729166614395516  0.999188625356639  1.0000
  Ir  Ir13      1.0  0.006699912895605132  0.001979166277775017  0.9990333876708956  1.0000
  Ir  Ir14      1.0  0.0016999126703826574  0.004479166390386255  0.9991368795448778  1.0000
  Ir  Ir15      1.0  0.0016999126703826574  0.00947916636930047  0.9993438631504736  1.0000
  Ir  Ir16      1.0  0.006699912895605132  0.0069791662566892326  0.9992403712764913  1.0000
