data_image0
_chemical_formula_structural       COV18Au6V18Au6
_chemical_formula_sum              "C1 O1 V36 Au12"
_cell_length_a       4.8841705322265625
_cell_length_b       10.92133735472739
_cell_length_c       111.44355773925781
_cell_angle_alpha    71.56505196815161
_cell_angle_beta     90.0
_cell_angle_gamma    90.0

_space_group_name_H-M_alt    "P 1"
_space_group_IT_number       1

loop_
  _space_group_symop_operation_xyz
  'x, y, z'

loop_
  _atom_site_type_symbol
  _atom_site_label
  _atom_site_symmetry_multiplicity
  _atom_site_fract_x
  _atom_site_fract_y
  _atom_site_fract_z
  _atom_site_occupancy
  C   C1        1.0  0.007499993074435938  0.0023621711279939095  0.9998767523876285  1.0000
  O   O1        1.0  0.007499993074435938  0.0023621711279939095  0.9999844304316727  1.0000
  V   V1        1.0  6.649999721930475e-09  0.007549706950988758  0.9987540120845161  1.0000
  V   V2        1.0  6.649999721930475e-09  0.004216373900503867  0.9991672113931959  1.0000
  V   V3        1.0  6.649999721930475e-09  0.0008830405803541472  0.9989606117233679  1.0000
  V   V4        1.0  6.649999721930475e-09  0.0058830406055228645  0.9986507119724316  1.0000
  V   V5        1.0  6.649999721930475e-09  0.002549707195484869  0.9990639112922539  1.0000
  V   V6        1.0  6.649999721930475e-09  0.009216373656007757  0.9988573116506165  1.0000
  V   V7        1.0  0.005000006696745866  0.007549706950988758  0.9989089615638115  1.0000
  V   V8        1.0  0.005000006696745866  0.004216373900503867  0.9987023618856267  1.0000
  V   V9        1.0  0.005000006696745866  0.0008830405803541472  0.9991155612026633  1.0000
  V   V10       1.0  0.005000006696745866  0.009216373656007757  0.9987023621713211  1.0000
  V   V11       1.0  0.005000006696745866  0.0058830406055228645  0.9991155614800009  1.0000
  V   V12       1.0  0.005000006696745866  0.002549707195484869  0.9989089618129585  1.0000
  V   V13       1.0  0.007500006803527691  0.005049707253013366  0.9989089619502345  1.0000
  V   V14       1.0  0.007500006803527691  0.001716374022751922  0.9987023620102001  1.0000
  V   V15       1.0  0.007500006803527691  0.008383040303498257  0.9991155616284194  1.0000
  V   V16       1.0  0.002500006589964041  0.005049707253013366  0.9989089619502345  1.0000
  V   V17       1.0  0.002500006589964041  0.001716374022751922  0.9987023620102001  1.0000
  V   V18       1.0  0.002500006589964041  0.008383040303498257  0.9991155616284194  1.0000
  Au  Au1       1.0  0.005000006696745866  0.0067163735984792595  0.9987023620340452  1.0000
  Au  Au2       1.0  0.005000006696745866  0.0033830405479943677  0.999115561342725  1.0000
  Au  Au3       1.0  0.005000006696745866  4.970730087887262e-05  0.9989089616706336  1.0000
  Au  Au4       1.0  6.649999721930475e-09  0.0067163735984792595  0.9990122615274775  1.0000
  Au  Au5       1.0  6.649999721930475e-09  0.0033830405479943677  0.9988056618492925  1.0000
  Au  Au6       1.0  6.649999721930475e-09  4.970730087887262e-05  0.9992188611640659  1.0000
  V   V19       1.0  6.649999721930475e-09  0.007549706950988758  0.9993738110713808  1.0000
  V   V20       1.0  6.255000053468913e-08  0.004230257324505179  0.9997462974727215  1.0000
  V   V21       1.0  9.449999719700168e-09  0.0009104885047536026  0.9995863803999062  1.0000
  V   V22       1.0  6.649999721930475e-09  0.0058830406055228645  0.9992705109592963  1.0000
  V   V23       1.0  3.2849999129537744e-08  0.0025026875372036786  0.999680765669918  1.0000
  V   V24       1.0  6.649999721930475e-09  0.009216373656007757  0.9994771106374811  1.0000
  V   V25       1.0  0.005000006696745866  0.007549706950988758  0.9995287605506762  1.0000
  V   V26       1.0  0.005000006696745866  0.004216373900503867  0.9993221608724913  1.0000
  V   V27       1.0  0.00499999868810901  0.0008672427158510614  0.9997264365532953  1.0000
  V   V28       1.0  0.005000006696745866  0.009216373656007757  0.9993221611581857  1.0000
  V   V29       1.0  0.00499979465855102  0.005895424333527764  0.9997105847122161  1.0000
  V   V30       1.0  0.005000006696745866  0.002549707195484869  0.9995287607998231  1.0000
  V   V31       1.0  0.007500006803527691  0.005049707253013366  0.9995287609370992  1.0000
  V   V32       1.0  0.007500006803527691  0.001716374022751922  0.9993221612644856  1.0000
  V   V33       1.0  0.006932571237755359  0.008338536977614787  0.9997415891793062  1.0000
  V   V34       1.0  0.002500006589964041  0.005049707253013366  0.9995287609370992  1.0000
  V   V35       1.0  0.002500006589964041  0.001716374022751922  0.9993221612644856  1.0000
  V   V36       1.0  0.003067419083234956  0.00833849311213611  0.9997415873296458  1.0000
  Au  Au7       1.0  0.005000006696745866  0.0067163735984792595  0.9993221610209098  1.0000
  Au  Au8       1.0  0.0049999533058334945  0.0032789430929031833  0.9997450862335422  1.0000
  Au  Au9       1.0  0.005000006696745866  4.970730087887262e-05  0.9995287606574982  1.0000
  Au  Au10      1.0  3.756500016621449e-07  0.006785393412305999  0.9996437648977052  1.0000
  Au  Au11      1.0  6.649999721930475e-09  0.0033830405479943677  0.9994254608361572  1.0000
  Au  Au12      1.0  0.009999993562581423  0.00995029273260451  0.9998477430163818  1.0000
