data_image0
_chemical_formula_structural       COSb24Ir12
_chemical_formula_sum              "C1 O1 Sb24 Ir12"
_cell_length_a       7.289822771772746
_cell_length_b       15.015081335719783
_cell_length_c       107.89356231689453
_cell_angle_alpha    108.85199549232726
_cell_angle_beta     112.0105905454442
_cell_angle_gamma    61.776412203143195

_space_group_name_H-M_alt    "P 1"
_space_group_IT_number       1

loop_
  _space_group_symop_operation_xyz
  'x, y, z'

loop_
  _atom_site_type_symbol
  _atom_site_label
  _atom_site_symmetry_multiplicity
  _atom_site_fract_x
  _atom_site_fract_y
  _atom_site_fract_z
  _atom_site_occupancy
  C   C1        1.0  0.0015942440676359852  0.001141678985261771  0.0002553339701374512  1.0000
  O   O1        1.0  0.0015942440676359852  0.001141678985261771  0.0003665549184591848  1.0000
  Sb  Sb1       1.0  0.006211610557435698  0.009808493845144086  0.9997953522510599  1.0000
  Sb  Sb2       1.0  0.006211610557435698  0.0064751608963220676  8.802957485097031e-05  1.0000
  Sb  Sb3       1.0  0.006211610557435698  0.003141827160999633  0.9995026752973347  1.0000
  Sb  Sb4       1.0  0.008788389659173019  0.008276720392331755  0.9994908313905649  1.0000
  Sb  Sb5       1.0  0.008788389659173019  0.0049433863948425165  0.99978350839098  1.0000
  Sb  Sb6       1.0  0.008788389659173019  0.0016100531838536922  7.618515054265525e-05  1.0000
  Sb  Sb7       1.0  0.003788389286124673  0.0007102490820687366  0.9994791586586295  1.0000
  Sb  Sb8       1.0  0.003788389286124673  0.0073769158972965924  0.9997718356182491  1.0000
  Sb  Sb9       1.0  0.003788389286124673  0.004043582424140963  6.451264224237316e-05  1.0000
  Sb  Sb10      1.0  0.0012116107108668724  0.002242023089888798  0.9997836795574133  1.0000
  Sb  Sb11      1.0  0.0012116107108668724  0.008908689774033253  7.635651113854757e-05  1.0000
  Sb  Sb12      1.0  0.0012116107108668724  0.005575356825211232  0.9994910025452092  1.0000
  Sb  Sb13      1.0  0.0032129793608668107  0.001831177223250015  5.894309737696756e-05  1.0000
  Sb  Sb14      1.0  0.0032129793608668107  0.008497844431728078  0.9994735890611796  1.0000
  Sb  Sb15      1.0  0.0032129793608668107  0.005164510434238839  0.9997662660615947  1.0000
  Sb  Sb16      1.0  0.001787020711336095  0.009603870905613748  0.9998154919710605  1.0000
  Sb  Sb17      1.0  0.001787020711336095  0.006270536908124508  0.00010816897147550356  1.0000
  Sb  Sb18      1.0  0.001787020711336095  0.002937203697135684  0.9995228149937571  1.0000
  Sb  Sb19      1.0  0.0067870207835390006  0.008687565777669479  9.359883674549722e-05  1.0000
  Sb  Sb20      1.0  0.0067870207835390006  0.005354232828847459  0.9995082448708161  1.0000
  Sb  Sb21      1.0  0.0067870207835390006  0.002020899093525025  0.9998009218830203  1.0000
  Sb  Sb22      1.0  0.008212979433069716  0.0009148726196393557  0.9994590189731395  1.0000
  Sb  Sb23      1.0  0.008212979433069716  0.007581539303783809  0.9997516959268646  1.0000
  Sb  Sb24      1.0  0.008212979433069716  0.0042482058306281805  4.437267463822723e-05  1.0000
  Ir  Ir1       1.0  0.007089296442949846  0.00032069197703385964  7.00250304629215e-05  1.0000
  Ir  Ir2       1.0  0.007089296442949846  0.006987358923345118  0.9994846709824764  1.0000
  Ir  Ir3       1.0  0.007089296442949846  0.003654025450189489  0.9997773480064697  1.0000
  Ir  Ir4       1.0  0.007910703773658871  0.00019150623605182867  0.9996423523926768  1.0000
  Ir  Ir5       1.0  0.007910703773658871  0.006858172920196282  0.999935029346402  1.0000
  Ir  Ir6       1.0  0.007910703773658871  0.003524839447040653  0.0002277060941756277  1.0000
  Ir  Ir7       1.0  0.0029107040023014052  0.00019805094029222078  8.251698485999334e-05  1.0000
  Ir  Ir8       1.0  0.0029107040023014052  0.006864717755520077  0.999497162930979  1.0000
  Ir  Ir9       1.0  0.0029107040023014052  0.0035313842823644476  0.9997898402311919  1.0000
  Ir  Ir10      1.0  0.0020892960699015004  0.00032723679602771657  0.9996321585990696  1.0000
  Ir  Ir11      1.0  0.0020892960699015004  0.006993903349088768  0.9999248355469003  1.0000
  Ir  Ir12      1.0  0.0020892960699015004  0.0036605701380999435  0.00021751285890221747  1.0000
