data_image0
_chemical_formula_structural       COInSiPt5InSiPt5InSiPt5InSiPt5
_chemical_formula_sum              "C1 O1 In4 Si4 Pt20"
_cell_length_a       8.22390928811375
_cell_length_b       8.038244247436523
_cell_length_c       102.1529769897461
_cell_angle_alpha    90.0
_cell_angle_beta     60.744048066430565
_cell_angle_gamma    90.0

_space_group_name_H-M_alt    "P 1"
_space_group_IT_number       1

loop_
  _space_group_symop_operation_xyz
  'x, y, z'

loop_
  _atom_site_type_symbol
  _atom_site_label
  _atom_site_symmetry_multiplicity
  _atom_site_fract_x
  _atom_site_fract_y
  _atom_site_fract_z
  _atom_site_occupancy
  C   C1        1.0  0.007335036959161894  0.001249999907310846  0.9998593364404812  1.0000
  O   O1        1.0  0.007335036959161894  0.001249999907310846  0.9999768069740639  1.0000
  In  In1       1.0  0.0014851941483309693  0.003749999721932538  0.9995481246736224  1.0000
  Si  Si1       1.0  0.006485193930262477  0.001249999907310846  0.9995481250322926  1.0000
  Pt  Pt1       1.0  0.00445558218538756  0.003749999721932538  0.9996279783826967  1.0000
  Pt  Pt2       1.0  0.00851480619434809  0.003749999721932538  0.9994682716614606  1.0000
  Pt  Pt3       1.0  0.00445558218538756  0.001249999907310846  0.99943125727898  1.0000
  Pt  Pt4       1.0  0.00851480619434809  0.001249999907310846  0.9996649921816932  1.0000
  Pt  Pt5       1.0  0.0014851941483309693  0.001249999907310846  0.9993514041533897  1.0000
  In  In2       1.0  0.0014851941483309693  0.003749999721932538  0.9991546833414151  1.0000
  Si  Si2       1.0  0.006485193930262477  0.001249999907310846  0.9991546834083432  1.0000
  Pt  Pt6       1.0  0.00445558218538756  0.003749999721932538  0.9992345367587473  1.0000
  Pt  Pt7       1.0  0.00851480619434809  0.003749999721932538  0.9990748300375112  1.0000
  Pt  Pt8       1.0  0.00445558218538756  0.001249999907310846  0.9990378159467727  1.0000
  Pt  Pt9       1.0  0.00851480619434809  0.001249999907310846  0.9992715505577439  1.0000
  Pt  Pt10      1.0  0.0014851941483309693  0.001249999907310846  0.9989579625294404  1.0000
  In  In3       1.0  0.0014851941483309693  0.008749999814621693  0.9995481246736224  1.0000
  Si  Si3       1.0  0.006485193930262477  0.00624999953655423  0.9995481250322926  1.0000
  Pt  Pt11      1.0  0.00445558218538756  0.008749999814621693  0.9996279783826967  1.0000
  Pt  Pt12      1.0  0.00851480619434809  0.008749999814621693  0.9994682716614606  1.0000
  Pt  Pt13      1.0  0.00445558218538756  0.00624999953655423  0.99943125727898  1.0000
  Pt  Pt14      1.0  0.00851480619434809  0.00624999953655423  0.9996649921816932  1.0000
  Pt  Pt15      1.0  0.0014851941483309693  0.00624999953655423  0.9993514041533897  1.0000
  In  In4       1.0  0.0014851941483309693  0.008749999814621693  0.9991546833414151  1.0000
  Si  Si4       1.0  0.006485193930262477  0.00624999953655423  0.9991546834083432  1.0000
  Pt  Pt16      1.0  0.00445558218538756  0.008749999814621693  0.9992345367587473  1.0000
  Pt  Pt17      1.0  0.00851480619434809  0.008749999814621693  0.9990748300375112  1.0000
  Pt  Pt18      1.0  0.00445558218538756  0.00624999953655423  0.9990378159467727  1.0000
  Pt  Pt19      1.0  0.00851480619434809  0.00624999953655423  0.9992715505577439  1.0000
  Pt  Pt20      1.0  0.0014851941483309693  0.00624999953655423  0.9989579625294404  1.0000
