data_image0
_chemical_formula_structural       COFe2Ni2Fe2Ni2Fe2Ni2Fe2Ni2Fe2Ni2Fe2Ni2Fe2Ni2Fe2Ni2
_chemical_formula_sum              "C1 O1 Fe16 Ni16"
_cell_length_a       4.9451141357421875
_cell_length_b       8.623974904855007
_cell_length_c       100.18391418457031
_cell_angle_alpha    69.97737581707557
_cell_angle_beta     90.0
_cell_angle_gamma    90.0

_space_group_name_H-M_alt    "P 1"
_space_group_IT_number       1

loop_
  _space_group_symop_operation_xyz
  'x, y, z'

loop_
  _atom_site_type_symbol
  _atom_site_label
  _atom_site_symmetry_multiplicity
  _atom_site_fract_x
  _atom_site_fract_y
  _atom_site_fract_z
  _atom_site_occupancy
  C   C1        1.0  0.0037500000903992955  0.009467212186796681  0.9999430130105067  1.0000
  O   O1        1.0  0.0037500000903992955  0.009467212186796681  6.279296137373784e-05  1.0000
  Fe  Fe1       1.0  0.0012500000301330985  2.6978000214121247e-05  0.9993400780930857  1.0000
  Fe  Fe2       1.0  0.0012500000301330985  0.0025269781293055416  0.99912487447944  1.0000
  Ni  Ni1       1.0  0.0037500000903992955  2.6978000214121247e-05  0.9991248746438819  1.0000
  Ni  Ni2       1.0  0.0037500000903992955  0.0025269781293055416  0.9993400782261199  1.0000
  Fe  Fe3       1.0  0.0012500001242990318  0.00019911250314915826  0.9997590039456447  1.0000
  Fe  Fe4       1.0  0.0012500000301330985  0.0024261028608215936  0.9995662456284444  1.0000
  Ni  Ni3       1.0  0.0037500000903992955  0.00997302228447664  0.9995493625699235  1.0000
  Ni  Ni4       1.0  0.0037500000903992955  0.002603977476257951  0.9997758837245622  1.0000
  Fe  Fe5       1.0  0.0012500000301330985  0.005026978120110382  0.9993400780657539  1.0000
  Fe  Fe6       1.0  0.0012500000301330985  0.0075269783407942124  0.9991248744494087  1.0000
  Ni  Ni5       1.0  0.0037500000903992955  0.005026978120110382  0.9991248746165501  1.0000
  Ni  Ni6       1.0  0.0037500000903992955  0.0075269783407942124  0.9993400781960885  1.0000
  Fe  Fe7       1.0  0.0012500001242990318  0.005199112427289092  0.9997590042215586  1.0000
  Fe  Fe8       1.0  0.0012500000301330985  0.007426103302189254  0.9995662452941616  1.0000
  Ni  Ni7       1.0  0.0037500000903992955  0.0049730223028669595  0.9995493622957036  1.0000
  Ni  Ni8       1.0  0.0037500000903992955  0.007603977687746621  0.9997758839920069  1.0000
  Fe  Fe9       1.0  0.00624999977400176  2.6978000214121247e-05  0.9993400780930857  1.0000
  Fe  Fe10      1.0  0.00624999977400176  0.0025269781293055416  0.99912487447944  1.0000
  Ni  Ni9       1.0  0.00875000021093169  2.6978000214121247e-05  0.9991248746438819  1.0000
  Ni  Ni10      1.0  0.00875000021093169  0.0025269781293055416  0.9993400782261199  1.0000
  Fe  Fe11      1.0  0.006250000150665493  0.00019911250314915826  0.9997590039456447  1.0000
  Fe  Fe12      1.0  0.00624999977400176  0.0024261028608215936  0.9995662456284444  1.0000
  Ni  Ni11      1.0  0.00875000021093169  0.00997302228447664  0.9995493625699235  1.0000
  Ni  Ni12      1.0  0.00875000021093169  0.002603977476257951  0.9997758837245622  1.0000
  Fe  Fe13      1.0  0.00624999977400176  0.005026978120110382  0.9993400780657539  1.0000
  Fe  Fe14      1.0  0.00624999977400176  0.0075269783407942124  0.9991248744494087  1.0000
  Ni  Ni13      1.0  0.00875000021093169  0.005026978120110382  0.9991248746165501  1.0000
  Ni  Ni14      1.0  0.00875000021093169  0.0075269783407942124  0.9993400781960885  1.0000
  Fe  Fe15      1.0  0.006250000150665493  0.005199112427289092  0.9997590042215586  1.0000
  Fe  Fe16      1.0  0.00624999977400176  0.007426103302189254  0.9995662452941616  1.0000
  Ni  Ni15      1.0  0.00875000021093169  0.0049730223028669595  0.9995493622957036  1.0000
  Ni  Ni16      1.0  0.00875000021093169  0.007603977687746621  0.9997758839920069  1.0000
