data_image0
_chemical_formula_structural       COGe24
_chemical_formula_sum              "C1 O1 Ge24"
_cell_length_a       8.25412654876709
_cell_length_b       8.254126312755135
_cell_length_c       100.32759857177734
_cell_angle_alpha    90.0
_cell_angle_beta     90.0
_cell_angle_gamma    120.00000094585573

_space_group_name_H-M_alt    "P 1"
_space_group_IT_number       1

loop_
  _space_group_symop_operation_xyz
  'x, y, z'

loop_
  _atom_site_type_symbol
  _atom_site_label
  _atom_site_symmetry_multiplicity
  _atom_site_fract_x
  _atom_site_fract_y
  _atom_site_fract_z
  _atom_site_occupancy
  C   C1        1.0  0.002499999487374759  0.00499999893686467  0.00017263957247904376  1.0000
  O   O1        1.0  0.002499999487374759  0.00499999893686467  0.0002922473861302911  1.0000
  Ge  Ge1       1.0  0.003333336828189875  0.0016666710025911484  0.9999205248419808  1.0000
  Ge  Ge2       1.0  0.0016666671149669905  0.0033333341880107553  0.9995762016042188  1.0000
  Ge  Ge3       1.0  4.499999922823697e-10  9.499999862470009e-10  0.9992403285504244  1.0000
  Ge  Ge4       1.0  0.003333333554833302  0.0016666676151501471  0.9996601696448798  1.0000
  Ge  Ge5       1.0  0.0016666671149669905  0.0033333341880107553  0.9993242968881355  1.0000
  Ge  Ge6       1.0  0.009999999403850489  0.00999999891601888  0.0  1.0000
  Ge  Ge7       1.0  0.003333336907795862  0.006666670981745358  0.9999205248419808  1.0000
  Ge  Ge8       1.0  0.0016666671106619574  0.008333334167164964  0.9995762016042188  1.0000
  Ge  Ge9       1.0  5.378013496858958e-10  0.005000001021443748  0.9992403285504244  1.0000
  Ge  Ge10      1.0  0.003333333844361604  0.006666667854876741  0.9996601696448798  1.0000
  Ge  Ge11      1.0  0.0016666671106619574  0.008333334167164964  0.9993242968881355  1.0000
  Ge  Ge12      1.0  0.009999999161531612  0.00499999893686467  0.0  1.0000
  Ge  Ge13      1.0  0.008333336548368627  0.0016666710025911484  0.9999205248419808  1.0000
  Ge  Ge14      1.0  0.006666667039846427  0.0033333341880107553  0.9995762016042188  1.0000
  Ge  Ge15      1.0  0.005000000420841042  9.499999862470009e-10  0.9992403285504244  1.0000
  Ge  Ge16      1.0  0.008333333500674351  0.0016666676151501471  0.9996601696448798  1.0000
  Ge  Ge17      1.0  0.006666667039846427  0.0033333341880107553  0.9993242968881355  1.0000
  Ge  Ge18      1.0  0.004999999470894287  0.00999999891601888  0.0  1.0000
  Ge  Ge19      1.0  0.008333336790687504  0.006666670981745358  0.9999205248419808  1.0000
  Ge  Ge20      1.0  0.006666667056503006  0.008333334167164964  0.9995762016042188  1.0000
  Ge  Ge21      1.0  0.005000000483642398  0.005000001021443748  0.9992403285504244  1.0000
  Ge  Ge22      1.0  0.00833333387327942  0.006666667854876741  0.9996601696448798  1.0000
  Ge  Ge23      1.0  0.006666667056503006  0.008333334167164964  0.9993242968881355  1.0000
  Ge  Ge24      1.0  0.004999999441352859  0.00499999893686467  0.0  1.0000
