data_image0
_chemical_formula_structural       HSn5Pd15Sn5Pd15
_chemical_formula_sum              "H1 Sn10 Pd30"
_cell_length_a       5.756916046142578
_cell_length_b       9.102482912019994
_cell_length_c       105.25376892089844
_cell_angle_alpha    75.03678271283249
_cell_angle_beta     90.0
_cell_angle_gamma    108.4349500609932

_space_group_name_H-M_alt    "P 1"
_space_group_IT_number       1

loop_
  _space_group_symop_operation_xyz
  'x, y, z'

loop_
  _atom_site_type_symbol
  _atom_site_label
  _atom_site_symmetry_multiplicity
  _atom_site_fract_x
  _atom_site_fract_y
  _atom_site_fract_z
  _atom_site_occupancy
  H   H1        1.0  0.002672460209024488  0.0023449208399570344  8.297926905502454e-05  1.0000
  Sn  Sn1       1.0  0.0025000001110257724  0.004500000265407127  0.9998995178030251  1.0000
  Sn  Sn2       1.0  0.0005000000070621631  0.0005000000170362683  0.9997655413726255  1.0000
  Sn  Sn3       1.0  0.004500000179170846  0.008500000401697275  0.9993636129849226  1.0000
  Sn  Sn4       1.0  0.008499999832873405  0.006500000333552201  0.9996315651108265  1.0000
  Sn  Sn5       1.0  0.006499999652647617  0.002499999973100629  0.9994975892492243  1.0000
  Pd  Pd1       1.0  0.00449999996734908  0.0035000000071731653  0.9996985532454801  1.0000
  Pd  Pd2       1.0  0.0025000004037348186  0.009500000659931236  0.9995645769761731  1.0000
  Pd  Pd3       1.0  0.006500000035494154  0.007500000143463312  0.9998325296783824  1.0000
  Pd  Pd4       1.0  0.00050000011142832  0.005500000075318239  0.9994306011195762  1.0000
  Pd  Pd5       1.0  0.008499999393986511  0.001500000051108805  0.9999665059351759  1.0000
  Pd  Pd6       1.0  0.0035000001450983093  0.006500000333552201  0.9996315651108265  1.0000
  Pd  Pd7       1.0  0.001499999964872523  0.002499999973100629  0.9994975892492243  1.0000
  Pd  Pd8       1.0  0.0054999996746154375  0.0005000000170362683  0.9997655413726255  1.0000
  Pd  Pd9       1.0  0.00949999986694594  0.008500000401697275  0.9993636129849226  1.0000
  Pd  Pd10      1.0  0.007499999798800867  0.004500000265407127  0.9998995178030251  1.0000
  Pd  Pd11      1.0  0.009499999372018692  0.0035000000071731653  0.9996985532454801  1.0000
  Pd  Pd12      1.0  0.007500000293728116  0.009500000659931236  0.9995645769761731  1.0000
  Pd  Pd13      1.0  0.0015000001455008564  0.007500000143463312  0.9998325296783824  1.0000
  Pd  Pd14      1.0  0.005500000001421618  0.005500000075318239  0.9994306011195762  1.0000
  Pd  Pd15      1.0  0.0034999999893169003  0.001500000051108805  0.9999665059351759  1.0000
  Sn  Sn6       1.0  0.0025000001110257724  0.004500000265407127  0.9992296365520204  1.0000
  Sn  Sn7       1.0  0.0005000000070621631  0.0005000000170362683  0.9990956601216207  1.0000
  Sn  Sn8       1.0  0.004500000179170846  0.008500000401697275  0.9986937314507704  1.0000
  Sn  Sn9       1.0  0.008499999832873405  0.006500000333552201  0.9989616838598218  1.0000
  Sn  Sn10      1.0  0.006499999652647617  0.002499999973100629  0.9988277077150721  1.0000
  Pd  Pd16      1.0  0.00449999996734908  0.0035000000071731653  0.9990286719944752  1.0000
  Pd  Pd17      1.0  0.0025000004037348186  0.009500000659931236  0.9988946957251682  1.0000
  Pd  Pd18      1.0  0.006500000035494154  0.007500000143463312  0.9991626484273776  1.0000
  Pd  Pd19      1.0  0.00050000011142832  0.005500000075318239  0.998760719585424  1.0000
  Pd  Pd20      1.0  0.008499999393986511  0.001500000051108805  0.9992966246841711  1.0000
  Pd  Pd21      1.0  0.0035000001450983093  0.006500000333552201  0.9989616838598218  1.0000
  Pd  Pd22      1.0  0.001499999964872523  0.002499999973100629  0.9988277077150721  1.0000
  Pd  Pd23      1.0  0.0054999996746154375  0.0005000000170362683  0.9990956601216207  1.0000
  Pd  Pd24      1.0  0.00949999986694594  0.008500000401697275  0.9986937314507704  1.0000
  Pd  Pd25      1.0  0.007499999798800867  0.004500000265407127  0.9992296365520204  1.0000
  Pd  Pd26      1.0  0.009499999372018692  0.0035000000071731653  0.9990286719944752  1.0000
  Pd  Pd27      1.0  0.007500000293728116  0.009500000659931236  0.9988946957251682  1.0000
  Pd  Pd28      1.0  0.0015000001455008564  0.007500000143463312  0.9991626484273776  1.0000
  Pd  Pd29      1.0  0.005500000001421618  0.005500000075318239  0.998760719585424  1.0000
  Pd  Pd30      1.0  0.0034999999893169003  0.001500000051108805  0.9992966246841711  1.0000
