data_image0
_chemical_formula_structural       HIn10Pt10In10Pt10
_chemical_formula_sum              "H1 In20 Pt20"
_cell_length_a       13.480173110961914
_cell_length_b       7.790375036457852
_cell_length_c       101.5686264038086
_cell_angle_alpha    90.0
_cell_angle_beta     90.0
_cell_angle_gamma    123.22378688299793

_space_group_name_H-M_alt    "P 1"
_space_group_IT_number       1

loop_
  _space_group_symop_operation_xyz
  'x, y, z'

loop_
  _atom_site_type_symbol
  _atom_site_label
  _atom_site_symmetry_multiplicity
  _atom_site_fract_x
  _atom_site_fract_y
  _atom_site_fract_z
  _atom_site_occupancy
  H   H1        1.0  0.010000000102137948  0.010000000182922289  8.076576735943587e-05  1.0000
  In  In1       1.0  3.923583221923457e-10  0.005000000663093292  0.9993071134817552  1.0000
  In  In2       1.0  0.008510931985752066  0.00154536149642065  0.9995291213395293  1.0000
  In  In3       1.0  0.0014890692169524297  0.00845463954394986  0.9995291213395293  1.0000
  In  In4       1.0  0.006279088822671985  0.00243593551597914  0.9995291213395293  1.0000
  In  In5       1.0  0.0037209124277069417  0.007564065238575297  0.9995291213395293  1.0000
  In  In6       1.0  0.005000000508426708  0.005000000663093292  0.9995291213395293  1.0000
  In  In7       1.0  0.0035109317315070313  0.00154536149642065  0.9993071134817552  1.0000
  In  In8       1.0  0.006489069471197464  0.00845463954394986  0.9993071134817552  1.0000
  In  In9       1.0  0.001279088499338626  0.00243593551597914  0.9993071134817552  1.0000
  In  In10      1.0  0.008720912543775328  0.007564065238575297  0.9993071134817552  1.0000
  Pt  Pt1       1.0  3.500000114862044e-10  2.5000000083375816e-10  0.9995291213395293  1.0000
  Pt  Pt2       1.0  0.002410860948795868  0.007365752898806074  0.9993071134817552  1.0000
  Pt  Pt3       1.0  0.007589139921597273  0.0026342478557483625  0.9993071134817552  1.0000
  Pt  Pt4       1.0  0.008911256409432387  0.005561477766234975  0.9995291213395293  1.0000
  Pt  Pt5       1.0  0.0010887445991374044  0.004438522988319461  0.9995291213395293  1.0000
  Pt  Pt6       1.0  0.005000000609759572  2.5000000083375816e-10  0.9993071134817552  1.0000
  Pt  Pt7       1.0  0.007410860892143442  0.007365752898806074  0.9995291213395293  1.0000
  Pt  Pt8       1.0  0.0025891399437055376  0.0026342478557483625  0.9995291213395293  1.0000
  Pt  Pt9       1.0  0.003911256293364001  0.005561477766234975  0.9993071134817552  1.0000
  Pt  Pt10      1.0  0.006088744957014925  0.004438522988319461  0.9993071134817552  1.0000
  In  In11      1.0  5.305349712530522e-10  0.005000000663093292  0.9997520731312182  1.0000
  In  In12      1.0  0.008578011463756073  0.0015534753860410248  0.0  1.0000
  In  In13      1.0  0.0014219901987294777  0.008446525797237522  0.0  1.0000
  In  In14      1.0  0.006540721988686317  0.0029117109551097  0.9999754583050616  1.0000
  In  In15      1.0  0.003459279395022614  0.007088290656892959  0.9999754588919028  1.0000
  In  In16      1.0  0.004999999412706804  0.004999998948196848  1.0651166024164858e-05  1.0000
  In  In17      1.0  0.0035358323387337724  0.0016022504707230685  0.999772236404685  1.0000
  In  In18      1.0  0.006464167803808638  0.008397750712555479  0.999772236404685  1.0000
  In  In19      1.0  0.0013232289847450599  0.002501467997087292  0.9997497210720763  1.0000
  In  In20      1.0  0.008676770194393795  0.007498530470938551  0.9997497210720763  1.0000
  Pt  Pt11      1.0  0.010000000102137948  0.010000000182922289  0.9999594633639513  1.0000
  Pt  Pt12      1.0  0.002444733727919155  0.007493148554262727  0.9997394971263752  1.0000
  Pt  Pt13      1.0  0.007555266573023934  0.0025068513428434876  0.9997394971263752  1.0000
  Pt  Pt14      1.0  0.008979241995069569  0.005583853163414138  0.9999666603832416  1.0000
  Pt  Pt15      1.0  0.001020759906801796  0.0044161484485885204  0.9999666603832416  1.0000
  Pt  Pt16      1.0  0.005000000120381973  4.500000219439234e-10  0.9997772327698382  1.0000
  Pt  Pt17      1.0  0.007439834230739661  0.007307197759699528  0.9999701978614121  1.0000
  Pt  Pt18      1.0  0.002560165414040553  0.0026928018515906117  0.9999701978614121  1.0000
  Pt  Pt19      1.0  0.003977911657194727  0.0056310242482881774  0.9997426314447078  1.0000
  Pt  Pt20      1.0  0.0060220887689709495  0.004368975648818037  0.9997426314447078  1.0000
