data_image0
_chemical_formula_structural       HZn26Rh2
_chemical_formula_sum              "H1 Zn26 Rh2"
_cell_length_a       11.101819038391113
_cell_length_b       5.209482841154324
_cell_length_c       100.75375366210938
_cell_angle_alpha    90.0
_cell_angle_beta     90.0
_cell_angle_gamma    101.70935716680575

_space_group_name_H-M_alt    "P 1"
_space_group_IT_number       1

loop_
  _space_group_symop_operation_xyz
  'x, y, z'

loop_
  _atom_site_type_symbol
  _atom_site_label
  _atom_site_symmetry_multiplicity
  _atom_site_fract_x
  _atom_site_fract_y
  _atom_site_fract_z
  _atom_site_occupancy
  H   H1        1.0  0.009599768390387724  0.005356657586151744  9.967536715897839e-05  1.0000
  Zn  Zn1       1.0  0.009599768063993454  0.00035665754142113934  1.940406463851723e-06  1.0000
  Zn  Zn2       1.0  0.008799306861799616  0.007149543499817671  0.9994723061663618  1.0000
  Zn  Zn3       1.0  0.00040023133754740314  0.003563764004382054  0.9994723061663618  1.0000
  Zn  Zn4       1.0  0.00044154982723969543  0.003824876082858941  0.9997614885503524  1.0000
  Zn  Zn5       1.0  0.008757985358419785  0.006888429230453995  0.9997614897335271  1.0000
  Zn  Zn6       1.0  0.0015377640814934139  0.00855191187648063  0.9999115192400103  1.0000
  Zn  Zn7       1.0  0.00766177302402386  0.0021613739014250976  0.9999115162820736  1.0000
  Zn  Zn8       1.0  0.007806504969721471  0.002334813810962389  0.9993811123868469  1.0000
  Zn  Zn9       1.0  0.0013930331142779162  0.008378493693237336  0.9993811123868469  1.0000
  Zn  Zn10      1.0  0.002360349223565753  0.006662474312290569  0.999623732114753  1.0000
  Zn  Zn11      1.0  0.006839188860433634  0.004050833191909156  0.999623732114753  1.0000
  Zn  Zn12      1.0  0.0007244244387393873  0.009643345948478942  0.999623732114753  1.0000
  Zn  Zn13      1.0  0.008475114111758587  0.0010699618295816316  0.999623732114753  1.0000
  Zn  Zn14      1.0  0.004599769156784989  0.0003566539355866314  0.999623732114753  1.0000
  Zn  Zn15      1.0  0.0036997471462488912  0.006891321201016328  0.9998574877938021  1.0000
  Zn  Zn16      1.0  0.0054997922078795555  0.003822004925721109  0.9998574883853895  1.0000
  Zn  Zn17      1.0  0.0054002312960222554  0.003563764004382054  0.9993936120356806  1.0000
  Zn  Zn18      1.0  0.0037993069557555052  0.007149543499817671  0.9993936120356806  1.0000
  Zn  Zn19      1.0  0.006393033188100401  0.008378493693237336  0.9994848058151956  1.0000
  Zn  Zn20      1.0  0.0028065052314557343  0.002334813810962389  0.9994848058151956  1.0000
  Zn  Zn21      1.0  0.002749258816656211  0.002122109193528847  0.9997495893626652  1.0000
  Zn  Zn22      1.0  0.006450270530581451  0.008591159422430363  0.9997495899542526  1.0000
  Zn  Zn23      1.0  0.007475929786505476  0.006916872053052785  0.0  1.0000
  Zn  Zn24      1.0  0.001723607536400563  0.003796433625407949  0.9999999988168253  1.0000
  Zn  Zn25      1.0  0.0055715188518310884  0.009283448245248077  0.999998774822626  1.0000
  Zn  Zn26      1.0  0.0036280071093857725  0.001429811242016175  0.9999987771889753  1.0000
  Rh  Rh1       1.0  0.009599768390387724  0.005356657586151744  0.9999773924899341  1.0000
  Rh  Rh2       1.0  0.0045997691432757845  0.005356653934673762  0.999623732114753  1.0000
