data_image0
_chemical_formula_structural       COAu10In20
_chemical_formula_sum              "C1 O1 Au10 In20"
_cell_length_a       4.778785228729248
_cell_length_b       14.336354845203044
_cell_length_c       104.12734985351562
_cell_angle_alpha    98.0494675141504
_cell_angle_beta     90.0
_cell_angle_gamma    90.0

_space_group_name_H-M_alt    "P 1"
_space_group_IT_number       1

loop_
  _space_group_symop_operation_xyz
  'x, y, z'

loop_
  _atom_site_type_symbol
  _atom_site_label
  _atom_site_symmetry_multiplicity
  _atom_site_fract_x
  _atom_site_fract_y
  _atom_site_fract_z
  _atom_site_occupancy
  C   C1        1.0  9.999999825576951e-11  0.003584469737712306  7.29683809974114e-05  1.0000
  O   O1        1.0  9.999999825576951e-11  0.003584469737712306  0.00018821211221285554  1.0000
  Au  Au1       1.0  0.009999999282816257  0.0022575787902407904  0.9998419961692777  1.0000
  Au  Au2       1.0  9.999999825576951e-11  0.007583333512488841  0.9996215890554909  1.0000
  Au  Au3       1.0  9.999999825576951e-11  0.003583333394918039  0.9989660964550353  1.0000
  Au  Au4       1.0  9.999999825576951e-11  0.002916666796134514  0.9994030915866776  1.0000
  Au  Au5       1.0  9.999999825576951e-11  0.008250000373707192  0.9991845942151184  1.0000
  Au  Au6       1.0  0.005000000031181902  0.00025000000734817513  0.9995123405586676  1.0000
  Au  Au7       1.0  0.005000000031181902  0.00558333345370344  0.9992938428983682  1.0000
  Au  Au8       1.0  0.005000000031181902  0.004915483536291889  0.9997273990101716  1.0000
  Au  Au9       1.0  0.005000000031181902  0.0009166666061317003  0.9990753454270253  1.0000
  Au  Au10      1.0  0.005000000031181902  0.009615112329159547  0.9999427957716931  1.0000
  In  In1       1.0  9.999999825576951e-11  0.0014166666208280504  0.9995669646383957  1.0000
  In  In2       1.0  9.999999825576951e-11  0.006750000067183315  0.9993484672643067  1.0000
  In  In3       1.0  0.009999999282816257  0.006110083712594346  0.9997975911029265  1.0000
  In  In4       1.0  9.999999825576951e-11  0.0020833333508289884  0.9991299697954934  1.0000
  In  In5       1.0  9.999999825576951e-11  0.000791420832243564  1.5257955544931046e-05  1.0000
  In  In6       1.0  9.999999825576951e-11  0.009083333294143067  0.9994577159961835  1.0000
  In  In7       1.0  9.999999825576951e-11  0.004416666840223565  0.9992392185324298  1.0000
  In  In8       1.0  9.999999825576951e-11  0.0037500002414400393  0.9996762133778618  1.0000
  In  In9       1.0  9.999999825576951e-11  0.009750000680231068  0.9990207208797198  1.0000
  In  In10      1.0  9.999999825576951e-11  0.008382826511920202  0.9999021375751481  1.0000
  In  In11      1.0  0.005000000031181902  0.009416666462317416  0.9992392185709378  1.0000
  In  In12      1.0  0.005000000031181902  0.004750000008397914  0.9990207208209737  1.0000
  In  In13      1.0  0.005000000031181902  0.004083333409614389  0.9994577162388264  1.0000
  In  In14      1.0  0.005000000031181902  0.00341361101972314  0.9999049734877214  1.0000
  In  In15      1.0  0.005000000031181902  0.008750000125968717  0.9996762137076396  1.0000
  In  In16      1.0  0.005000000031181902  0.0017500000514372258  0.9993484672182095  1.0000
  In  In17      1.0  0.005000000031181902  0.007083333760227316  0.9991299695629696  1.0000
  In  In18      1.0  0.005000000031181902  0.006416666899008966  0.9995669649757628  1.0000
  In  In19      1.0  0.004999999641408129  0.005740699347576107  7.401066907070894e-06  1.0000
  In  In20      1.0  0.005000000031181902  0.0011245023910289986  0.9997832857630629  1.0000
