data_image0
_chemical_formula_structural       COV6Au2V6Au2
_chemical_formula_sum              "C1 O1 V12 Au4"
_cell_length_a       4.8841705322265625
_cell_length_b       4.8841705322265625
_cell_length_c       35.81080627441406
_cell_angle_alpha    90.0
_cell_angle_beta     90.0
_cell_angle_gamma    90.0

_space_group_name_H-M_alt    "P 1"
_space_group_IT_number       1

loop_
  _space_group_symop_operation_xyz
  'x, y, z'

loop_
  _atom_site_type_symbol
  _atom_site_label
  _atom_site_symmetry_multiplicity
  _atom_site_fract_x
  _atom_site_fract_y
  _atom_site_fract_z
  _atom_site_occupancy
  C   C1        1.0  0.002499981038598835  0.005000004408563907  0.0003661912243858593  1.0000
  O   O1        1.0  0.002499981038598835  0.005000004408563907  0.0007012858694373891  1.0000
  V   V1        1.0  0.0022689341534942236  0.009999998138945341  0.9997069451572651  1.0000
  V   V2        1.0  0.007731049874995705  0.009999995850763381  0.9997069439089412  1.0000
  V   V3        1.0  0.009999995850763381  0.005000007078109526  0.0  1.0000
  V   V4        1.0  0.009999996613490702  0.005000001739018289  0.999388474024824  1.0000
  V   V5        1.0  0.005000003264472928  0.002500001822918294  0.9990339758499468  1.0000
  V   V6        1.0  0.005000003264472928  0.007500001464436454  0.9990339758499468  1.0000
  Au  Au1       1.0  0.004999966272197928  0.005000001739018289  0.9997650483908912  1.0000
  Au  Au2       1.0  3.4999998153637523e-09  1.8000000245445688e-09  0.9990339758499468  1.0000
  V   V7        1.0  0.002500003539054763  1.8000000245445688e-09  0.9983520352552221  1.0000
  V   V8        1.0  0.007500003752618412  1.8000000245445688e-09  0.9983520352552221  1.0000
  V   V9        1.0  3.4999998153637523e-09  0.005000001739018289  0.9986930057606385  1.0000
  V   V10       1.0  3.4999998153637523e-09  0.005000001739018289  0.9980110647498058  1.0000
  V   V11       1.0  0.005000003264472928  0.002500001822918294  0.9976700942443895  1.0000
  V   V12       1.0  0.005000003264472928  0.007500001464436454  0.9976700942443895  1.0000
  Au  Au3       1.0  0.005000003264472928  0.005000001739018289  0.9983520352552221  1.0000
  Au  Au4       1.0  3.4999998153637523e-09  1.8000000245445688e-09  0.9976700942443895  1.0000
