data_image0
_chemical_formula_structural       COCa8Zn16
_chemical_formula_sum              "C1 O1 Ca8 Zn16"
_cell_length_a       10.643096236516172
_cell_length_b       5.732820875636575
_cell_length_c       112.57238006591797
_cell_angle_alpha    74.37612634233375
_cell_angle_beta     114.81748422454778
_cell_angle_gamma    74.37612752876105

_space_group_name_H-M_alt    "P 1"
_space_group_IT_number       1

loop_
  _space_group_symop_operation_xyz
  'x, y, z'

loop_
  _atom_site_type_symbol
  _atom_site_label
  _atom_site_symmetry_multiplicity
  _atom_site_fract_x
  _atom_site_fract_y
  _atom_site_fract_z
  _atom_site_occupancy
  C   C1        1.0  0.00854706627508416  0.008473943985423983  0.00022295065894892627  1.0000
  O   O1        1.0  0.00854706627508416  0.008473943985423983  0.0003295484292636659  1.0000
  Ca  Ca1       1.0  0.009164753847211134  0.004087335979962898  4.8976591012436405e-05  1.0000
  Ca  Ca2       1.0  0.004110332733976833  0.004168315604357529  0.9995656688567993  1.0000
  Ca  Ca3       1.0  0.009943665312556813  0.0008349828666910658  0.9996444555166719  1.0000
  Ca  Ca4       1.0  0.00492128047735213  0.0008235660976900881  0.00012103147643928404  1.0000
  Ca  Ca5       1.0  0.0018587823316438933  0.000834981912148772  0.9994633921932704  1.0000
  Ca  Ca6       1.0  0.006792888255554765  0.0009094038293391651  0.9999285458260324  1.0000
  Ca  Ca7       1.0  0.0009820726283234398  0.004222237753642938  0.9998510741679896  1.0000
  Ca  Ca8       1.0  0.00602544861235714  0.004168315718567445  0.9993846050181213  1.0000
  Zn  Zn1       1.0  0.0004845576035684903  0.007501648693975009  0.9992781691269329  1.0000
  Zn  Zn2       1.0  0.005484557194029028  0.007501648683548683  0.9997508913108016  1.0000
  Zn  Zn3       1.0  0.0028738842103786873  0.007622168812153403  0.9999749283378832  1.0000
  Zn  Zn4       1.0  0.007984557176875543  0.007501648534737691  0.9995145303816062  1.0000
  Zn  Zn5       1.0  0.007569731868244545  0.004160951618244093  0.9997116719697822  1.0000
  Zn  Zn6       1.0  0.0025697319025515166  0.004160951915866074  0.999238949767084  1.0000
  Zn  Zn7       1.0  0.0033993831630692102  0.005831300197227551  0.9997901110419469  1.0000
  Zn  Zn8       1.0  0.008399383343180807  0.005831299735493768  0.9993173886648374  1.0000
  Zn  Zn9       1.0  0.0009049060664508456  0.00583130054334779  0.99955427196459  1.0000
  Zn  Zn10      1.0  0.005839165192427524  0.005872292639828207  2.48270353099388e-05  1.0000
  Zn  Zn11      1.0  5.633384826252278e-05  0.009176434055202935  0.9999478544199735  1.0000
  Zn  Zn12      1.0  0.005064208891960598  0.00917199738584178  0.9994747884719598  1.0000
  Zn  Zn13      1.0  0.007569731868244545  0.009171998027033864  0.9997116721229048  1.0000
  Zn  Zn14      1.0  0.0025697319025515166  0.009171997649906116  0.999238949929461  1.0000
  Zn  Zn15      1.0  0.0033993831630692102  0.000842345769327659  0.9997901107511936  1.0000
  Zn  Zn16      1.0  0.008399383343180807  0.0008423459823436042  0.9993173886295689  1.0000
