data_image0
_chemical_formula_structural       Ga16H
_chemical_formula_sum              "Ga16 H1"
_cell_length_a       4.634366035461426
_cell_length_b       9.134160196796612
_cell_length_c       33.46335983276367
_cell_angle_alpha    61.46253347408007
_cell_angle_beta     90.0
_cell_angle_gamma    90.0

_space_group_name_H-M_alt    "P 1"
_space_group_IT_number       1

loop_
  _space_group_symop_operation_xyz
  'x, y, z'

loop_
  _atom_site_type_symbol
  _atom_site_label
  _atom_site_symmetry_multiplicity
  _atom_site_fract_x
  _atom_site_fract_y
  _atom_site_fract_z
  _atom_site_occupancy
  Ga  Ga1       1.0  9.307999959180988e-07  0.007590710628333205  0.9991233776251162  1.0000
  Ga  Ga2       1.0  8.569999941596919e-08  0.0031717437226340527  0.9975223663802166  1.0000
  Ga  Ga3       1.0  8.569999941596919e-08  0.006609164689552112  0.9970958450653856  1.0000
  Ga  Ga4       1.0  2.795000006929355e-07  0.00124753712879855  0.9984957457356246  1.0000
  Ga  Ga5       1.0  8.569999941596919e-08  0.0024272060376401886  0.9968725522884115  1.0000
  Ga  Ga6       1.0  0.009999914310621394  0.007351731654193306  0.9983433806894559  1.0000
  Ga  Ga7       1.0  0.0099998982338149  0.004078681763550133  0.9984867777177134  1.0000
  Ga  Ga8       1.0  8.569999941596919e-08  0.008989784662186463  0.9972990738168237  1.0000
  Ga  Ga9       1.0  0.00499989365192505  0.0057217323697992374  0.9982133100897487  1.0000
  Ga  Ga10      1.0  0.0050000857697626395  0.0006717438247679696  0.996839966231026  1.0000
  Ga  Ga11      1.0  0.0050000857697626395  0.004109165023808568  0.9964134448859258  1.0000
  Ga  Ga12      1.0  0.0050000857697626395  0.009109164355295657  0.9977782447995477  1.0000
  Ga  Ga13      1.0  0.0050000857697626395  0.00492720616762881  0.9975549524073329  1.0000
  Ga  Ga14      1.0  0.005000697090329531  0.009328255534573825  0.998927637647378  1.0000
  Ga  Ga15      1.0  0.0050000857697626395  0.00648978453219784  0.9966166736979024  1.0000
  Ga  Ga16      1.0  0.0050000857697626395  0.0014897848525269432  0.9979814737675679  1.0000
  H   H1        1.0  0.005000295170167209  0.007524993952186531  0.9990187249040197  1.0000
