data_image0
_chemical_formula_structural       HTc12Ru4Tc12Ru4
_chemical_formula_sum              "H1 Tc24 Ru8"
_cell_length_a       5.50935606624357
_cell_length_b       7.0224179158411575
_cell_length_c       112.13450622558594
_cell_angle_alpha    85.59825177915897
_cell_angle_beta     66.90423319225741
_cell_angle_gamma    66.90423308178308

_space_group_name_H-M_alt    "P 1"
_space_group_IT_number       1

loop_
  _space_group_symop_operation_xyz
  'x, y, z'

loop_
  _atom_site_type_symbol
  _atom_site_label
  _atom_site_symmetry_multiplicity
  _atom_site_fract_x
  _atom_site_fract_y
  _atom_site_fract_z
  _atom_site_occupancy
  H   H1        1.0  0.004553738151929629  0.0012499286814744504  0.9999842278909302  1.0000
  Tc  Tc1       1.0  0.0012243723890294537  0.0004252092004291597  0.9987198845950144  1.0000
  Tc  Tc2       1.0  0.006224372160602844  0.005425209214907139  0.9990330091632031  1.0000
  Tc  Tc3       1.0  0.0037499999959993914  0.007899581570185723  0.9988780517318304  1.0000
  Tc  Tc4       1.0  0.008750000082018865  0.002899581628097639  0.9991911766179932  1.0000
  Tc  Tc5       1.0  0.00627562758666327  0.0004252092004291597  0.9987198846718407  1.0000
  Tc  Tc6       1.0  0.0012756274611496214  0.005425209214907139  0.9990330091742605  1.0000
  Tc  Tc7       1.0  0.008775627482169443  0.009574790900916695  0.9990862665315637  1.0000
  Tc  Tc8       1.0  0.003775627303555587  0.004574790958828612  0.9987731419708719  1.0000
  Tc  Tc9       1.0  0.006249999547147389  0.0021004184587702364  0.9989280994014181  1.0000
  Tc  Tc10      1.0  0.001249999749685858  0.007100418545638112  0.9992412238971675  1.0000
  Tc  Tc11      1.0  0.0037243726520819185  0.009574790900916695  0.9990862664476537  1.0000
  Tc  Tc12      1.0  0.00872437200300881  0.004574790958828612  0.9987731419598145  1.0000
  Ru  Ru1       1.0  0.0012500000655343874  0.0020833332850734025  0.9989291693564187  1.0000
  Ru  Ru2       1.0  0.006250000165159894  0.007083333371941278  0.9992422939179371  1.0000
  Ru  Ru3       1.0  0.008750000212704974  0.007916666743882556  0.9988769817626625  1.0000
  Ru  Ru4       1.0  0.00375000003409112  0.0029166668017944724  0.99919010659014  1.0000
  Tc  Tc13      1.0  0.0012243723890294537  0.0004252092004291597  0.9993461339831837  1.0000
  Tc  Tc14      1.0  0.006224372160602844  0.005425209214907139  0.9996592590829184  1.0000
  Tc  Tc15      1.0  0.0037499999959993914  0.007899581570185723  0.9995043011199998  1.0000
  Tc  Tc16      1.0  0.008750000082018865  0.002899581628097639  0.9998174260061625  1.0000
  Tc  Tc17      1.0  0.00627562758666327  0.0004252092004291597  0.99934613406001  1.0000
  Tc  Tc18      1.0  0.0012756274611496214  0.005425209214907139  0.9996592585624299  1.0000
  Tc  Tc19      1.0  0.008775627482169443  0.009574790900916695  0.999712516451279  1.0000
  Tc  Tc20      1.0  0.003775627303555587  0.004574790958828612  0.9993993913590412  1.0000
  Tc  Tc21      1.0  0.006249999547147389  0.0021004184587702364  0.9995543487895875  1.0000
  Tc  Tc22      1.0  0.001249999749685858  0.007100418545638112  0.9998674738168828  1.0000
  Tc  Tc23      1.0  0.0037243726520819185  0.009574790900916695  0.999712516367369  1.0000
  Tc  Tc24      1.0  0.00872437200300881  0.004574790958828612  0.9993993913479838  1.0000
  Ru  Ru5       1.0  0.0012500000655343874  0.0020833332850734025  0.9995554187445881  1.0000
  Ru  Ru6       1.0  0.006250000165159894  0.007083333371941278  0.9998685438376523  1.0000
  Ru  Ru7       1.0  0.008750000212704974  0.007916666743882556  0.9995032311508318  1.0000
  Ru  Ru8       1.0  0.00375000003409112  0.0029166668017944724  0.9998163559783093  1.0000
