data_image0
_chemical_formula_structural       COAl36Fe6
_chemical_formula_sum              "C1 O1 Al36 Fe6"
_cell_length_a       4.947734484067224
_cell_length_b       10.152403886498044
_cell_length_c       31.394424438476562
_cell_angle_alpha    88.42815554793168
_cell_angle_beta     89.8527454879776
_cell_angle_gamma    93.91202815814879

_space_group_name_H-M_alt    "P 1"
_space_group_IT_number       1

loop_
  _space_group_symop_operation_xyz
  'x, y, z'

loop_
  _atom_site_type_symbol
  _atom_site_label
  _atom_site_symmetry_multiplicity
  _atom_site_fract_x
  _atom_site_fract_y
  _atom_site_fract_z
  _atom_site_occupancy
  C   C1        1.0  0.0029366037374471397  0.004340614110901357  0.00021770817092628031  1.0000
  O   O1        1.0  0.0029366037374471397  0.004340614110901357  0.0005999414728901048  1.0000
  Al  Al1       1.0  0.0020866373287904134  0.002919141022075041  0.9975936070800203  1.0000
  Al  Al2       1.0  0.0009755261081024318  0.005141363100393945  0.9989599352523711  1.0000
  Al  Al3       1.0  0.0031977483847747414  0.0006969189437561365  0.996227279145058  1.0000
  Al  Al4       1.0  0.0028126924081181026  0.000968515125992352  0.998868432388412  1.0000
  Al  Al5       1.0  0.005034914760509059  0.006524070965675197  0.9961357763190725  1.0000
  Al  Al6       1.0  0.003923803516291984  0.0087462930439941  0.997502104254111  1.0000
  Al  Al7       1.0  0.0015310817907834553  0.009030252473321267  0.9982767714188185  1.0000
  Al  Al8       1.0  0.009958288500014094  0.0013659386931089484  0.9996573535181471  1.0000
  Al  Al9       1.0  0.002642192743644578  0.006808029659133123  0.9969104432531037  1.0000
  Al  Al10      1.0  0.007423338063301384  0.005657215899018866  0.9968029430313525  1.0000
  Al  Al11      1.0  0.006312227058878659  0.00787943834527239  0.9981692709630301  1.0000
  Al  Al12      1.0  0.0047894286862929965  0.00018229894456674067  0.9996185322747692  1.0000
  Al  Al13      1.0  0.002058055188720342  0.004082086690388422  0.996771522470366  1.0000
  Al  Al14      1.0  0.0009469440150905471  0.006304308768707327  0.9981378504053761  1.0000
  Al  Al15      1.0  0.009418059228322348  0.008506537279818505  0.9995282973888929  1.0000
  Al  Al16      1.0  0.008704948407921693  0.007595478915945224  0.9973946042731187  1.0000
  Al  Al17      1.0  0.007593837728402859  0.009817700994264128  0.9987609324452502  1.0000
  Al  Al18      1.0  0.009816059788809912  0.0053732564696917  0.9960282761039668  1.0000
  Al  Al19      1.0  0.0031513649035130958  0.0033392226469280083  0.9984519684250909  1.0000
  Al  Al20      1.0  0.0017704894611369727  0.005469399257429053  0.999856371755468  1.0000
  Al  Al21      1.0  0.004262476109058969  0.0011170002926581396  0.9970856402551941  1.0000
  Al  Al22      1.0  0.009289086592029192  0.0003214220493406682  0.9975335247788477  1.0000
  Al  Al23      1.0  0.008177975175692371  0.0025436442426391413  0.9988998529502577  1.0000
  Al  Al24      1.0  0.00040019744988324863  0.008099199806371022  0.9961671969261157  1.0000
  Al  Al25      1.0  0.0063592586575156795  0.008907387330060124  0.9966641092050759  1.0000
  Al  Al26      1.0  0.005248147425561057  0.0011296098719766488  0.9980304373353474  1.0000
  Al  Al27      1.0  0.004133972344392594  0.0033064992777649465  0.9994752050195511  1.0000
  Al  Al28      1.0  0.004987883058748831  0.005496121245018224  0.9976409383209178  1.0000
  Al  Al29      1.0  0.0038526124862529073  0.0077324815790147895  0.9990274190942472  1.0000
  Al  Al30      1.0  0.0060989941147331595  0.0032738991666993195  0.9962746101486338  1.0000
  Al  Al31      1.0  0.007084665418344847  0.003286508654034174  0.9972194069922864  1.0000
  Al  Al32      1.0  0.0059735547388260115  0.005508730732353078  0.9985857349270962  1.0000
  Al  Al33      1.0  0.004440122719867498  0.007746028195824765  0.9999294903100655  1.0000
  Al  Al34      1.0  0.009260503984599853  0.001484367740649963  0.9967114401691788  1.0000
  Al  Al35      1.0  0.00814939331797142  0.0037065899109525223  0.9980777681031674  1.0000
  Al  Al36      1.0  0.006932308659929868  0.005883526964274007  0.999456699844545  1.0000
  Fe  Fe1       1.0  0.00019431914687716961  0.0014569415261996292  0.9982316963105937  1.0000
  Fe  Fe2       1.0  0.00918590675452089  0.003734405032295358  0.9995305849317804  1.0000
  Fe  Fe3       1.0  0.0013054301887379092  0.009234718892299449  0.9968653681812151  1.0000
  Fe  Fe4       1.0  4.1711311437815296e-05  0.005168789314844279  0.997439679153526  1.0000
  Fe  Fe5       1.0  0.008930600252427593  0.007391011761097802  0.9988060070425078  1.0000
  Fe  Fe6       1.0  0.00115282241448033  0.0029465672365253746  0.996073350981223  1.0000
