data_image0
_chemical_formula_structural       HAl6Mn6Rh12
_chemical_formula_sum              "H1 Al6 Mn6 Rh12"
_cell_length_a       6.000314235687256
_cell_length_b       7.348854159439735
_cell_length_c       102.31268310546875
_cell_angle_alpha    94.34775315993564
_cell_angle_beta     90.0
_cell_angle_gamma    114.09484229917017

_space_group_name_H-M_alt    "P 1"
_space_group_IT_number       1

loop_
  _space_group_symop_operation_xyz
  'x, y, z'

loop_
  _atom_site_type_symbol
  _atom_site_label
  _atom_site_symmetry_multiplicity
  _atom_site_fract_x
  _atom_site_fract_y
  _atom_site_fract_z
  _atom_site_occupancy
  H   H1        1.0  0.007211122393198561  0.00015423364313739158  0.0001311347012107301  1.0000
  Al  Al1       1.0  0.0015426529074502684  0.003960215976779466  0.9997792550922673  1.0000
  Al  Al2       1.0  0.00749999991467347  0.0056790995111860604  0.9995127211524448  1.0000
  Al  Al3       1.0  0.005469964523778343  0.0021130036710081688  3.5479831907782506e-05  1.0000
  Al  Al4       1.0  0.004583333322201692  0.009845766400744409  0.9996443138026927  1.0000
  Al  Al5       1.0  0.000416666688359869  0.0015124329002423136  0.9993811282124273  1.0000
  Al  Al6       1.0  0.008719359105729083  0.008046579172587562  0.9999196637752858  1.0000
  Mn  Mn1       1.0  0.002499999916225592  0.0056790995111860604  0.9995127211524448  1.0000
  Mn  Mn2       1.0  0.0012733331113911983  0.002363930668597301  1.2872125533076386e-05  1.0000
  Mn  Mn3       1.0  0.006226234230460688  0.00397285978604681  0.9998009228483661  1.0000
  Mn  Mn4       1.0  0.005416666609201596  0.0015124329002423136  0.9993811282124273  1.0000
  Mn  Mn5       1.0  0.0036734594707515263  0.007979976909135015  0.9999209678536417  1.0000
  Mn  Mn6       1.0  0.009583333359452642  0.009845766400744409  0.9996443138026927  1.0000
  Rh  Rh1       1.0  0.003541666723499252  0.002762432855663977  0.9995785175003256  1.0000
  Rh  Rh2       1.0  0.009374999800375813  0.004429099555764396  0.9993153318645466  1.0000
  Rh  Rh3       1.0  0.007399694716730941  0.0008330737508945089  0.9998497098238877  1.0000
  Rh  Rh4       1.0  0.008541666450325605  0.002762432855663977  0.9995785175003256  1.0000
  Rh  Rh5       1.0  0.004374999918337161  0.004429099555764396  0.9993153318645466  1.0000
  Rh  Rh6       1.0  0.0024580886825350755  0.0008437558347470016  0.9998324096340114  1.0000
  Rh  Rh7       1.0  0.006458333363116336  0.008595766445322745  0.9994469245147946  1.0000
  Rh  Rh8       1.0  0.004567337696733509  0.0053403030403209985  0.9999820310887145  1.0000
  Rh  Rh9       1.0  0.0006249999917201733  0.006929099466607724  0.999710110440343  1.0000
  Rh  Rh10      1.0  0.0014583334810776838  0.008595766445322745  0.9994469245147946  1.0000
  Rh  Rh11      1.0  0.009377916391059298  0.004897256786481109  0.9999689435293692  1.0000
  Rh  Rh12      1.0  0.005624999873758824  0.006929099466607724  0.999710110440343  1.0000
