data_image0
_chemical_formula_structural       HCu3Rh6Si3Cu3Rh6Si3Cu3Rh6Si3Cu3Rh6Si3
_chemical_formula_sum              "H1 Cu12 Rh24 Si12"
_cell_length_a       8.387519836425781
_cell_length_b       8.387519541523792
_cell_length_c       100.81771850585938
_cell_angle_alpha    90.0
_cell_angle_beta     90.0
_cell_angle_gamma    120.00000116307085

_space_group_name_H-M_alt    "P 1"
_space_group_IT_number       1

loop_
  _space_group_symop_operation_xyz
  'x, y, z'

loop_
  _atom_site_type_symbol
  _atom_site_label
  _atom_site_symmetry_multiplicity
  _atom_site_fract_x
  _atom_site_fract_y
  _atom_site_fract_z
  _atom_site_occupancy
  H   H1        1.0  0.004166660654681109  0.0033333353266359893  7.17217010938084e-05  1.0000
  Cu  Cu1       1.0  0.0033333336088359226  0.0016666670222472433  0.9996515159999939  1.0000
  Cu  Cu2       1.0  0.0016666669908189423  0.0033333335316378856  0.9993118741666276  1.0000
  Cu  Cu3       1.0  5.307851918615359e-09  0.009999988799211832  0.0  1.0000
  Rh  Rh1       1.0  0.0016666669908189423  0.0033333335316378856  0.9995666055416523  1.0000
  Rh  Rh2       1.0  3.00000004461523e-10  2.5000000689682413e-10  0.999226963708286  1.0000
  Rh  Rh3       1.0  0.0033333162714964458  0.0016666825361594264  0.9998990310413731  1.0000
  Rh  Rh4       1.0  0.009999999792306306  0.010000000082057056  0.9997380239131537  1.0000
  Rh  Rh5       1.0  0.0033333336088359226  0.0016666670222472433  0.9993967846249692  1.0000
  Rh  Rh6       1.0  0.0016666669908189423  0.0033333335316378856  0.9990571430872088  1.0000
  Si  Si1       1.0  0.0016666648165323261  0.0033333355830642898  0.9998213250924372  1.0000
  Si  Si2       1.0  3.00000004461523e-10  2.5000000689682413e-10  0.9994816950833108  1.0000
  Si  Si3       1.0  0.0033333336088359226  0.0016666670222472433  0.9991420532499444  1.0000
  Cu  Cu4       1.0  0.003333333656637888  0.006666667063275771  0.9996515159999939  1.0000
  Cu  Cu5       1.0  0.0016666671327677295  0.008333333572666413  0.9993118741666276  1.0000
  Cu  Cu6       1.0  5.12862165565358e-09  0.004999988245326703  0.0  1.0000
  Rh  Rh7       1.0  0.0016666671327677295  0.008333333572666413  0.9995666055416523  1.0000
  Rh  Rh8       1.0  6.233770871854929e-10  0.005000000553885129  0.999226963708286  1.0000
  Rh  Rh9       1.0  0.0033333163994878757  0.006666682448973804  0.9998990310413731  1.0000
  Rh  Rh10      1.0  0.009999999203284107  0.005000000041028528  0.9997380239131537  1.0000
  Rh  Rh11      1.0  0.003333333656637888  0.006666667063275771  0.9993967846249692  1.0000
  Rh  Rh12      1.0  0.0016666671327677295  0.008333333572666413  0.9990571430872088  1.0000
  Si  Si4       1.0  0.0016666648273797506  0.008333335624092818  0.9998213250924372  1.0000
  Si  Si5       1.0  6.233770871854929e-10  0.005000000553885129  0.9994816950833108  1.0000
  Si  Si6       1.0  0.003333333656637888  0.006666667063275771  0.9991420532499444  1.0000
  Cu  Cu7       1.0  0.008333333582187115  0.0016666670222472433  0.9996515159999939  1.0000
  Cu  Cu8       1.0  0.006666666961243545  0.0033333335316378856  0.9993118741666276  1.0000
  Cu  Cu9       1.0  0.005000005224605496  0.009999988799211832  0.0  1.0000
  Rh  Rh13      1.0  0.006666666961243545  0.0033333335316378856  0.9995666055416523  1.0000
  Rh  Rh14      1.0  0.005000000320424606  2.5000000689682413e-10  0.999226963708286  1.0000
  Rh  Rh15      1.0  0.008333316466921049  0.0016666825361594264  0.9998990310413731  1.0000
  Rh  Rh16      1.0  0.004999999866028526  0.010000000082057056  0.9997380239131537  1.0000
  Rh  Rh17      1.0  0.008333333582187115  0.0016666670222472433  0.9993967846249692  1.0000
  Rh  Rh18      1.0  0.006666666961243545  0.0033333335316378856  0.9990571430872088  1.0000
  Si  Si7       1.0  0.0066666644337821535  0.0033333355830642898  0.9998213250924372  1.0000
  Si  Si8       1.0  0.005000000320424606  2.5000000689682413e-10  0.9994816950833108  1.0000
  Si  Si9       1.0  0.008333333582187115  0.0016666670222472433  0.9991420532499444  1.0000
  Cu  Cu10      1.0  0.008333333282915663  0.006666667063275771  0.9996515159999939  1.0000
  Cu  Cu11      1.0  0.006666666884045508  0.008333333572666413  0.9993118741666276  1.0000
  Cu  Cu12      1.0  0.005000004879899434  0.004999988245326703  0.0  1.0000
  Rh  Rh19      1.0  0.006666666884045508  0.008333333572666413  0.9995666055416523  1.0000
  Rh  Rh20      1.0  0.005000000374654866  0.005000000553885129  0.999226963708286  1.0000
  Rh  Rh21      1.0  0.008333316103542524  0.006666682448973804  0.9998990310413731  1.0000
  Rh  Rh22      1.0  0.0049999996740797414  0.005000000041028528  0.9997380239131537  1.0000
  Rh  Rh23      1.0  0.008333333282915663  0.006666667063275771  0.9993967846249692  1.0000
  Rh  Rh24      1.0  0.006666666884045508  0.008333333572666413  0.9990571430872088  1.0000
  Si  Si10      1.0  0.006666664800730941  0.008333335624092818  0.9998213250924372  1.0000
  Si  Si11      1.0  0.005000000374654866  0.005000000553885129  0.9994816950833108  1.0000
  Si  Si12      1.0  0.008333333282915663  0.006666667063275771  0.9991420532499444  1.0000
