data_image0
_chemical_formula_structural       Fe12Ga6V6CO
_chemical_formula_sum              "Fe12 Ga6 V6 C1 O1"
_cell_length_a       5.749157428741455
_cell_length_b       7.041250714089449
_cell_length_c       39.03984069824219
_cell_angle_alpha    85.65224689340394
_cell_angle_beta     90.0
_cell_angle_gamma    114.09484386793419

_space_group_name_H-M_alt    "P 1"
_space_group_IT_number       1

loop_
  _space_group_symop_operation_xyz
  'x, y, z'

loop_
  _atom_site_type_symbol
  _atom_site_label
  _atom_site_symmetry_multiplicity
  _atom_site_fract_x
  _atom_site_fract_y
  _atom_site_fract_z
  _atom_site_occupancy
  Fe  Fe1       1.0  0.004413208608454552  0.004079047045624001  0.9999441511873798  1.0000
  Fe  Fe2       1.0  0.003028781735176811  0.0006250000232628911  0.9986777405924305  1.0000
  Fe  Fe3       1.0  0.00885538544459309  0.0022703248425921126  0.999348046896645  1.0000
  Fe  Fe4       1.0  9.621829652221597e-05  0.0040799819230587136  0.9999442139795478  1.0000
  Fe  Fe5       1.0  0.008028781424150479  0.0006250000232628911  0.9986777405924305  1.0000
  Fe  Fe6       1.0  0.0038459573762802787  0.0022705871316888813  0.9993481490387838  1.0000
  Fe  Fe7       1.0  0.00011211540861508915  0.004791666748086785  0.9983473070880128  1.0000
  Fe  Fe8       1.0  0.0059454485754678035  0.006458333379859115  0.9990081739735939  1.0000
  Fe  Fe9       1.0  0.0017955876638705403  0.00817236413020013  0.9996679596434856  1.0000
  Fe  Fe10      1.0  0.005112115259581639  0.004791666748086785  0.9983473070880128  1.0000
  Fe  Fe11      1.0  0.0009454487245012539  0.006458333379859115  0.9990081739735939  1.0000
  Fe  Fe12      1.0  0.00680762035607515  0.008171909922252068  0.9996677242434286  1.0000
  Ga  Ga1       1.0  0.007850883138100147  0.005269298391949864  0.9995078485609064  1.0000
  Ga  Ga2       1.0  0.006153781602926536  0.001875000069788673  0.9981820905882768  1.0000
  Ga  Ga3       1.0  0.001987115290586363  0.003541666701561003  0.9988429570921666  1.0000
  Ga  Ga4       1.0  0.0006051116569369153  0.0007855245126154472  0.9999061729142543  1.0000
  Ga  Ga5       1.0  0.009070448605210411  0.007708333426384897  0.99851252396944  1.0000
  Ga  Ga6       1.0  0.004903782013031993  0.009375000348943365  0.9991733904693539  1.0000
  V   V1        1.0  0.006987115242798463  0.003541666701561003  0.9988429570921666  1.0000
  V   V2        1.0  0.0028482328807031667  0.005264306175527111  0.9995035876791262  1.0000
  V   V3        1.0  0.0011537818734546471  0.001875000069788673  0.9981820905882768  1.0000
  V   V4        1.0  0.009903781742503882  0.009375000348943365  0.9991733904693539  1.0000
  V   V5        1.0  0.005778230946267373  0.001127729564117813  0.9997994174845042  1.0000
  V   V6        1.0  0.004070448592250979  0.007708333426384897  0.99851252396944  1.0000
  C   C1        1.0  0.004793813138181465  0.009157334711389778  0.000223997734037127  1.0000
  O   O1        1.0  0.004793813138181465  0.009157334711389778  0.0005313758970047079  1.0000
