data_image0
_chemical_formula_structural       HAl12Fe18Si18
_chemical_formula_sum              "H1 Al12 Fe18 Si18"
_cell_length_a       12.158988815463278
_cell_length_b       7.592121017950054
_cell_length_c       98.57906341552734
_cell_angle_alpha    94.07663611423997
_cell_angle_beta     92.00310472311975
_cell_angle_gamma    65.64840604188751

_space_group_name_H-M_alt    "P 1"
_space_group_IT_number       1

loop_
  _space_group_symop_operation_xyz
  'x, y, z'

loop_
  _atom_site_type_symbol
  _atom_site_label
  _atom_site_symmetry_multiplicity
  _atom_site_fract_x
  _atom_site_fract_y
  _atom_site_fract_z
  _atom_site_occupancy
  H   H1        1.0  0.007083569901092093  0.002902964594653886  0.00012911561001468705  1.0000
  Al  Al1       1.0  0.007612054753313343  0.0003480667578393769  3.935304046674773e-05  1.0000
  Al  Al2       1.0  0.004388062242692072  0.009591115470695206  0.9998053811734602  1.0000
  Al  Al3       1.0  0.0010528785852747845  0.009651933205734738  0.999562937514872  1.0000
  Al  Al4       1.0  0.007128371002616103  0.0028874711822150885  0.999510688962906  1.0000
  Al  Al5       1.0  0.00375499603168389  0.0030485262042045367  0.9999934507138817  1.0000
  Al  Al6       1.0  0.00044764748170061854  0.0029697594125088385  0.9997615223228383  1.0000
  Al  Al7       1.0  0.009561635384240659  0.007435268149937581  0.9994764694714816  1.0000
  Al  Al8       1.0  0.006333130903395733  0.007456279139411975  0.9999651154713699  1.0000
  Al  Al9       1.0  0.0028949692244346096  0.007435268149937581  0.9997180613034858  1.0000
  Al  Al10      1.0  0.008970461659059676  0.00067080605896259  0.999665812751225  1.0000
  Al  Al11      1.0  0.0056371285791566505  0.00067080605896259  0.9994242210162175  1.0000
  Al  Al12      1.0  0.0023293395244709325  0.0007002762854186083  0.9999261290087864  1.0000
  Fe  Fe1       1.0  0.0003647839826047215  0.00247343812674106  1.5114978780669212e-05  1.0000
  Fe  Fe2       1.0  0.007004783302304201  0.0024607716327140153  0.9997736789374668  1.0000
  Fe  Fe3       1.0  0.0036917700590592085  0.002488099949741562  0.9995391423295231  1.0000
  Fe  Fe4       1.0  0.006331570167991505  0.007834639382411107  0.9996896076345497  1.0000
  Fe  Fe5       1.0  0.00299823708808848  0.007834639382411107  0.9994480162018613  1.0000
  Fe  Fe6       1.0  0.009635216115912117  0.007849225385608831  0.9999290851920228  1.0000
  Fe  Fe7       1.0  0.00921330646146439  0.0007285654363169433  0.9994245383692772  1.0000
  Fe  Fe8       1.0  0.005801214256045341  0.0008233138822063371  0.9999149757071855  1.0000
  Fe  Fe9       1.0  0.002546639995089419  0.0007285654363169433  0.9996661301999596  1.0000
  Fe  Fe10      1.0  0.007476699856257388  0.009594174165657087  0.9995626200662896  1.0000
  Fe  Fe11      1.0  0.004266315379346345  0.009517564325930804  3.944492832418556e-05  1.0000
  Fe  Fe12      1.0  0.0008331623891369988  0.009609299271936485  0.9998005531586498  1.0000
  Fe  Fe13      1.0  0.007707613357502406  0.004092463705443556  1.1414056467903528e-06  1.0000
  Fe  Fe14      1.0  0.004449911127917762  0.0043321468309485325  0.9997849874798476  1.0000
  Fe  Fe15      1.0  0.0011177087406728627  0.0043170014880669705  0.9995440777273763  1.0000
  Fe  Fe16      1.0  0.008905632099515693  0.006005737844085699  0.9996846725416589  1.0000
  Fe  Fe17      1.0  0.005572298406474825  0.006005737844085699  0.999443080804008  1.0000
  Fe  Fe18      1.0  0.002200292628020258  0.006104873450413758  0.9999145461479045  1.0000
  Si  Si1       1.0  0.007404316186971261  0.006683182115656435  0.9994884288100367  1.0000
  Si  Si2       1.0  0.0038547931677049376  0.006863324570629164  0.9999752415417758  1.0000
  Si  Si3       1.0  0.0007376495673118293  0.006683182115656435  0.9997300203377394  1.0000
  Si  Si4       1.0  0.007739412824047783  0.0047871215006371065  0.9997795594108768  1.0000
  Si  Si5       1.0  0.004343771743121806  0.0048324622823409345  0.999535143285465  1.0000
  Si  Si6       1.0  0.0011301527585307538  0.004704090991775948  6.2094115993203636e-06  1.0000
  Si  Si7       1.0  0.009285690813023346  0.0036395572164962336  0.9994987299293132  1.0000
  Si  Si8       1.0  0.005901925195742166  0.0037997930608300473  0.9999705634496526  1.0000
  Si  Si9       1.0  0.002619024040079452  0.0036395572164962336  0.999740321456355  1.0000
  Si  Si10      1.0  0.004400427231253985  0.009023638514216623  0.9995529161462477  1.0000
  Si  Si11      1.0  0.0009987402405692162  0.009048802054455251  3.382202599411048e-05  1.0000
  Si  Si12      1.0  0.007729431247660536  0.009000064221801345  0.9997966834675175  1.0000
  Si  Si13      1.0  0.002289579881326211  0.0012991009528467267  0.9994342423857263  1.0000
  Si  Si14      1.0  0.009062871759344004  0.0012096501795827374  0.9999207373288179  1.0000
  Si  Si15      1.0  0.005622912961229236  0.0012991009528467267  0.9996758341207337  1.0000
  Si  Si16      1.0  0.008950951418178405  0.005642170287447733  0.9999828010720715  1.0000
  Si  Si17      1.0  0.005679568483928907  0.005490277049811735  0.9996936069809268  1.0000
  Si  Si18      1.0  0.002346235097456961  0.005490277049811735  0.9994520152445976  1.0000
