data_image0
_chemical_formula_structural       COAl6Sb6Al6Sb6
_chemical_formula_sum              "C1 O1 Al12 Sb12"
_cell_length_a       8.868927723987696
_cell_length_b       11.471928412918238
_cell_length_c       104.08500671386719
_cell_angle_alpha    81.99205164935891
_cell_angle_beta     105.08194516879709
_cell_angle_gamma    67.26005445058358

_space_group_name_H-M_alt    "P 1"
_space_group_IT_number       1

loop_
  _space_group_symop_operation_xyz
  'x, y, z'

loop_
  _atom_site_type_symbol
  _atom_site_label
  _atom_site_symmetry_multiplicity
  _atom_site_fract_x
  _atom_site_fract_y
  _atom_site_fract_z
  _atom_site_occupancy
  C   C1        1.0  0.0019772738705653987  0.0019819401397911064  0.00014125786204857358  1.0000
  O   O1        1.0  0.0019772738705653987  0.0019819401397911064  0.0002565484759184799  1.0000
  Al  Al1       1.0  0.0017740074188744468  0.005526924243610523  0.9998318209229462  1.0000
  Al  Al2       1.0  0.0015409405757241762  0.00965234736119284  0.9996186007147473  1.0000
  Al  Al3       1.0  0.001540940525975738  0.0029856806409024397  0.9993457070616004  1.0000
  Al  Al4       1.0  0.0032076069506582943  0.009096791831636671  0.9992547422902663  1.0000
  Al  Al5       1.0  0.003333497113809601  0.0022485024397550808  0.9998059470624568  1.0000
  Al  Al6       1.0  0.003207607033019894  0.005763458288683287  0.9995276363604888  1.0000
  Sb  Sb1       1.0  0.0015409403078864624  0.007569874786281147  0.9992776245703304  1.0000
  Sb  Sb2       1.0  0.001687337258712003  0.0007151690556985703  0.9998349186508311  1.0000
  Sb  Sb3       1.0  0.0015409403902480613  0.004236541243327764  0.9995505186405528  1.0000
  Sb  Sb4       1.0  0.0032670724195538355  0.006959204783352472  0.9997372176091619  1.0000
  Sb  Sb5       1.0  0.0032076070010726735  0.0003476526506896917  0.9994595537096767  1.0000
  Sb  Sb6       1.0  0.0034590594301474585  0.0033022301931399747  2.5988090575375446e-05  1.0000
  Al  Al7       1.0  0.006774007262266197  0.005526924243610523  0.9998318207362249  1.0000
  Al  Al8       1.0  0.006540940419115926  0.00965234736119284  0.9996186011006795  1.0000
  Al  Al9       1.0  0.006540940369367488  0.0029856806409024397  0.9993457071612059  1.0000
  Al  Al10      1.0  0.008207607229072962  0.009096791831636671  0.9992547423995168  1.0000
  Al  Al11      1.0  0.008333497392224267  0.0022485024397550808  0.9998059468853805  1.0000
  Al  Al12      1.0  0.008207606876411644  0.005763458288683287  0.9995276364600942  1.0000
  Sb  Sb7       1.0  0.0065409405863011295  0.007569874786281147  0.9992776243932541  1.0000
  Sb  Sb8       1.0  0.006687337319615212  0.0007151690556985703  0.9998349184689322  1.0000
  Sb  Sb9       1.0  0.006540940233639811  0.004236541243327764  0.9995505184538315  1.0000
  Sb  Sb10      1.0  0.008267072697968503  0.006959204783352472  0.9997372180047391  1.0000
  Sb  Sb11      1.0  0.00820760727948734  0.0003476526506896917  0.999459553818927  1.0000
  Sb  Sb12      1.0  0.008459059708562127  0.0033022301931399747  2.5988486152572615e-05  1.0000
