data_image0
_chemical_formula_structural       CONa8Al8Ge8Na8Al8Ge8
_chemical_formula_sum              "C1 O1 Na16 Al16 Ge16"
_cell_length_a       5.963002681732178
_cell_length_b       15.689217532937647
_cell_length_c       105.77801513671875
_cell_angle_alpha    100.95483006465324
_cell_angle_beta     90.0
_cell_angle_gamma    79.04516993534676

_space_group_name_H-M_alt    "P 1"
_space_group_IT_number       1

loop_
  _space_group_symop_operation_xyz
  'x, y, z'

loop_
  _atom_site_type_symbol
  _atom_site_label
  _atom_site_symmetry_multiplicity
  _atom_site_fract_x
  _atom_site_fract_y
  _atom_site_fract_z
  _atom_site_occupancy
  C   C1        1.0  0.00817282190245384  0.0017048208352299632  0.0001525842967303424  1.0000
  O   O1        1.0  0.00817282190245384  0.0017048208352299632  0.00026602908673269084  1.0000
  Na  Na1       1.0  0.003416123074479197  0.008731527423703424  0.9992706883156709  1.0000
  Na  Na2       1.0  0.005916122768804442  0.0037315280350529354  0.9991297563378652  1.0000
  Na  Na3       1.0  0.0009161229062459131  0.0037315280350529354  0.9994116203730192  1.0000
  Na  Na4       1.0  0.008416123249404706  0.008731527423703424  0.9989888245622608  1.0000
  Na  Na5       1.0  0.009110232722523346  0.007343308477466147  0.9992315594225425  1.0000
  Na  Na6       1.0  0.0016102327491324018  0.0023433083492799584  0.9990906274238919  1.0000
  Na  Na7       1.0  0.00661023261169093  0.0023433083492799584  0.9993724914590459  1.0000
  Na  Na8       1.0  0.004110232547597835  0.007343308477466147  0.9995134234576967  1.0000
  Al  Al1       1.0  0.0075131781812868255  0.005537418009747641  0.9990397261374224  1.0000
  Al  Al2       1.0  1.3177894583286996e-05  0.0005374183129572776  0.9994625222212397  1.0000
  Al  Al3       1.0  0.005013177854756497  0.0005374183129572776  0.9991806579043414  1.0000
  Al  Al4       1.0  0.002513178006361315  0.005537418009747641  0.9993215898908326  1.0000
  Al  Al5       1.0  0.0075131781812868255  0.005537418009747641  0.9993215898908326  1.0000
  Al  Al6       1.0  1.3177894583286996e-05  0.0005374183129572776  0.9991806579043414  1.0000
  Al  Al7       1.0  0.005013177854756497  0.0005374183129572776  0.9994625222212397  1.0000
  Al  Al8       1.0  0.002513178006361315  0.005537418009747641  0.9990397261374224  1.0000
  Ge  Ge1       1.0  0.004475759406871836  0.006612254758918147  0.9992109536507355  1.0000
  Ge  Ge2       1.0  0.0069757593477089794  0.0016122548772438579  0.9990700216590332  1.0000
  Ge  Ge3       1.0  0.001975759485150452  0.0016122548772438579  0.9993518856941873  1.0000
  Ge  Ge4       1.0  0.009475759581797347  0.006612254758918147  0.9994928176858897  1.0000
  Ge  Ge5       1.0  0.008050596390130706  0.009462581142251424  0.9992912940874779  1.0000
  Ge  Ge6       1.0  0.0005505960469719126  0.004462581753600936  0.999150362109672  1.0000
  Ge  Ge7       1.0  0.005550595909530442  0.004462581753600936  0.9994322261448262  1.0000
  Ge  Ge8       1.0  0.003050596215205197  0.009462581142251424  0.9990094303340677  1.0000
  Na  Na9       1.0  0.0034248022119577866  0.008714926326309751  0.9998543901158856  1.0000
  Na  Na10      1.0  0.005916122768804442  0.0037315280350529354  0.9996934844081734  1.0000
  Na  Na11      1.0  0.0008112382798457273  0.003939606757748647  4.904723728740321e-06  1.0000
  Na  Na12      1.0  0.008416123249404706  0.008731527423703424  0.9995525523508251  1.0000
  Na  Na13      1.0  0.009123032925183556  0.007316443610604029  0.9998136578699828  1.0000
  Na  Na14      1.0  0.0016102327491324018  0.0023433083492799584  0.9996543554942001  1.0000
  Na  Na15      1.0  0.006580671470705136  0.002401949586099815  0.9999554707091439  1.0000
  Na  Na16      1.0  0.0045902470383583985  0.006387667627303163  0.0001583983925247969  1.0000
  Al  Al9       1.0  0.0075131781812868255  0.005537418009747641  0.9996034542077308  1.0000
  Al  Al10      1.0  0.009986822228493905  0.000563992295777394  1.5896911885943768e-05  1.0000
  Al  Al11      1.0  0.005013177854756497  0.0005374183129572776  0.9997443856929057  1.0000
  Al  Al12      1.0  0.0025549743599292637  0.0055195335714025625  0.9998827822071537  1.0000
  Al  Al13      1.0  0.007491772719190347  0.005519554771425963  0.9998823635696158  1.0000
  Al  Al14      1.0  1.3177894583286996e-05  0.0005374183129572776  0.9997443856929057  1.0000
  Al  Al15      1.0  0.005010115925147432  0.0005641758855149198  1.5894197787197618e-05  1.0000
  Al  Al16      1.0  0.002513178006361315  0.005537418009747641  0.9996034542077308  1.0000
  Ge  Ge9       1.0  0.004475759406871836  0.006612254758918147  0.9997746817210439  1.0000
  Ge  Ge10      1.0  0.0069757593477089794  0.0016122548772438579  0.9996337497293415  1.0000
  Ge  Ge11      1.0  0.0019320183258563538  0.0016921098188742575  0.9999148899344623  1.0000
  Ge  Ge12      1.0  0.009634937147200038  0.006313121442695237  6.844773055137297e-05  1.0000
  Ge  Ge13      1.0  0.008074718781151768  0.009412874482735208  0.9998527471361218  1.0000
  Ge  Ge14      1.0  0.0005505960469719126  0.004462581753600936  0.9997140901799804  1.0000
  Ge  Ge15      1.0  0.0055322457423383105  0.004494335444463875  0.9999923695075411  1.0000
  Ge  Ge16      1.0  0.003050596215205197  0.009462581142251424  0.999573158122632  1.0000
