data_image0
_chemical_formula_structural       COMn4Co4Ge4Mn4Co4Ge4Mn4Co4Ge4Mn4Co4Ge4
_chemical_formula_sum              "C1 O1 Mn16 Co16 Ge16"
_cell_length_a       6.5057952378759785
_cell_length_b       8.099313328253004
_cell_length_c       109.03477478027344
_cell_angle_alpha    71.86635472691896
_cell_angle_beta     103.00666735392433
_cell_angle_gamma    71.86635283520494

_space_group_name_H-M_alt    "P 1"
_space_group_IT_number       1

loop_
  _space_group_symop_operation_xyz
  'x, y, z'

loop_
  _atom_site_type_symbol
  _atom_site_label
  _atom_site_symmetry_multiplicity
  _atom_site_fract_x
  _atom_site_fract_y
  _atom_site_fract_z
  _atom_site_occupancy
  C   C1        1.0  0.005010924562780166  0.0015602688796474374  3.121946842541728e-05  1.0000
  O   O1        1.0  0.005010924562780166  0.0015602688796474374  0.00014127577604133694  1.0000
  Mn  Mn1       1.0  0.003942103887877043  0.002577080498841551  0.9998523117008441  1.0000
  Mn  Mn2       1.0  0.00875000023216418  0.0025187486919359646  0.9995791365778336  1.0000
  Mn  Mn3       1.0  0.0012499999871019901  0.0025187491719117585  0.999429968622281  1.0000
  Mn  Mn4       1.0  0.006353740886163032  0.002447666526308368  0.9997391128944717  1.0000
  Co  Co1       1.0  0.009121045021318656  0.004125366991805484  0.9997707733813777  1.0000
  Co  Co2       1.0  0.004166666623673301  0.004185415761666084  0.9994548296884314  1.0000
  Co  Co3       1.0  0.003449018451645299  0.0008540612443045298  0.9996961708812917  1.0000
  Co  Co4       1.0  0.008333333247346602  0.0008520824913114155  0.9994051069445891  1.0000
  Ge  Ge1       1.0  0.0011009916972827588  0.0008145841114227066  0.9998465977685469  1.0000
  Ge  Ge2       1.0  0.005833333273142621  0.000852082453524217  0.9995542749525731  1.0000
  Ge  Ge3       1.0  0.0016666666494693204  0.0041854159658736975  0.9996039976908206  1.0000
  Ge  Ge4       1.0  0.006751880524681962  0.004124087046483435  0.9999113223436719  1.0000
  Mn  Mn5       1.0  0.0037499999613059705  0.0025187489677041455  0.9992808006198916  1.0000
  Mn  Mn6       1.0  0.00875000023216418  0.0025187486919359646  0.9989824648897051  1.0000
  Mn  Mn7       1.0  0.0012499999871019901  0.0025187491719117585  0.9988332969341523  1.0000
  Mn  Mn8       1.0  0.006250000257960198  0.0025187488961435777  0.9991316326187658  1.0000
  Co  Co5       1.0  0.009166666572081261  0.004185415837240481  0.9991564942191206  1.0000
  Co  Co6       1.0  0.004166666623673301  0.004185415761666084  0.9988581582736314  1.0000
  Co  Co7       1.0  0.0033333332989386407  0.0008520824157370183  0.9991067715457571  1.0000
  Co  Co8       1.0  0.008333333247346602  0.0008520824913114155  0.9988084355297892  1.0000
  Ge  Ge5       1.0  0.000833333405347222  0.000852082350612878  0.9992559390087985  1.0000
  Ge  Ge6       1.0  0.005833333273142621  0.000852082453524217  0.9989576035377731  1.0000
  Ge  Ge7       1.0  0.0016666666494693204  0.0041854159658736975  0.9990073262760207  1.0000
  Ge  Ge8       1.0  0.0066666665978772814  0.0041854155574584705  0.9993056616860421  1.0000
  Mn  Mn9       1.0  0.003942103887877043  0.007577080740836362  0.9998523117717814  1.0000
  Mn  Mn10      1.0  0.00875000023216418  0.007518749175925587  0.9995791366431762  1.0000
  Mn  Mn11      1.0  0.0012499999871019901  0.007518748929916947  0.9994299687044076  1.0000
  Mn  Mn12      1.0  0.006353740886163032  0.007447666526308367  0.9997391129710038  1.0000
  Co  Co9       1.0  0.009121045021318656  0.009125366991805484  0.9997707734579097  1.0000
  Co  Co10      1.0  0.004166666623673301  0.00918541527767646  0.9994548297761527  1.0000
  Co  Co11      1.0  0.003449018451645299  0.005854061365301935  0.9996961709550263  1.0000
  Co  Co12      1.0  0.008333333247346602  0.005852082733306227  0.9994051070155263  1.0000
  Ge  Ge9       1.0  0.0011009916972827588  0.005814583748430489  0.999846597853471  1.0000
  Ge  Ge10      1.0  0.005833333273142621  0.005852082453524217  0.9995542750291051  1.0000
  Ge  Ge11      1.0  0.0016666666494693204  0.009185415965873698  0.9996039977673526  1.0000
  Ge  Ge12      1.0  0.006751880524681962  0.009124087046483435  0.9999113224202039  1.0000
  Mn  Mn13      1.0  0.0037499999613059705  0.007518748725709333  0.9992808007020183  1.0000
  Mn  Mn14      1.0  0.00875000023216418  0.007518749175925587  0.998982464681719  1.0000
  Mn  Mn15      1.0  0.0012499999871019901  0.007518748929916947  0.9988332970162791  1.0000
  Mn  Mn16      1.0  0.006250000257960198  0.0075187488961435765  0.9991316326952978  1.0000
  Co  Co13      1.0  0.009166666572081261  0.00918541583724048  0.9991564937489953  1.0000
  Co  Co14      1.0  0.004166666623673301  0.00918541527767646  0.9988581580880243  1.0000
  Co  Co15      1.0  0.0033333332989386407  0.005852082173742206  0.9991067716278839  1.0000
  Co  Co16      1.0  0.008333333247346602  0.005852082733306227  0.9988084356007264  1.0000
  Ge  Ge13      1.0  0.000833333405347222  0.005852082350612878  0.9992559390853305  1.0000
  Ge  Ge14      1.0  0.005833333273142621  0.005852082453524217  0.9989576033409765  1.0000
  Ge  Ge15      1.0  0.0016666666494693204  0.009185415965873698  0.9990073263525527  1.0000
  Ge  Ge16      1.0  0.0066666665978772814  0.00918541555745847  0.9993056617625741  1.0000
