data_image0
_chemical_formula_structural       COSn3Au15Sn3Au15
_chemical_formula_sum              "C1 O1 Sn6 Au30"
_cell_length_a       5.235862470786278
_cell_length_b       14.74005126953125
_cell_length_c       106.65103912353516
_cell_angle_alpha    90.0
_cell_angle_beta     119.99999863728993
_cell_angle_gamma    90.0

_space_group_name_H-M_alt    "P 1"
_space_group_IT_number       1

loop_
  _space_group_symop_operation_xyz
  'x, y, z'

loop_
  _atom_site_type_symbol
  _atom_site_label
  _atom_site_symmetry_multiplicity
  _atom_site_fract_x
  _atom_site_fract_y
  _atom_site_fract_z
  _atom_site_occupancy
  C   C1        1.0  0.0028447290821332367  0.005921099357831334  0.00015079076036907666  1.0000
  O   O1        1.0  0.0028447290821332367  0.005921099357831334  0.0002633069141043496  1.0000
  Sn  Sn1       1.0  0.003362341954143862  0.003350222534420794  0.9993508094265002  1.0000
  Sn  Sn2       1.0  0.006695675314862652  0.006683555965477368  0.9991871647340568  1.0000
  Sn  Sn3       1.0  2.900875067750252e-05  1.6889350173321333e-05  0.9995144541228037  1.0000
  Au  Au1       1.0  2.900875067750252e-05  0.0033164438222273145  0.9995144541228037  1.0000
  Au  Au2       1.0  0.006695675314862652  0.0016835560716250268  0.9995173025071322  1.0000
  Au  Au3       1.0  0.009970991077949439  0.0016835560716250268  0.9993479610714682  1.0000
  Au  Au4       1.0  0.003420359551775866  0.0016835560716250268  0.9991871646805619  1.0000
  Au  Au5       1.0  0.003362341954143862  5.0668048545491185e-05  0.9993508094265002  1.0000
  Au  Au6       1.0  0.003362341954143862  0.006649777253283889  0.9993508094265002  1.0000
  Au  Au7       1.0  2.900875067750252e-05  0.005016889123582821  0.9993536578388872  1.0000
  Au  Au8       1.0  0.0033043245619027886  0.005016889123582821  0.9991843164044047  1.0000
  Au  Au9       1.0  0.006753692501712796  0.005016889123582821  0.9995144540350271  1.0000
  Au  Au10      1.0  0.006695675314862652  0.0033840014993467933  0.9991871647340568  1.0000
  Au  Au11      1.0  0.006695675314862652  0.009983110431607942  0.9991871647340568  1.0000
  Au  Au12      1.0  0.003362341954143862  0.008350222807371915  0.9991900131425836  1.0000
  Au  Au13      1.0  0.006637657717230649  0.008350222807371915  0.9995116057639116  1.0000
  Au  Au14      1.0  8.702624882327428e-05  0.008350222807371915  0.9993508093744233  1.0000
  Au  Au15      1.0  2.900875067750252e-05  0.0067173346776708475  0.9995144541228037  1.0000
  Sn  Sn4       1.0  0.00384389125966619  0.0034054653140508473  0.99986794882468  1.0000
  Sn  Sn5       1.0  0.006695675314862652  0.006683555965477368  0.9996780987910489  1.0000
  Sn  Sn6       1.0  0.00968366477623759  1.896584991733463e-05  3.778563508936595e-06  1.0000
  Au  Au16      1.0  0.00010692834755216403  0.003352798131529476  2.624738134523537e-06  1.0000
  Au  Au17      1.0  0.007124690139026984  0.0017311629172698819  0.9999915764965385  1.0000
  Au  Au18      1.0  0.00035853703170539273  0.0017522199589834124  0.999840048466715  1.0000
  Au  Au19      1.0  0.003420359551775866  0.0016835560716250268  0.999678098737554  1.0000
  Au  Au20      1.0  0.00365984660879528  0.00010390065294770792  0.999905363558844  1.0000
  Au  Au21      1.0  0.003482642297465482  0.0066789895943106855  0.9998504668487627  1.0000
  Au  Au22      1.0  0.0019027688948482565  0.005046565986980903  0.9999363891605848  1.0000
  Au  Au23      1.0  0.0033043245619027886  0.005016889123582821  0.9996752504613968  1.0000
  Au  Au24      1.0  0.0075112013640849665  0.005102153493767882  0.9999936120269521  1.0000
  Au  Au25      1.0  0.006695675314862652  0.0033840014993467933  0.9996780987910489  1.0000
  Au  Au26      1.0  0.006695675314862652  0.009983110431607942  0.9996780987910489  1.0000
  Au  Au27      1.0  0.003362341954143862  0.008350222807371915  0.9996809471995757  1.0000
  Au  Au28      1.0  0.006863350719374339  0.008367072989928094  0.9999866514379276  1.0000
  Au  Au29      1.0  0.0005090766195584219  0.00840616767794181  0.9998524448483943  1.0000
  Au  Au30      1.0  0.009966879151525795  0.006795633234146804  0.9999901371003427  1.0000
