data_image0
_chemical_formula_structural       HW40
_chemical_formula_sum              "H1 W40"
_cell_length_a       8.998138427734375
_cell_length_b       7.113652875940699
_cell_length_c       103.06127166748047
_cell_angle_alpha    75.03678256244926
_cell_angle_beta     90.0
_cell_angle_gamma    71.56505075465186

_space_group_name_H-M_alt    "P 1"
_space_group_IT_number       1

loop_
  _space_group_symop_operation_xyz
  'x, y, z'

loop_
  _atom_site_type_symbol
  _atom_site_label
  _atom_site_symmetry_multiplicity
  _atom_site_fract_x
  _atom_site_fract_y
  _atom_site_fract_z
  _atom_site_occupancy
  H   H1        1.0  0.00469559689701821  0.0032144483137894514  0.9999427127480442  1.0000
  W   W1        1.0  0.004498306653483812  0.004005526967322741  0.998941588370499  1.0000
  W   W2        1.0  0.0034983065829230623  0.008005527249565741  0.9990485192292647  1.0000
  W   W3        1.0  0.0004983068233119782  5.527049782550069e-06  0.9993693116854107  1.0000
  W   W4        1.0  0.0024983068516334014  0.0020055269696173995  0.9991554500286487  1.0000
  W   W5        1.0  0.0014983068527807306  0.006005526965028082  0.9992623808925263  1.0000
  W   W6        1.0  0.004498306653483812  0.004005526967322741  0.9992089153160021  1.0000
  W   W7        1.0  0.0034983065829230623  0.008005527249565741  0.9993158464639387  1.0000
  W   W8        1.0  0.0004983068233119782  5.527049782550069e-06  0.9991019847399075  1.0000
  W   W9        1.0  0.0024983068516334014  0.0020055269696173995  0.9988881230831457  1.0000
  W   W10       1.0  0.0014983068527807306  0.006005526965028082  0.9989950539470233  1.0000
  W   W11       1.0  0.004498306653483812  0.004005526967322741  0.9994762422615051  1.0000
  W   W12       1.0  0.0034983065829230623  0.008005527249565741  0.9995831734094418  1.0000
  W   W13       1.0  0.00051853313820258  0.009925651044190792  0.999877929798876  1.0000
  W   W14       1.0  0.002502743045486098  0.0019872365332732097  0.9996998218703345  1.0000
  W   W15       1.0  0.0015119069339407448  0.005947734268849096  0.9997858964411833  1.0000
  W   W16       1.0  0.004501693152488294  0.0039909194579260225  0.9997407944011655  1.0000
  W   W17       1.0  0.0035077206711496296  0.007967889112957706  0.9998354743585611  1.0000
  W   W18       1.0  0.0005007492140405195  0.009994472442950016  0.9996361720660429  1.0000
  W   W19       1.0  0.0024983068516334014  0.0020055269696173995  0.9994227772633226  1.0000
  W   W20       1.0  0.0014983068527807306  0.006005526965028082  0.9995297078380294  1.0000
  W   W21       1.0  0.009498306256037306  0.004005526967322741  0.998941588370499  1.0000
  W   W22       1.0  0.008498306185476557  0.008005527249565741  0.9990485192292647  1.0000
  W   W23       1.0  0.00549830663286886  5.527049782550069e-06  0.9993693116854107  1.0000
  W   W24       1.0  0.0074983064541868935  0.0020055269696173995  0.9991554500286487  1.0000
  W   W25       1.0  0.006498306455334224  0.006005526965028082  0.9992623808925263  1.0000
  W   W26       1.0  0.009498306256037306  0.004005526967322741  0.9992089153160021  1.0000
  W   W27       1.0  0.008498306185476557  0.008005527249565741  0.9993158464639387  1.0000
  W   W28       1.0  0.00549830663286886  5.527049782550069e-06  0.9991019847399075  1.0000
  W   W29       1.0  0.0074983064541868935  0.0020055269696173995  0.9988881230831457  1.0000
  W   W30       1.0  0.006498306455334224  0.006005526965028082  0.9989950539470233  1.0000
  W   W31       1.0  0.009498306256037306  0.004005526967322741  0.9994762422615051  1.0000
  W   W32       1.0  0.008498306185476557  0.008005527249565741  0.9995831734094418  1.0000
  W   W33       1.0  0.005518532947759462  0.009925651044190792  0.999877929798876  1.0000
  W   W34       1.0  0.007502743269049757  0.0019872365332732097  0.9996998218703345  1.0000
  W   W35       1.0  0.006511906743497627  0.005947734268849096  0.9997858964411833  1.0000
  W   W36       1.0  0.009501693169048565  0.0039909194579260225  0.9997407944011655  1.0000
  W   W37       1.0  0.008507720687709901  0.007967889112957706  0.9998354743585611  1.0000
  W   W38       1.0  0.005500748816594013  0.009994472442950016  0.9996361720660429  1.0000
  W   W39       1.0  0.0074983064541868935  0.0020055269696173995  0.9994227772633226  1.0000
  W   W40       1.0  0.006498306455334224  0.006005526965028082  0.9995297078380294  1.0000
