data_image0
_chemical_formula_structural       HGa5Rh5Ga5Rh5Ga5Rh5Ga5Rh5
_chemical_formula_sum              "H1 Ga20 Rh20"
_cell_length_a       8.628570556640625
_cell_length_b       6.82148424548955
_cell_length_c       101.7033920288086
_cell_angle_alpha    75.03678298814194
_cell_angle_beta     90.0
_cell_angle_gamma    71.56505192707147

_space_group_name_H-M_alt    "P 1"
_space_group_IT_number       1

loop_
  _space_group_symop_operation_xyz
  'x, y, z'

loop_
  _atom_site_type_symbol
  _atom_site_label
  _atom_site_symmetry_multiplicity
  _atom_site_fract_x
  _atom_site_fract_y
  _atom_site_fract_z
  _atom_site_occupancy
  H   H1        1.0  0.0031853466509186006  0.007310507800678876  0.9998969305721811  1.0000
  Ga  Ga1       1.0  0.0040124112540883845  0.004011688929178771  0.9989036793260428  1.0000
  Ga  Ga2       1.0  0.003012411250498974  0.008011688943536412  0.9990075873181024  1.0000
  Ga  Ga3       1.0  1.241095039026739e-05  1.1689099432729348e-05  0.9993193116322437  1.0000
  Ga  Ga4       1.0  0.002012411080336923  0.0020116890715587148  0.9991114953316359  1.0000
  Ga  Ga5       1.0  0.001012411039357821  0.006011689235475121  0.9992154036141371  1.0000
  Rh  Rh1       1.0  0.0040124112540883845  0.004011688929178771  0.9991634493302557  1.0000
  Rh  Rh2       1.0  0.003012411250498974  0.008011688943536412  0.9992673573223152  1.0000
  Rh  Rh3       1.0  1.241095039026739e-05  1.1689099432729348e-05  0.9990595413349991  1.0000
  Rh  Rh4       1.0  0.002012411080336923  0.0020116890715587148  0.9988517253274231  1.0000
  Rh  Rh5       1.0  0.001012411039357821  0.006011689235475121  0.9989556333168924  1.0000
  Ga  Ga6       1.0  0.0040124112540883845  0.004011688929178771  0.9994232196275004  1.0000
  Ga  Ga7       1.0  0.003012411250498974  0.008011688943536412  0.9995271276195599  1.0000
  Ga  Ga8       1.0  1.5410482823277903e-05  0.009988310821955445  0.999827022406965  1.0000
  Ga  Ga9       1.0  0.001998531728547117  0.0020520982046592575  0.9996400234570935  1.0000
  Ga  Ga10      1.0  0.0010790330206852888  0.005732996049045091  0.9997607897849935  1.0000
  Rh  Rh6       1.0  0.004013218366354801  0.00399413192666224  0.9996808629856083  1.0000
  Rh  Rh7       1.0  0.0029960924474510655  0.008067524614549015  0.9997691080020557  1.0000
  Rh  Rh8       1.0  0.009987589623607084  0.00010097230058370321  0.9995694386696125  1.0000
  Rh  Rh9       1.0  0.002012411080336923  0.0020116890715587148  0.9993712653358489  1.0000
  Rh  Rh10      1.0  0.001012411039357821  0.006011689235475121  0.9994751733253182  1.0000
  Ga  Ga11      1.0  0.00901241109866235  0.004011688929178771  0.9989036793260428  1.0000
  Ga  Ga12      1.0  0.008012411095072938  0.008011688943536412  0.9990075873181024  1.0000
  Ga  Ga13      1.0  0.005012411211524894  1.1689099432729348e-05  0.9993193116322437  1.0000
  Ga  Ga14      1.0  0.007012410924910888  0.0020116890715587148  0.9991114953316359  1.0000
  Ga  Ga15      1.0  0.006012410883931786  0.006011689235475121  0.9992154036141371  1.0000
  Rh  Rh11      1.0  0.00901241109866235  0.004011688929178771  0.9991634493302557  1.0000
  Rh  Rh12      1.0  0.008012411095072938  0.008011688943536412  0.9992673573223152  1.0000
  Rh  Rh13      1.0  0.005012411211524894  1.1689099432729348e-05  0.9990595413349991  1.0000
  Rh  Rh14      1.0  0.007012410924910888  0.0020116890715587148  0.9988517253274231  1.0000
  Rh  Rh15      1.0  0.006012410883931786  0.006011689235475121  0.9989556333168924  1.0000
  Ga  Ga16      1.0  0.00901241109866235  0.004011688929178771  0.9994232196275004  1.0000
  Ga  Ga17      1.0  0.008012411095072938  0.008011688943536412  0.9995271276195599  1.0000
  Ga  Ga18      1.0  0.005015411190875214  0.009988310821955445  0.999827022406965  1.0000
  Ga  Ga19      1.0  0.006998531788990576  0.0020520982046592575  0.9996400234570935  1.0000
  Ga  Ga20      1.0  0.006079033512867733  0.005732996049045091  0.9997607897849935  1.0000
  Rh  Rh16      1.0  0.009013218642667752  0.00399413192666224  0.9996808629856083  1.0000
  Rh  Rh17      1.0  0.00799609229202503  0.008067524614549015  0.9997691080020557  1.0000
  Rh  Rh18      1.0  0.004987589347294135  0.00010097230058370321  0.9995694386696125  1.0000
  Rh  Rh19      1.0  0.007012410924910888  0.0020116890715587148  0.9993712653358489  1.0000
  Rh  Rh20      1.0  0.006012410883931786  0.006011689235475121  0.9994751733253182  1.0000
