data_image0
_chemical_formula_structural       HOs3V9Os3V9Os3V9Os3V9
_chemical_formula_sum              "H1 Os12 V36"
_cell_length_a       8.488194465637207
_cell_length_b       8.48819419406665
_cell_length_c       101.18761444091797
_cell_angle_alpha    90.0
_cell_angle_beta     90.0
_cell_angle_gamma    120.00000105835016

_space_group_name_H-M_alt    "P 1"
_space_group_IT_number       1

loop_
  _space_group_symop_operation_xyz
  'x, y, z'

loop_
  _atom_site_type_symbol
  _atom_site_label
  _atom_site_symmetry_multiplicity
  _atom_site_fract_x
  _atom_site_fract_y
  _atom_site_fract_z
  _atom_site_occupancy
  H   H1        1.0  0.0049999991546365264  0.004999999959458093  0.00012175915562122597  1.0000
  Os  Os1       1.0  0.001666666703152695  0.003333333306305395  0.9993443661424196  1.0000
  Os  Os2       1.0  0.009999999187031053  0.009999999918916185  0.0  1.0000
  Os  Os3       1.0  0.003333333159802329  0.0016666666531526975  0.9996868281993488  1.0000
  V   V1        1.0  0.001666666703152695  0.003333333306305395  0.9990875196733541  1.0000
  V   V2        1.0  0.009999999625910052  0.009999999918916185  0.9997699326636715  1.0000
  V   V3        1.0  0.003333333159802329  0.0016666666531526975  0.9994299817302833  1.0000
  V   V4        1.0  0.0033333336620280586  0.0016666667798461573  0.9999404475536315  1.0000
  V   V5        1.0  0.001666666703152695  0.003333333306305395  0.9996012126114852  1.0000
  V   V6        1.0  1.510303714735677e-19  0.0  0.9992587508490813  1.0000
  V   V7        1.0  1.510303714735677e-19  0.0  0.9995155973181469  1.0000
  V   V8        1.0  0.003333333159802329  0.0016666666531526975  0.9991731352612178  1.0000
  V   V9        1.0  0.0016666666264592326  0.0033333330529184755  0.9998689809658744  1.0000
  Os  Os4       1.0  0.0016666667996557633  0.008333333265763488  0.9993443661424196  1.0000
  Os  Os5       1.0  0.009999998821088487  0.004999999959458093  0.0  1.0000
  Os  Os6       1.0  0.0033333332563053974  0.00666666661261079  0.9996868281993488  1.0000
  V   V10       1.0  0.0016666667996557633  0.008333333265763488  0.9990875196733541  1.0000
  V   V11       1.0  0.009999999698846487  0.004999999959458093  0.9997699326636715  1.0000
  V   V12       1.0  0.0033333332563053974  0.00666666661261079  0.9994299817302833  1.0000
  V   V13       1.0  0.0033333336063053735  0.00666666661261079  0.9999404475536315  1.0000
  V   V14       1.0  0.0016666667996557633  0.008333333265763488  0.9996012126114852  1.0000
  V   V15       1.0  1.4650306620512175e-10  0.004999999959458093  0.9992587508490813  1.0000
  V   V16       1.0  1.4650306620512175e-10  0.004999999959458093  0.9995155973181469  1.0000
  V   V17       1.0  0.0033333332563053974  0.00666666661261079  0.9991731352612178  1.0000
  V   V18       1.0  0.0016666665462688436  0.008333332758989648  0.9998689809658744  1.0000
  Os  Os7       1.0  0.006666666319604658  0.003333333306305395  0.9993443661424196  1.0000
  Os  Os8       1.0  0.004999999359458136  0.009999999918916185  0.0  1.0000
  Os  Os9       1.0  0.008333333045693787  0.0016666666531526975  0.9996868281993488  1.0000
  V   V19       1.0  0.006666666319604658  0.003333333306305395  0.9990875196733541  1.0000
  V   V20       1.0  0.004999999959458093  0.009999999918916185  0.9997699326636715  1.0000
  V   V21       1.0  0.008333333045693787  0.0016666666531526975  0.9994299817302833  1.0000
  V   V22       1.0  0.008333333109040518  0.0016666667798461573  0.9999404475536315  1.0000
  V   V23       1.0  0.006666666319604658  0.003333333306305395  0.9996012126114852  1.0000
  V   V24       1.0  0.00499999966645196  0.0  0.9992587508490813  1.0000
  V   V25       1.0  0.00499999966645196  0.0  0.9995155973181469  1.0000
  V   V26       1.0  0.008333333045693787  0.0016666666531526975  0.9991731352612178  1.0000
  V   V27       1.0  0.006666666192911197  0.0033333330529184755  0.9998689809658744  1.0000
  Os  Os10      1.0  0.0066666664661077235  0.008333333265763488  0.9993443661424196  1.0000
  Os  Os11      1.0  0.0049999991546365264  0.004999999959458093  0.0  1.0000
  Os  Os12      1.0  0.008333332972757356  0.00666666661261079  0.9996868281993488  1.0000
  V   V28       1.0  0.0066666664661077235  0.008333333265763488  0.9990875196733541  1.0000
  V   V29       1.0  0.004999999812955026  0.004999999959458093  0.9997699326636715  1.0000
  V   V30       1.0  0.008333332972757356  0.00666666661261079  0.9994299817302833  1.0000
  V   V31       1.0  0.008333333411636355  0.00666666661261079  0.9999404475536315  1.0000
  V   V32       1.0  0.0066666664661077235  0.008333333265763488  0.9996012126114852  1.0000
  V   V33       1.0  0.004999999812955026  0.004999999959458093  0.9992587508490813  1.0000
  V   V34       1.0  0.004999999812955026  0.004999999959458093  0.9995155973181469  1.0000
  V   V35       1.0  0.008333332972757356  0.00666666661261079  0.9991731352612178  1.0000
  V   V36       1.0  0.006666666432160303  0.008333332758989648  0.9998689809658744  1.0000
