data_image0
_chemical_formula_structural       HPt8W4
_chemical_formula_sum              "H1 Pt8 W4"
_cell_length_a       4.845183739448067
_cell_length_b       4.866404979487987
_cell_length_c       102.23046112060547
_cell_angle_alpha    89.99117358112568
_cell_angle_beta     87.40676591210695
_cell_angle_gamma    80.36847471408247

_space_group_name_H-M_alt    "P 1"
_space_group_IT_number       1

loop_
  _space_group_symop_operation_xyz
  'x, y, z'

loop_
  _atom_site_type_symbol
  _atom_site_label
  _atom_site_symmetry_multiplicity
  _atom_site_fract_x
  _atom_site_fract_y
  _atom_site_fract_z
  _atom_site_occupancy
  H   H1        1.0  0.007233384455438633  0.0058203097784424495  9.946291052194395e-05  1.0000
  Pt  Pt1       1.0  0.0012325517973228314  0.0050137841571079875  0.9996802299142287  1.0000
  Pt  Pt2       1.0  0.008706140169938911  0.008724059495555759  0.9998877929316402  1.0000
  Pt  Pt3       1.0  0.00373255171679261  0.0012637842696973866  0.9994831847119187  1.0000
  Pt  Pt4       1.0  0.006093588378485516  0.0028621931639145615  6.974250661477954e-05  1.0000
  Pt  Pt5       1.0  0.006342826907983861  0.00582873845382509  0.9995517636952795  1.0000
  Pt  Pt6       1.0  0.0038428266527169917  0.009578738050056209  0.9997488091898328  1.0000
  Pt  Pt7       1.0  0.00884282684379674  0.0020787384693546625  0.9993547182014142  1.0000
  Pt  Pt8       1.0  0.0011571733715680782  0.003377232789109203  0.9999499724055615  1.0000
  W   W1        1.0  0.0012876892797585725  0.006671261235583464  0.9994189515481304  1.0000
  W   W2        1.0  0.00878768935318945  0.0004212614394091  0.9996159965675296  1.0000
  W   W3        1.0  0.003735025845973514  0.007839185240614945  0.9999919332181468  1.0000
  W   W4        1.0  0.006251690332160247  0.004194473038873427  0.9998211047204356  1.0000
