data_image0
_chemical_formula_structural       COSi8W4
_chemical_formula_sum              "C1 O1 Si8 W4"
_cell_length_a       4.557306289672852
_cell_length_b       4.557306111241574
_cell_length_c       102.06216430664062
_cell_angle_alpha    90.0
_cell_angle_beta     90.0
_cell_angle_gamma    119.6657728847059

_space_group_name_H-M_alt    "P 1"
_space_group_IT_number       1

loop_
  _space_group_symop_operation_xyz
  'x, y, z'

loop_
  _atom_site_type_symbol
  _atom_site_label
  _atom_site_symmetry_multiplicity
  _atom_site_fract_x
  _atom_site_fract_y
  _atom_site_fract_z
  _atom_site_occupancy
  C   C1        1.0  0.008316007762266056  0.0025093439317674204  0.00016083159963766003  1.0000
  O   O1        1.0  0.008316007762266056  0.0025093439317674204  0.0002784072399370525  1.0000
  Si  Si1       1.0  0.001650708477856579  0.009174646052403505  0.9993225459063066  1.0000
  Si  Si2       1.0  0.006650708381111957  0.004174645939515003  0.9995469340053614  1.0000
  Si  Si3       1.0  0.003349292452208803  0.00747606216264024  0.9995469340053614  1.0000
  Si  Si4       1.0  0.008349292355464182  0.0024760620497517385  0.9993225459063066  1.0000
  Si  Si5       1.0  0.001659544024689993  0.009165811586442278  0.9997725890996608  1.0000
  Si  Si6       1.0  0.00663201580346772  0.004193333690161343  0.0  1.0000
  Si  Si7       1.0  0.0033679857422052218  0.007457373941625145  0.0  1.0000
  Si  Si8       1.0  0.008340456925032843  0.0024848967508973433  0.9997725890996608  1.0000
  W   W1        1.0  0.005000000430883393  0.005825354286261999  0.9993225459063066  1.0000
  W   W2        1.0  4.6243503754361876e-10  0.0008253539969852147  0.9995469340053614  1.0000
  W   W3        1.0  0.005000000226525267  0.005825354286261999  0.9997679655452233  1.0000
  W   W4        1.0  0.009999999370549177  0.0008253542909656868  0.9999822521385174  1.0000
