data_image0
_chemical_formula_structural       HCo6Fe3Ga3Co6Fe3Ga3Co6Fe3Ga3Co6Fe3Ga3
_chemical_formula_sum              "H1 Co24 Fe12 Ga12"
_cell_length_a       8.051278114318848
_cell_length_b       8.05127815534536
_cell_length_c       109.44304656982422
_cell_angle_alpha    90.0
_cell_angle_beta     90.0
_cell_angle_gamma    119.99999983143718

_space_group_name_H-M_alt    "P 1"
_space_group_IT_number       1

loop_
  _space_group_symop_operation_xyz
  'x, y, z'

loop_
  _atom_site_type_symbol
  _atom_site_label
  _atom_site_symmetry_multiplicity
  _atom_site_fract_x
  _atom_site_fract_y
  _atom_site_fract_z
  _atom_site_occupancy
  H   H1        1.0  0.0025000230037815073  0.0033333156524006013  0.00011257470327995578  1.0000
  Co  Co1       1.0  0.0008333281645269879  2.5499998065133083e-09  0.9997190882534784  1.0000
  Co  Co2       1.0  0.0041666613497418166  0.0016666691795389555  0.9994187565210372  1.0000
  Co  Co3       1.0  0.0025000230037815073  0.0033333156524006013  0.0  1.0000
  Co  Co4       1.0  0.002499994791216079  0.0033333356877041096  0.9995689223872578  1.0000
  Co  Co5       1.0  0.0008333281645269879  2.5499998065133083e-09  0.9992685906548165  1.0000
  Co  Co6       1.0  0.004166671691037073  0.0016666621003983825  0.999893449315573  1.0000
  Fe  Fe1       1.0  0.002499994791216079  0.0033333356877041096  0.9993436738602358  1.0000
  Fe  Fe2       1.0  0.0008333379995824368  0.009999997179029265  0.9999351795747331  1.0000
  Fe  Fe3       1.0  0.0041666613497418166  0.0016666691795389555  0.9996440055926771  1.0000
  Ga  Ga1       1.0  0.0008333281645269879  2.5499998065133083e-09  0.9994938397264564  1.0000
  Ga  Ga2       1.0  0.0041666613497418166  0.0016666691795389555  0.9991935079940152  1.0000
  Ga  Ga3       1.0  0.0024999942336092224  0.003333331680643408  0.999789258460609  1.0000
  Co  Co7       1.0  0.0008333281838008069  0.005000002329437954  0.9997190882534784  1.0000
  Co  Co8       1.0  0.004166661450844733  0.006666669238309179  0.9994187565210372  1.0000
  Co  Co9       1.0  0.00250002284669445  0.008333315310464754  0.0  1.0000
  Co  Co10      1.0  0.0024999948255346517  0.008333335612905644  0.9995689223872578  1.0000
  Co  Co11      1.0  0.0008333281838008069  0.005000002329437954  0.9992685906548165  1.0000
  Co  Co12      1.0  0.004166671591786956  0.006666661758462536  0.999893449315573  1.0000
  Fe  Fe4       1.0  0.0024999948255346517  0.008333335612905644  0.9993436738602358  1.0000
  Fe  Fe5       1.0  0.0008333381566694947  0.004999997520965112  0.9999351795747331  1.0000
  Fe  Fe6       1.0  0.004166661450844733  0.006666669238309179  0.9996440055926771  1.0000
  Ga  Ga4       1.0  0.0008333281838008069  0.005000002329437954  0.9994938397264564  1.0000
  Ga  Ga5       1.0  0.004166661450844733  0.006666669238309179  0.9991935079940152  1.0000
  Ga  Ga6       1.0  0.0024999940765221646  0.008333331338707561  0.999789258460609  1.0000
  Co  Co13      1.0  0.005833328136765257  2.5499998065133083e-09  0.9997190882534784  1.0000
  Co  Co14      1.0  0.009166661321980086  0.0016666691795389555  0.9994187565210372  1.0000
  Co  Co15      1.0  0.007500022628998138  0.0033333156524006013  0.0  1.0000
  Co  Co16      1.0  0.007499994705617408  0.0033333356877041096  0.9995689223872578  1.0000
  Co  Co17      1.0  0.005833328136765257  2.5499998065133083e-09  0.9992685906548165  1.0000
  Co  Co18      1.0  0.009166671663275342  0.0016666621003983825  0.999893449315573  1.0000
  Fe  Fe7       1.0  0.007499994705617408  0.0033333356877041096  0.9993436738602358  1.0000
  Fe  Fe8       1.0  0.0058333379139837655  0.009999997179029265  0.9999351795747331  1.0000
  Fe  Fe9       1.0  0.009166661321980086  0.0016666691795389555  0.9996440055926771  1.0000
  Ga  Ga7       1.0  0.005833328136765257  2.5499998065133083e-09  0.9994938397264564  1.0000
  Ga  Ga8       1.0  0.009166661321980086  0.0016666691795389555  0.9991935079940152  1.0000
  Ga  Ga9       1.0  0.007499994090173611  0.003333331680643408  0.999789258460609  1.0000
  Co  Co19      1.0  0.005833327924691317  0.005000002329437954  0.9997190882534784  1.0000
  Co  Co20      1.0  0.009166661480919942  0.006666669238309179  0.9994187565210372  1.0000
  Co  Co21      1.0  0.007500022818932719  0.008333315310464754  0.0  1.0000
  Co  Co22      1.0  0.00749999479777292  0.008333335612905644  0.9995689223872578  1.0000
  Co  Co23      1.0  0.005833327924691317  0.005000002329437954  0.9992685906548165  1.0000
  Co  Co24      1.0  0.009166671621862164  0.006666661758462536  0.999893449315573  1.0000
  Fe  Fe10      1.0  0.00749999479777292  0.008333335612905644  0.9993436738602358  1.0000
  Fe  Fe11      1.0  0.005833338013233883  0.004999997520965112  0.9999351795747331  1.0000
  Fe  Fe12      1.0  0.009166661480919942  0.006666669238309179  0.9996440055926771  1.0000
  Ga  Ga10      1.0  0.005833327924691317  0.005000002329437954  0.9994938397264564  1.0000
  Ga  Ga11      1.0  0.009166661480919942  0.006666669238309179  0.9991935079940152  1.0000
  Ga  Ga12      1.0  0.0074999940487604335  0.008333331338707561  0.999789258460609  1.0000
