data_image0
_chemical_formula_structural       COAl24W12
_chemical_formula_sum              "C1 O1 Al24 W12"
_cell_length_a       8.465814590454102
_cell_length_b       8.380460776615296
_cell_length_c       103.52184295654297
_cell_angle_alpha    71.35616474006648
_cell_angle_beta     90.0
_cell_angle_gamma    90.0

_space_group_name_H-M_alt    "P 1"
_space_group_IT_number       1

loop_
  _space_group_symop_operation_xyz
  'x, y, z'

loop_
  _atom_site_type_symbol
  _atom_site_label
  _atom_site_symmetry_multiplicity
  _atom_site_fract_x
  _atom_site_fract_y
  _atom_site_fract_z
  _atom_site_occupancy
  C   C1        1.0  0.007440405490844368  0.00818842284984457  0.999990557862979  1.0000
  O   O1        1.0  0.007440405490844368  0.00818842284984457  0.00010647566328062679  1.0000
  Al  Al1       1.0  0.004452883418477985  0.0031320427683587254  0.9994684084323994  1.0000
  Al  Al2       1.0  0.004452883418477985  0.008132042608851312  0.9990636407647556  1.0000
  Al  Al3       1.0  0.009704393104972935  0.0005757594257734615  0.9996723339274581  1.0000
  Al  Al4       1.0  0.009452883418477985  0.0056320425713201555  0.9992660247455549  1.0000
  Al  Al5       1.0  0.0014604828514962742  0.0017809946858660247  0.9998264190021999  1.0000
  Al  Al6       1.0  0.0011383308116153451  0.007298709263007593  0.9994009474518646  1.0000
  Al  Al7       1.0  0.006138330811615345  0.00979870930053875  0.9991985631831809  1.0000
  Al  Al8       1.0  0.0061697755729662445  0.004976902463310893  0.9995956058208673  1.0000
  Al  Al9       1.0  0.003416453585016982  0.005753461960161609  0.9998511028138429  1.0000
  Al  Al10      1.0  0.0036101599419289068  0.00020129064433736522  0.9994358182334614  1.0000
  Al  Al11      1.0  0.008610159941928907  0.0027012906525473055  0.9992334342534209  1.0000
  Al  Al12      1.0  0.008377608904422077  0.007599557602998553  0.9996500777112836  1.0000
  Al  Al13      1.0  0.0011383308116153451  0.008103871723072191  0.9990659212244486  1.0000
  Al  Al14      1.0  0.0011383308116153451  0.0031038718825796047  0.9994706891799766  1.0000
  Al  Al15      1.0  0.006138330811615345  0.005603871685541035  0.9992683052052479  1.0000
  Al  Al16      1.0  0.006437833813738798  0.00045558243548424285  0.9996921309882972  1.0000
  Al  Al17      1.0  0.004768707474611498  0.002456634897769034  0.9997889516610932  1.0000
  Al  Al18      1.0  0.004452883418477985  0.007270538377228472  0.9994032276236731  1.0000
  Al  Al19      1.0  0.009452883418477985  0.009770538414759628  0.9992008439307581  1.0000
  Al  Al20      1.0  0.009453108718549518  0.004987637781377833  0.9995745675005865  1.0000
  Al  Al21      1.0  0.001981054288164424  0.0027012906525473055  0.9992334342534209  1.0000
  Al  Al22      1.0  0.0016590759537585685  0.007800904280179148  0.9996441639299207  1.0000
  Al  Al23      1.0  0.006981054288164424  0.00020129064433736522  0.9994358182334614  1.0000
  Al  Al24      1.0  0.006697428780535201  0.005087047023716268  0.9998457458227284  1.0000
  W   W1        1.0  0.000416584260158569  0.004737761442784112  0.9998101682890966  1.0000
  W   W2        1.0  0.00029560714254911545  0.00020129064433736522  0.9994358182334614  1.0000
  W   W3        1.0  0.005295607335066266  0.0027012906525473055  0.9992334342534209  1.0000
  W   W4        1.0  0.005033012621028382  0.00779190243238522  0.9996488838600408  1.0000
  W   W5        1.0  0.002795607115046665  0.009784623857649189  0.9991997038448539  1.0000
  W   W6        1.0  0.0026319230927644884  0.0047663672208347035  0.9996303293481764  1.0000
  W   W7        1.0  0.007795606895027065  0.007284623820118033  0.9994020875377688  1.0000
  W   W8        1.0  0.00818338088103593  0.0026844126570731426  0.9997822127910434  1.0000
  W   W9        1.0  0.002795607115046665  0.005617957128430595  0.9992671648314593  1.0000
  W   W10       1.0  0.0032106754126511624  0.00033950493232764745  0.9996776362608387  1.0000
  W   W11       1.0  0.007795606895027065  0.003117957325469165  0.9994695485183036  1.0000
  W   W12       1.0  0.007795606895027065  0.008117957165961752  0.9990647811385444  1.0000
