data_image0
_chemical_formula_structural       V12Sn4CO
_chemical_formula_sum              "V12 Sn4 C1 O1"
_cell_length_a       4.982881546020508
_cell_length_b       7.046858787536621
_cell_length_c       41.812564849853516
_cell_angle_alpha    90.0
_cell_angle_beta     90.0
_cell_angle_gamma    90.0

_space_group_name_H-M_alt    "P 1"
_space_group_IT_number       1

loop_
  _space_group_symop_operation_xyz
  'x, y, z'

loop_
  _atom_site_type_symbol
  _atom_site_label
  _atom_site_symmetry_multiplicity
  _atom_site_fract_x
  _atom_site_fract_y
  _atom_site_fract_z
  _atom_site_occupancy
  V   V1        1.0  4.5909999283172494e-07  0.0062192216236958775  0.9999999600854418  1.0000
  V   V2        1.0  4.077999776902009e-07  0.0012727498950067713  0.9991823253284192  1.0000
  V   V3        1.0  4.077999776902009e-07  0.003772749826282854  0.9987609890338287  1.0000
  V   V4        1.0  0.009999591950274932  0.008701495674343264  0.999687505003575  1.0000
  V   V5        1.0  0.005001189160668181  0.006343705483818405  0.9996875352958736  1.0000
  V   V6        1.0  0.005000407900201533  0.0012727498950067713  0.9987609890338287  1.0000
  V   V7        1.0  0.005000565647530206  0.008827455512745887  0.0  1.0000
  V   V8        1.0  0.005000407900201533  0.003772749826282854  0.9991823253284192  1.0000
  V   V9        1.0  0.007499490423795151  0.0025231121810652  0.9997927065929636  1.0000
  V   V10       1.0  0.0075004077506779995  0.007522749921439046  0.9989716573593139  1.0000
  V   V11       1.0  0.002501435276405617  0.0025231618737436845  0.9997928808627757  1.0000
  V   V12       1.0  0.00250040786282065  0.007522749921439046  0.9989716573593139  1.0000
  Sn  Sn1       1.0  0.005000407900201533  0.005022749858001585  0.9985503210647233  1.0000
  Sn  Sn2       1.0  0.0049992782498999985  0.009977249465332154  0.9993867366905248  1.0000
  Sn  Sn3       1.0  1.1115999708757124e-06  0.005067315732274017  0.9993868293493207  1.0000
  Sn  Sn4       1.0  4.077999776902009e-07  2.274990045842828e-05  0.9985503210647233  1.0000
  C   C1        1.0  0.005000462850100384  0.002523137027404442  0.00027111856751805256  1.0000
  O   O1        1.0  0.005000462850100384  0.002523137027404442  0.0005581138633250715  1.0000
