data_image0
_chemical_formula_structural       HGa2Sb2Ga2Sb2Ga2Sb2Ga2Sb2
_chemical_formula_sum              "H1 Ga8 Sb8"
_cell_length_a       8.873205184936523
_cell_length_b       8.873205149708909
_cell_length_c       40.825592041015625
_cell_angle_alpha    90.0
_cell_angle_beta     90.0
_cell_angle_gamma    120.00000013133024

_space_group_name_H-M_alt    "P 1"
_space_group_IT_number       1

loop_
  _space_group_symop_operation_xyz
  'x, y, z'

loop_
  _atom_site_type_symbol
  _atom_site_label
  _atom_site_symmetry_multiplicity
  _atom_site_fract_x
  _atom_site_fract_y
  _atom_site_fract_z
  _atom_site_occupancy
  H   H1        1.0  0.0033333330024367925  0.0016666670124798027  0.00030178383157587274  1.0000
  Ga  Ga1       1.0  0.003333333063034889  0.0016666671336759953  0.0  1.0000
  Ga  Ga2       1.0  0.001666666720087416  0.0033333335401748354  0.9990731163202295  1.0000
  Sb  Sb1       1.0  0.00333333345039639  0.001666666648891225  0.9993157701356797  1.0000
  Sb  Sb2       1.0  0.001666666720087416  0.0033333335401748354  0.998403801635839  1.0000
  Ga  Ga3       1.0  0.0033333329401748386  0.006666667080349671  0.0  1.0000
  Ga  Ga4       1.0  0.0016666667992677674  0.008333333850437089  0.9990731163202295  1.0000
  Sb  Sb3       1.0  0.0033333333477824517  0.0066666665955649  0.9993157701356797  1.0000
  Sb  Sb4       1.0  0.0016666667992677674  0.008333333850437089  0.998403801635839  1.0000
  Ga  Ga5       1.0  0.008333332895100519  0.0016666671336759953  0.0  1.0000
  Ga  Ga6       1.0  0.0066666670219889725  0.0033333335401748354  0.9990731163202295  1.0000
  Sb  Sb5       1.0  0.008333333492379982  0.001666666648891225  0.9993157701356797  1.0000
  Sb  Sb6       1.0  0.0066666670219889725  0.0033333335401748354  0.998403801635839  1.0000
  Ga  Ga7       1.0  0.008333332952404541  0.006666667080349671  0.0  1.0000
  Ga  Ga8       1.0  0.00666666684125136  0.008333333850437089  0.9990731163202295  1.0000
  Sb  Sb7       1.0  0.008333333549684005  0.0066666665955649  0.9993157701356797  1.0000
  Sb  Sb8       1.0  0.00666666684125136  0.008333333850437089  0.998403801635839  1.0000
