data_image0
_chemical_formula_structural       COAg3Ca6Ge3
_chemical_formula_sum              "C1 O1 Ag3 Ca6 Ge3"
_cell_length_a       5.2578360052817406
_cell_length_b       5.257835865020752
_cell_length_c       108.63704681396484
_cell_angle_alpha    90.0
_cell_angle_beta     90.0
_cell_angle_gamma    119.99999911754644

_space_group_name_H-M_alt    "P 1"
_space_group_IT_number       1

loop_
  _space_group_symop_operation_xyz
  'x, y, z'

loop_
  _atom_site_type_symbol
  _atom_site_label
  _atom_site_symmetry_multiplicity
  _atom_site_fract_x
  _atom_site_fract_y
  _atom_site_fract_z
  _atom_site_occupancy
  C   C1        1.0  0.00916666918650783  0.0066666410500010875  8.52642822404933e-05  1.0000
  O   O1        1.0  0.00916666918650783  0.0066666410500010875  0.0001957240624961594  1.0000
  Ag  Ag1       1.0  0.004166664539528022  0.006666667478317854  0.9996255207866973  1.0000
  Ag  Ag2       1.0  0.007500043786330874  0.003333234369835805  0.0  1.0000
  Ag  Ag3       1.0  0.0008333311591521993  5.419186865432341e-10  0.9992303511107483  1.0000
  Ca  Ca1       1.0  0.007499997971036986  0.0033333339035784794  0.9991315588289257  1.0000
  Ca  Ca2       1.0  0.0008333311591521993  5.419186865432341e-10  0.9995267282305454  1.0000
  Ca  Ca3       1.0  0.004166669039244386  0.0066666410330510914  0.9999258295936766  1.0000
  Ca  Ca4       1.0  0.004166664539528022  0.006666667478317854  0.9993291436669002  1.0000
  Ca  Ca5       1.0  0.007499997971036986  0.0033333339035784794  0.9997243133428493  1.0000
  Ca  Ca6       1.0  0.0008333311591521993  5.419186865432341e-10  0.9989339739909511  1.0000
  Ge  Ge1       1.0  0.0008333314659510423  0.009999999992110415  0.9998260269571309  1.0000
  Ge  Ge2       1.0  0.004166664539528022  0.006666667478317854  0.999032766547103  1.0000
  Ge  Ge3       1.0  0.007499997971036986  0.0033333339035784794  0.999427936223052  1.0000
