data_image0
_chemical_formula_structural       COV8As8V8As8
_chemical_formula_sum              "C1 O1 V16 As16"
_cell_length_a       8.628193949096188
_cell_length_b       6.708456039428711
_cell_length_c       104.51277923583984
_cell_angle_alpha    90.0
_cell_angle_beta     93.8840488513815
_cell_angle_gamma    90.0

_space_group_name_H-M_alt    "P 1"
_space_group_IT_number       1

loop_
  _space_group_symop_operation_xyz
  'x, y, z'

loop_
  _atom_site_type_symbol
  _atom_site_label
  _atom_site_symmetry_multiplicity
  _atom_site_fract_x
  _atom_site_fract_y
  _atom_site_fract_z
  _atom_site_occupancy
  C   C1        1.0  0.009160835122871596  0.003749999189243575  6.851956403431102e-06  1.0000
  O   O1        1.0  0.009160835122871596  0.003749999189243575  0.00012167011358755494  1.0000
  V   V1        1.0  0.0008887738237474128  0.003750000299868815  0.9992813493297878  1.0000
  V   V2        1.0  0.005888773776144717  0.003750000299868815  0.9996941311353659  1.0000
  V   V3        1.0  0.009008122210932055  0.0012500002387844265  0.9994284180205462  1.0000
  V   V4        1.0  0.003945232280801596  0.0012500003776125816  0.9998442495363984  1.0000
  V   V5        1.0  0.005839165275260048  0.0012500002387844265  0.9992772536506007  1.0000
  V   V6        1.0  0.000839165106486851  0.0012500002387844265  0.9996900358147962  1.0000
  V   V7        1.0  0.004057730867607367  0.003750000299868815  0.9994325134151836  1.0000
  V   V8        1.0  0.009024543410169372  0.003749999189243575  0.9998407439110922  1.0000
  As  As1       1.0  0.003541423151467169  0.003749999744556195  1.980421796876155e-05  1.0000
  As  As2       1.0  0.008783407191484398  0.003750000299868815  0.9996108603914182  1.0000
  As  As3       1.0  0.006113488795592374  0.0012500002387844265  0.9995116887644938  1.0000
  As  As4       1.0  0.0011436783650391063  0.001250002182378596  0.9999257122219123  1.0000
  As  As5       1.0  0.0018478211279973704  0.0012500002387844265  0.9994510651648202  1.0000
  As  As6       1.0  0.006839774385514623  0.0012499998222999617  0.9998666811801458  1.0000
  As  As7       1.0  0.008049075014870044  0.003750000299868815  0.9992587021861188  1.0000
  As  As8       1.0  0.003049074954284794  0.003750000299868815  0.9996714837806098  1.0000
  V   V9        1.0  0.0008887738237474128  0.008750000422037591  0.9992813493297878  1.0000
  V   V10       1.0  0.005888773776144717  0.008750000422037591  0.9996941311353659  1.0000
  V   V11       1.0  0.009008122210932055  0.006250000222125048  0.9994284180205462  1.0000
  V   V12       1.0  0.003945232280801596  0.006250000222125048  0.9998442495363984  1.0000
  V   V13       1.0  0.005839165275260048  0.006250000222125048  0.9992772536506007  1.0000
  V   V14       1.0  0.000839165106486851  0.006250000222125048  0.9996900358147962  1.0000
  V   V15       1.0  0.004057730867607367  0.008750000422037591  0.9994325134151836  1.0000
  V   V16       1.0  0.009024543410169372  0.008749999311412352  0.9998407439110922  1.0000
  As  As9       1.0  0.003541423151467169  0.008749999866724971  1.980421796876155e-05  1.0000
  As  As10      1.0  0.008783407191484398  0.008750000422037591  0.9996108603914182  1.0000
  As  As11      1.0  0.006113488795592374  0.006250000222125048  0.9995116887644938  1.0000
  As  As12      1.0  0.0011436783650391063  0.006250002443375527  0.9999257122219123  1.0000
  As  As13      1.0  0.0018478211279973704  0.006250000222125048  0.9994510651648202  1.0000
  As  As14      1.0  0.006839774385514623  0.006249999666812428  0.9998666811801458  1.0000
  As  As15      1.0  0.008049075014870044  0.008750000422037591  0.9992587021861188  1.0000
  As  As16      1.0  0.003049074954284794  0.008750000422037591  0.9996714837806098  1.0000
