data_image0
_chemical_formula_structural       Al16Au32CO
_chemical_formula_sum              "Al16 Au32 C1 O1"
_cell_length_a       7.649872132622579
_cell_length_b       11.257133634595272
_cell_length_c       22.362140655517578
_cell_angle_alpha    117.35829284434269
_cell_angle_beta     113.83510418061971
_cell_angle_gamma    75.40205322744994

_space_group_name_H-M_alt    "P 1"
_space_group_IT_number       1

loop_
  _space_group_symop_operation_xyz
  'x, y, z'

loop_
  _atom_site_type_symbol
  _atom_site_label
  _atom_site_symmetry_multiplicity
  _atom_site_fract_x
  _atom_site_fract_y
  _atom_site_fract_z
  _atom_site_occupancy
  Al  Al1       1.0  0.00819379152266825  0.007292457286037074  0.9962277214611622  1.0000
  Al  Al2       1.0  0.005378214527611045  0.005583241240457776  0.0005607907813349611  1.0000
  Al  Al3       1.0  0.0006937914266588068  0.009792457196312917  0.9975591531420591  1.0000
  Al  Al4       1.0  0.003193791343551373  0.0022924569047094033  0.9988905844715128  1.0000
  Al  Al5       1.0  0.00668275552467951  0.007599186796460915  0.9993686088001872  1.0000
  Al  Al6       1.0  0.004182755535508207  0.005099186886185074  0.998037177414039  1.0000
  Al  Al7       1.0  0.00916300023125843  0.00036417579966625726  0.0006294844779930111  1.0000
  Al  Al8       1.0  0.0016827557230421888  0.0025991866020585734  0.9967057456326536  1.0000
  Al  Al9       1.0  0.0001373325037946893  0.006644609986313118  0.9985455589142493  1.0000
  Al  Al10      1.0  0.007637332599804131  0.004144610076037276  0.9972141272333523  1.0000
  Al  Al11      1.0  0.0026373324929659923  0.00914460989658896  0.9998769906335759  1.0000
  Al  Al12      1.0  0.004908749445179522  0.0016349311722396614  0.0011277399497012265  1.0000
  Al  Al13      1.0  0.004739214458372325  0.008247034096184871  0.9970507716418487  1.0000
  Al  Al14      1.0  0.001676584431919133  0.0060934591591425185  0.0009680486609035978  1.0000
  Al  Al15      1.0  0.0072392146632599035  0.0007470336176560299  0.9983822029678718  1.0000
  Al  Al16      1.0  0.009739214652431206  0.003247033527931872  0.9997136346871984  1.0000
  Au  Au1       1.0  0.0060722956852210346  0.0068107918374655735  0.9978706153902636  1.0000
  Au  Au2       1.0  0.0035722957396601036  0.004310791553339074  0.9965391835904791  1.0000
  Au  Au3       1.0  0.008572295674392338  0.009310791747741416  0.9992020471095902  1.0000
  Au  Au4       1.0  0.0011328698561590461  0.0021461984897199085  0.00065310992076865  1.0000
  Au  Au5       1.0  0.0004944431035187662  0.00520754338689411  0.9972231932200523  1.0000
  Au  Au6       1.0  0.007620839300090833  0.0027269296893864506  0.00119089611877334  1.0000
  Au  Au7       1.0  0.002994443115627155  0.007707543671020609  0.9985546250290362  1.0000
  Au  Au8       1.0  0.005494443051599259  0.0002075432158574337  0.9998860563232896  1.0000
  Au  Au9       1.0  0.00438210410190099  0.009684100321753222  0.9983731372831868  1.0000
  Au  Au10      1.0  0.0018821041127296864  0.0071841004114773805  0.9970417055638601  1.0000
  Au  Au11      1.0  0.006882103730798543  0.0021841002170750385  0.999704568616071  1.0000
  Au  Au12      1.0  0.008940076712619899  0.004692699814024551  0.000926335851340971  1.0000
  Au  Au13      1.0  0.006790769840621625  0.009775434280475899  0.9969930632132841  1.0000
  Au  Au14      1.0  0.004067189703593669  0.00773611109516015  0.0013904347821245275  1.0000
  Au  Au15      1.0  0.009290769469519178  0.0022754341757977147  0.9983244948793467  1.0000
  Au  Au16      1.0  0.0017907701284688448  0.0047754344599242144  0.9996559267510963  1.0000
  Au  Au17      1.0  0.0015512277503768343  0.0038318597007749584  0.9981256814481505  1.0000
  Au  Au18      1.0  0.009051227602001635  0.0013318596035737874  0.9967942496902263  1.0000
  Au  Au19      1.0  0.004051227429747939  0.006331859984901458  0.9994571128779584  1.0000
  Au  Au20      1.0  0.006055866803153552  0.009000014182398541  0.0008829350491582333  1.0000
  Au  Au21      1.0  0.0033253194493116415  0.0010597838059930185  0.9974706486744152  1.0000
  Au  Au22      1.0  0.0008253193993241617  0.00855978409759653  0.9961392169933839  1.0000
  Au  Au23      1.0  0.005825319150487932  0.0035597839031941895  0.9988020803971724  1.0000
  Au  Au24      1.0  0.008103388406370137  0.006527478836822718  0.00030806493901090303  1.0000
  Au  Au25      1.0  0.008085776717956853  0.005116209428171433  0.9986032668940111  1.0000
  Au  Au26      1.0  0.005585776750590735  0.002616209330970262  0.9972718351344556  1.0000
  Au  Au27      1.0  0.0005623349080699345  0.007707306649703777  2.5380855069268142e-05  1.0000
  Au  Au28      1.0  0.0027870703777306345  0.00021502901449718678  0.0012498189009434691  1.0000
  Au  Au29      1.0  0.00880425082974707  0.008080852245032416  0.9977257151306678  1.0000
  Au  Au30      1.0  0.006304251416565793  0.005580851960905916  0.9963942830713015  1.0000
  Au  Au31      1.0  0.0013042513432873477  0.0005808518132349067  0.9990571464835157  1.0000
  Au  Au32      1.0  0.0037875347501102525  0.0037806197296627875  0.0007379438768664717  1.0000
  C   C1        1.0  0.009862667550501513  0.009035741594329854  0.0012218016689178547  1.0000
  O   O1        1.0  0.009862667550501513  0.009035741594329854  0.001758423012634894  1.0000
