data_image0
_chemical_formula_structural       COCu4Pd8Zn4Cu4Pd8Zn4Cu4Pd8Zn4Cu4Pd8Zn4
_chemical_formula_sum              "C1 O1 Cu16 Pd32 Zn16"
_cell_length_a       8.6821870803833
_cell_length_b       8.6821870803833
_cell_length_c       106.83540344238281
_cell_angle_alpha    90.0
_cell_angle_beta     90.0
_cell_angle_gamma    90.0

_space_group_name_H-M_alt    "P 1"
_space_group_IT_number       1

loop_
  _space_group_symop_operation_xyz
  'x, y, z'

loop_
  _atom_site_type_symbol
  _atom_site_label
  _atom_site_symmetry_multiplicity
  _atom_site_fract_x
  _atom_site_fract_y
  _atom_site_fract_z
  _atom_site_occupancy
  C   C1        1.0  0.00375000099544889  0.0012500004033284295  0.00016212279415387846  1.0000
  O   O1        1.0  0.00375000099544889  0.0012500004033284295  0.0002744453382922247  1.0000
  Cu  Cu1       1.0  0.002500000163047663  0.0025000005921204604  0.9995733877890157  1.0000
  Cu  Cu2       1.0  0.009999999794045058  0.009999999794045058  0.9998649771738533  1.0000
  Cu  Cu3       1.0  0.002500000163047663  0.0025000005921204604  0.9989987439415331  1.0000
  Cu  Cu4       1.0  5.000000063940004e-11  4.4999998657355166e-10  0.9992860661442299  1.0000
  Pd  Pd1       1.0  0.002500000163047663  4.4999998657355166e-10  0.9997170493087973  1.0000
  Pd  Pd2       1.0  0.0025000005921204604  6.650000244882279e-09  0.9999999994420891  1.0000
  Pd  Pd3       1.0  1.450000024936284e-09  0.0024999939414921003  0.0  1.0000
  Pd  Pd4       1.0  5.000000063940004e-11  0.0025000005921204604  0.9997170493087973  1.0000
  Pd  Pd5       1.0  0.002500000163047663  4.4999998657355166e-10  0.9991424049034038  1.0000
  Pd  Pd6       1.0  0.002500000163047663  4.4999998657355166e-10  0.999429726827145  1.0000
  Pd  Pd7       1.0  5.000000063940004e-11  0.0025000005921204604  0.999429726827145  1.0000
  Pd  Pd8       1.0  5.000000063940004e-11  0.0025000005921204604  0.9991424049034038  1.0000
  Zn  Zn1       1.0  5.000000063940004e-11  4.4999998657355166e-10  0.9995733877890157  1.0000
  Zn  Zn2       1.0  0.0025000005921204604  0.002500002522948049  0.9998663674880187  1.0000
  Zn  Zn3       1.0  5.000000063940004e-11  4.4999998657355166e-10  0.9989987439415331  1.0000
  Zn  Zn4       1.0  0.002500000163047663  0.0025000005921204604  0.9992860661442299  1.0000
  Cu  Cu5       1.0  0.002500000163047663  0.00750000027460659  0.9995733877890157  1.0000
  Cu  Cu6       1.0  0.009999999794045058  0.004999999467949731  0.9998649771738533  1.0000
  Cu  Cu7       1.0  0.002500000163047663  0.00750000027460659  0.9989987439415331  1.0000
  Cu  Cu8       1.0  5.000000063940004e-11  0.0050000007551681235  0.9992860661442299  1.0000
  Pd  Pd9       1.0  0.002500000163047663  0.0050000007551681235  0.9997170493087973  1.0000
  Pd  Pd10      1.0  0.0025000005921204604  0.005000006762187288  0.9999999994420891  1.0000
  Pd  Pd11      1.0  1.450000024936284e-09  0.0074999942675874265  0.0  1.0000
  Pd  Pd12      1.0  5.000000063940004e-11  0.00750000027460659  0.9997170493087973  1.0000
  Pd  Pd13      1.0  0.002500000163047663  0.0050000007551681235  0.9991424049034038  1.0000
  Pd  Pd14      1.0  0.002500000163047663  0.0050000007551681235  0.999429726827145  1.0000
  Pd  Pd15      1.0  5.000000063940004e-11  0.00750000027460659  0.999429726827145  1.0000
  Pd  Pd16      1.0  5.000000063940004e-11  0.00750000027460659  0.9991424049034038  1.0000
  Zn  Zn5       1.0  5.000000063940004e-11  0.0050000007551681235  0.9995733877890157  1.0000
  Zn  Zn6       1.0  0.0025000005921204604  0.007500002849043375  0.9998663674880187  1.0000
  Zn  Zn7       1.0  5.000000063940004e-11  0.0050000007551681235  0.9989987439415331  1.0000
  Zn  Zn8       1.0  0.002500000163047663  0.00750000027460659  0.9992860661442299  1.0000
  Cu  Cu9       1.0  0.00750000027460659  0.0025000005921204604  0.9995733877890157  1.0000
  Cu  Cu10      1.0  0.004999999897022529  0.009999999794045058  0.9998649771738533  1.0000
  Cu  Cu11      1.0  0.00750000027460659  0.0025000005921204604  0.9989987439415331  1.0000
  Cu  Cu12      1.0  0.005000000326095326  4.4999998657355166e-10  0.9992860661442299  1.0000
  Pd  Pd17      1.0  0.00750000027460659  4.4999998657355166e-10  0.9997170493087973  1.0000
  Pd  Pd18      1.0  0.00750000027460659  6.650000244882279e-09  0.9999999994420891  1.0000
  Pd  Pd19      1.0  0.005000001613313718  0.0024999939414921003  0.0  1.0000
  Pd  Pd20      1.0  0.005000000326095326  0.0025000005921204604  0.9997170493087973  1.0000
  Pd  Pd21      1.0  0.00750000027460659  4.4999998657355166e-10  0.9991424049034038  1.0000
  Pd  Pd22      1.0  0.00750000027460659  4.4999998657355166e-10  0.999429726827145  1.0000
  Pd  Pd23      1.0  0.005000000326095326  0.0025000005921204604  0.999429726827145  1.0000
  Pd  Pd24      1.0  0.005000000326095326  0.0025000005921204604  0.9991424049034038  1.0000
  Zn  Zn9       1.0  0.005000000326095326  4.4999998657355166e-10  0.9995733877890157  1.0000
  Zn  Zn10      1.0  0.007500001132752185  0.002500002522948049  0.9998663674880187  1.0000
  Zn  Zn11      1.0  0.005000000326095326  4.4999998657355166e-10  0.9989987439415331  1.0000
  Zn  Zn12      1.0  0.00750000027460659  0.0025000005921204604  0.9992860661442299  1.0000
  Cu  Cu13      1.0  0.00750000027460659  0.00750000027460659  0.9995733877890157  1.0000
  Cu  Cu14      1.0  0.004999999897022529  0.004999999467949731  0.9998649771738533  1.0000
  Cu  Cu15      1.0  0.00750000027460659  0.00750000027460659  0.9989987439415331  1.0000
  Cu  Cu16      1.0  0.005000000326095326  0.0050000007551681235  0.9992860661442299  1.0000
  Pd  Pd25      1.0  0.00750000027460659  0.0050000007551681235  0.9997170493087973  1.0000
  Pd  Pd26      1.0  0.00750000027460659  0.005000006762187288  0.9999999994420891  1.0000
  Pd  Pd27      1.0  0.005000001613313718  0.0074999942675874265  0.0  1.0000
  Pd  Pd28      1.0  0.005000000326095326  0.00750000027460659  0.9997170493087973  1.0000
  Pd  Pd29      1.0  0.00750000027460659  0.0050000007551681235  0.9991424049034038  1.0000
  Pd  Pd30      1.0  0.00750000027460659  0.0050000007551681235  0.999429726827145  1.0000
  Pd  Pd31      1.0  0.005000000326095326  0.00750000027460659  0.999429726827145  1.0000
  Pd  Pd32      1.0  0.005000000326095326  0.00750000027460659  0.9991424049034038  1.0000
  Zn  Zn13      1.0  0.005000000326095326  0.0050000007551681235  0.9995733877890157  1.0000
  Zn  Zn14      1.0  0.007500001132752185  0.007500002849043375  0.9998663674880187  1.0000
  Zn  Zn15      1.0  0.005000000326095326  0.0050000007551681235  0.9989987439415331  1.0000
  Zn  Zn16      1.0  0.00750000027460659  0.00750000027460659  0.9992860661442299  1.0000
