data_image0
_chemical_formula_structural       COCoPtCoPtCoPtCoPtCoPtCoPtCoPtCoPtCoPtCoPtCoPtCoPt
_chemical_formula_sum              "C1 O1 Co12 Pt12"
_cell_length_a       5.364039421081543
_cell_length_b       7.408036231994629
_cell_length_c       99.5022201538086
_cell_angle_alpha    90.0
_cell_angle_beta     90.0
_cell_angle_gamma    90.0

_space_group_name_H-M_alt    "P 1"
_space_group_IT_number       1

loop_
  _space_group_symop_operation_xyz
  'x, y, z'

loop_
  _atom_site_type_symbol
  _atom_site_label
  _atom_site_symmetry_multiplicity
  _atom_site_fract_x
  _atom_site_fract_y
  _atom_site_fract_z
  _atom_site_occupancy
  C   C1        1.0  0.002500000229182842  0.00125000001005743  4.4625211480947446e-05  1.0000
  O   O1        1.0  0.002500000229182842  0.00125000001005743  0.0001652257799923401  1.0000
  Co  Co1       1.0  0.002500000055559477  0.0012499998843395548  0.9993324267000231  1.0000
  Pt  Pt1       1.0  0.0  0.0037499997787365396  0.9994671987803018  1.0000
  Co  Co2       1.0  0.002500000055559477  0.0012499998843395548  0.9996019705610661  1.0000
  Pt  Pt2       1.0  0.010000000222237909  0.00375000003017229  0.9997348527070903  1.0000
  Co  Co3       1.0  0.002500000229182842  0.00125000001005743  0.9998705535807323  1.0000
  Pt  Pt3       1.0  4.0000002586389194e-10  0.00375000003017229  0.0  1.0000
  Co  Co4       1.0  0.002500000055559477  0.006249999798851399  0.9993324267000231  1.0000
  Pt  Pt4       1.0  0.0  0.00874999931609476  0.9994671987803018  1.0000
  Co  Co5       1.0  0.002500000055559477  0.006249999798851399  0.9996019705610661  1.0000
  Pt  Pt5       1.0  0.010000000222237909  0.00875000032183776  0.9997348527070903  1.0000
  Co  Co6       1.0  0.002500000229182842  0.006249999798851399  0.9998705535807323  1.0000
  Pt  Pt6       1.0  4.0000002586389194e-10  0.00875000032183776  0.0  1.0000
  Co  Co7       1.0  0.007500000166678431  0.0012499998843395548  0.9993324267000231  1.0000
  Pt  Pt7       1.0  0.005000000111118954  0.0037499997787365396  0.9994671987803018  1.0000
  Co  Co8       1.0  0.007500000166678431  0.0012499998843395548  0.9996019705610661  1.0000
  Pt  Pt8       1.0  0.005000000111118954  0.00375000003017229  0.9997348527070903  1.0000
  Co  Co9       1.0  0.007500000166678431  0.00125000001005743  0.9998705535807323  1.0000
  Pt  Pt9       1.0  0.005000000458365684  0.00375000003017229  0.0  1.0000
  Co  Co10      1.0  0.007500000166678431  0.006249999798851399  0.9993324267000231  1.0000
  Pt  Pt10      1.0  0.005000000111118954  0.00874999931609476  0.9994671987803018  1.0000
  Co  Co11      1.0  0.007500000166678431  0.006249999798851399  0.9996019705610661  1.0000
  Pt  Pt11      1.0  0.005000000111118954  0.00875000032183776  0.9997348527070903  1.0000
  Co  Co12      1.0  0.007500000166678431  0.006249999798851399  0.9998705535807323  1.0000
  Pt  Pt12      1.0  0.005000000458365684  0.00875000032183776  0.0  1.0000
