data_image0
_chemical_formula_structural       HPt16Ti2Pt16Ti2
_chemical_formula_sum              "H1 Pt32 Ti4"
_cell_length_a       6.297575020535232
_cell_length_b       7.906124591827393
_cell_length_c       105.87617492675781
_cell_angle_alpha    90.0
_cell_angle_beta     90.0
_cell_angle_gamma    108.29176002848588

_space_group_name_H-M_alt    "P 1"
_space_group_IT_number       1

loop_
  _space_group_symop_operation_xyz
  'x, y, z'

loop_
  _atom_site_type_symbol
  _atom_site_label
  _atom_site_symmetry_multiplicity
  _atom_site_fract_x
  _atom_site_fract_y
  _atom_site_fract_z
  _atom_site_occupancy
  H   H1        1.0  0.0008017089929104378  0.0037461501263552958  0.00011320506442776538  1.0000
  Pt  Pt1       1.0  0.002436459589932543  0.0029049309299601436  0.9998051941971919  1.0000
  Pt  Pt2       1.0  0.0024359706713283132  0.0004047198632421406  0.9992424332311084  1.0000
  Pt  Pt3       1.0  0.0024372539463777725  0.0004046999818694208  0.0  1.0000
  Pt  Pt4       1.0  0.0024359706713283132  0.0029047198809117815  0.9994414874538476  1.0000
  Pt  Pt5       1.0  0.005673650724957478  0.0012141399208235354  0.9990595850992138  1.0000
  Pt  Pt6       1.0  0.005673650724957478  0.003714139894319073  0.9996243353042594  1.0000
  Pt  Pt7       1.0  0.005733299729210554  0.0012288773307854127  0.9998080017066595  1.0000
  Pt  Pt8       1.0  0.005725695090174895  0.0037271509856234273  0.9992453724745273  1.0000
  Pt  Pt9       1.0  0.005706189434028047  0.0037222955395611454  0.999993744889173  1.0000
  Pt  Pt10      1.0  0.005725695090174895  0.0012271510121278893  0.9994385482104288  1.0000
  Pt  Pt11      1.0  0.009146246277402717  0.002082288808934845  0.9992453724745273  1.0000
  Pt  Pt12      1.0  0.009139745015045098  0.0045810734025208445  0.9998080039585219  1.0000
  Pt  Pt13      1.0  0.009166163752851758  0.0020875998369656867  0.9999936750814381  1.0000
  Pt  Pt14      1.0  0.009146246277402717  0.004582288782430383  0.9994385482104288  1.0000
  Pt  Pt15      1.0  0.009198290642620134  0.004595299873734736  0.9990595850992138  1.0000
  Pt  Pt16      1.0  0.009198290642620134  0.002095299900239199  0.9996243353042594  1.0000
  Ti  Ti1       1.0  0.0024359706713283132  0.0004047198632421406  0.9996243353042594  1.0000
  Ti  Ti2       1.0  0.0024359706713283132  0.0029047198809117815  0.9990595850992138  1.0000
  Pt  Pt17      1.0  0.002436459589932543  0.00790493102419823  0.9998051941971919  1.0000
  Pt  Pt18      1.0  0.0024359706713283132  0.0054047199280308255  0.9992424332311084  1.0000
  Pt  Pt19      1.0  0.0024372539463777725  0.005404700076107508  0.0  1.0000
  Pt  Pt20      1.0  0.0024359706713283132  0.007904720210745087  0.9994414874538476  1.0000
  Pt  Pt21      1.0  0.005673650724957478  0.006214139941438117  0.9990595850992138  1.0000
  Pt  Pt22      1.0  0.005673650724957478  0.00871414022415238  0.9996243353042594  1.0000
  Pt  Pt23      1.0  0.005733299729210554  0.006228877380849397  0.9998080017066595  1.0000
  Pt  Pt24      1.0  0.005725695090174895  0.008727151315456733  0.9992453724745273  1.0000
  Pt  Pt25      1.0  0.005706189434028047  0.008722295633799233  0.999993744889173  1.0000
  Pt  Pt26      1.0  0.005725695090174895  0.00622715103274247  0.9994385482104288  1.0000
  Pt  Pt27      1.0  0.009146246277402717  0.0070822888295494265  0.9992453724745273  1.0000
  Pt  Pt28      1.0  0.009139745015045098  0.009581073261163713  0.9998080039585219  1.0000
  Pt  Pt29      1.0  0.009166163752851758  0.007087599916479073  0.9999936750814381  1.0000
  Pt  Pt30      1.0  0.009146246277402717  0.009582289112263689  0.9994385482104288  1.0000
  Pt  Pt31      1.0  0.009198290642620134  0.009595300203568042  0.9990595850992138  1.0000
  Pt  Pt32      1.0  0.009198290642620134  0.00709529992085378  0.9996243353042594  1.0000
  Ti  Ti3       1.0  0.0024359706713283132  0.0054047199280308255  0.9996243353042594  1.0000
  Ti  Ti4       1.0  0.0024359706713283132  0.007904720210745087  0.9990595850992138  1.0000
