data_image0
_chemical_formula_structural       HMn10Fe10As10
_chemical_formula_sum              "H1 Mn10 Fe10 As10"
_cell_length_a       8.130340413738388
_cell_length_b       6.840179612380724
_cell_length_c       100.98607635498047
_cell_angle_alpha    67.41850083513319
_cell_angle_beta     77.88294849203919
_cell_angle_gamma    76.24781066526059

_space_group_name_H-M_alt    "P 1"
_space_group_IT_number       1

loop_
  _space_group_symop_operation_xyz
  'x, y, z'

loop_
  _atom_site_type_symbol
  _atom_site_label
  _atom_site_symmetry_multiplicity
  _atom_site_fract_x
  _atom_site_fract_y
  _atom_site_fract_z
  _atom_site_occupancy
  H   H1        1.0  0.0005710706018196678  0.007468020204299765  0.999796108676528  1.0000
  Mn  Mn1       1.0  0.0024633845602664685  0.007850937790074378  0.9994403839809045  1.0000
  Mn  Mn2       1.0  0.006555994016163109  0.005849982233752979  0.9995985354016319  1.0000
  Mn  Mn3       1.0  0.008463384662902786  0.009850937373183804  0.9992869664438432  1.0000
  Mn  Mn4       1.0  0.0005673536541939815  0.0037535323809163097  0.9997281066333891  1.0000
  Mn  Mn5       1.0  0.004463384569935248  0.001850937693039503  0.9991335489027294  1.0000
  Mn  Mn6       1.0  0.004751660026884502  0.0009861113007217823  0.9994728661452374  1.0000
  Mn  Mn7       1.0  0.00865047012327293  0.009089806596125075  0.9996046871605104  1.0000
  Mn  Mn8       1.0  0.0007516597571200739  0.0029861114079393295  0.9993194486126421  1.0000
  Mn  Mn9       1.0  0.0030769914273742873  0.007805677609721574  0.9997117507798374  1.0000
  Mn  Mn10      1.0  0.006751659818343194  0.004986111290539111  0.999166031068491  1.0000
  Fe  Fe1       1.0  0.005107522324411215  0.0049185244037391425  0.9994182709748051  1.0000
  Fe  Fe2       1.0  0.009097632327343163  0.002893236154575281  0.9995753423401204  1.0000
  Fe  Fe3       1.0  0.0011075220857066836  0.006918524286338924  0.999264853447527  1.0000
  Fe  Fe4       1.0  0.0030653955888021427  0.0012713063068701036  0.9997062649008827  1.0000
  Fe  Fe5       1.0  0.007107522105516608  0.008918524468429058  0.9991114358962861  1.0000
  Fe  Fe6       1.0  0.004107522095611645  0.007918524377383992  0.9991881446719066  1.0000
  Fe  Fe7       1.0  0.008107522375729372  0.005918524195293855  0.9993415622062743  1.0000
  Fe  Fe8       1.0  0.00038983085314459005  0.000149062301869161  0.9997773355514994  1.0000
  Fe  Fe9       1.0  0.0021075220801877745  0.003918524312694074  0.9994949797543854  1.0000
  Fe  Fe10      1.0  0.006106243121383659  0.0020654105227378445  0.9996499760002171  1.0000
  As  As1       1.0  0.0015416915145307917  0.0003997662767089811  0.9995438947735492  1.0000
  As  As2       1.0  0.005773457631688296  0.008438648078305045  0.99972069089145  1.0000
  As  As3       1.0  0.007610169494915501  0.0024105833391186884  0.9994178646866453  1.0000
  As  As4       1.0  0.009610169296727493  0.0064105832540634275  0.9991110296116713  1.0000
  As  As5       1.0  0.003610169235504372  0.004410583371463646  0.9992644471558225  1.0000
  As  As6       1.0  0.005604875184518488  0.008426465409659486  0.9993419679006628  1.0000
  As  As7       1.0  0.00960487538180982  0.00642646582655006  0.9994953854208509  1.0000
  As  As8       1.0  0.0016048749795683614  0.00042646569207889127  0.9991885503624152  1.0000
  As  As9       1.0  0.0036017329134185425  0.004665915370753533  0.9996679210518323  1.0000
  As  As10      1.0  0.0076976962061722845  0.0026682655889665187  0.9998112508820164  1.0000
