data_image0
_chemical_formula_structural       HAl6Mn18
_chemical_formula_sum              "H1 Al6 Mn18"
_cell_length_a       6.9825085837686895
_cell_length_b       5.7011942863464355
_cell_length_c       100.70187377929688
_cell_angle_alpha    90.0
_cell_angle_beta     85.6522469959711
_cell_angle_gamma    114.0948421089664

_space_group_name_H-M_alt    "P 1"
_space_group_IT_number       1

loop_
  _space_group_symop_operation_xyz
  'x, y, z'

loop_
  _atom_site_type_symbol
  _atom_site_label
  _atom_site_symmetry_multiplicity
  _atom_site_fract_x
  _atom_site_fract_y
  _atom_site_fract_z
  _atom_site_occupancy
  H   H1        1.0  0.0046695686599504274  0.007542583272367035  9.7266252900277e-05  1.0000
  Al  Al1       1.0  0.0009863269205477255  0.0007023329586091925  0.9999406175562363  1.0000
  Al  Al2       1.0  0.0077083332785966106  0.009062500081535437  0.9994126945198545  1.0000
  Al  Al3       1.0  0.009375000234585958  0.004895833479485819  0.9996667603651364  1.0000
  Al  Al4       1.0  0.0054340030693602  0.007925580663887693  0.9997990438615727  1.0000
  Al  Al5       1.0  0.0018749999589474577  0.006145833421710861  0.9992856615815839  1.0000
  Al  Al6       1.0  0.003541666768320582  0.001979166685094744  0.9995397274276365  1.0000
  Mn  Mn1       1.0  0.0048957065904503775  0.0007520334496709185  0.9999742655631138  1.0000
  Mn  Mn2       1.0  0.0006250000351878936  0.008020833316078065  0.9994762109588865  1.0000
  Mn  Mn3       1.0  0.0023086319543757713  0.003876024474343897  0.9997376084746584  1.0000
  Mn  Mn4       1.0  0.004896316513939323  0.004559576072252537  0.9999743819192383  1.0000
  Mn  Mn5       1.0  0.0006250000351878936  0.0030208334402283955  0.9994762109588865  1.0000
  Mn  Mn6       1.0  0.0023092999378891456  0.008850956367486392  0.9997376233120374  1.0000
  Mn  Mn7       1.0  0.0015040138501801208  0.00596141622795715  0.9999000211422193  1.0000
  Mn  Mn8       1.0  0.0077083332785966106  0.00406250004233007  0.9994126945198545  1.0000
  Mn  Mn9       1.0  0.009375000234585958  0.009895833559530111  0.9996667603651364  1.0000
  Mn  Mn10      1.0  0.004791666838696369  0.005104166841982633  0.9993491780495632  1.0000
  Mn  Mn11      1.0  0.0064583332082208235  0.0009374999875394927  0.9996032438979278  1.0000
  Mn  Mn12      1.0  0.007985771639165811  0.006225599488209186  0.999878944568254  1.0000
  Mn  Mn13      1.0  0.004791666838696369  0.00010416663942156702  0.9993491780495632  1.0000
  Mn  Mn14      1.0  0.0064583332082208235  0.005937500026744861  0.9996032438979278  1.0000
  Mn  Mn15      1.0  0.007984261492065778  0.002175922651395773  0.9998788986442079  1.0000
  Mn  Mn16      1.0  0.004981371810635009  0.0027007573108834104  0.9997693088418  1.0000
  Mn  Mn17      1.0  0.0018749999589474577  0.001145833341666569  0.9992856615815839  1.0000
  Mn  Mn18      1.0  0.003541666768320582  0.006979166826397423  0.9995397274276365  1.0000
