data_image0
_chemical_formula_structural       COCa8In16Ca8In16
_chemical_formula_sum              "C1 O1 Ca16 In32"
_cell_length_a       8.731979370117188
_cell_length_b       16.59770714857936
_cell_length_c       105.28987121582031
_cell_angle_alpha    98.73535132275892
_cell_angle_beta     90.0
_cell_angle_gamma    74.74901741378241

_space_group_name_H-M_alt    "P 1"
_space_group_IT_number       1

loop_
  _space_group_symop_operation_xyz
  'x, y, z'

loop_
  _atom_site_type_symbol
  _atom_site_label
  _atom_site_symmetry_multiplicity
  _atom_site_fract_x
  _atom_site_fract_y
  _atom_site_fract_z
  _atom_site_occupancy
  C   C1        1.0  0.0035957937278061837  0.00265391560222508  0.00019886440951878473  1.0000
  O   O1        1.0  0.0035957937278061837  0.00265391560222508  0.0003128357173010665  1.0000
  Ca  Ca1       1.0  0.005625000309098699  0.00874245267327552  0.9994688468781382  1.0000
  Ca  Ca2       1.0  0.008125000106503355  0.0037424530784662055  0.9993491437675872  1.0000
  Ca  Ca3       1.0  0.0031249998163976078  0.0037424530784662055  0.9995885502005645  1.0000
  Ca  Ca4       1.0  0.0006250000189929509  0.00874245267327552  0.9992294407282112  1.0000
  Ca  Ca5       1.0  0.006875000148907032  0.006242452993658853  0.9994089953256826  1.0000
  Ca  Ca6       1.0  0.009375000122993674  0.0012424530454855681  0.9992892922066718  1.0000
  Ca  Ca7       1.0  0.004374999832887927  0.0012424530454855681  0.9995286986396491  1.0000
  Ca  Ca8       1.0  0.0018749998588012845  0.006242452993658853  0.9991695891757556  1.0000
  In  In1       1.0  0.006786176374390487  0.00975343264734211  0.9992536442196926  1.0000
  In  In2       1.0  0.009286176054007153  0.004753433288108776  0.9996127536976858  1.0000
  In  In3       1.0  0.004286176190527506  0.004753433288108776  0.9993733472647085  1.0000
  In  In4       1.0  0.0017861765109108388  0.00975343264734211  0.9994930503696197  1.0000
  In  In5       1.0  0.0047028432562964545  0.007253432967725443  0.9991937926672371  1.0000
  In  In6       1.0  0.007202843171489102  0.0022534331373401484  0.9995529021339505  1.0000
  In  In7       1.0  0.0022028433080094533  0.0022534331373401484  0.9993134957009733  1.0000
  In  In8       1.0  0.009702843119776103  0.007253432967725443  0.9994331988171641  1.0000
  In  In9       1.0  0.007797156348457077  0.00773147269920893  0.9992052372367296  1.0000
  In  In10      1.0  0.0002971567500034776  0.0027314728688236354  0.9995643467034431  1.0000
  In  In11      1.0  0.005297156826796176  0.0027314728688236354  0.9993249402704658  1.0000
  In  In12      1.0  0.002797156911603528  0.00773147269920893  0.9994446433866567  1.0000
  In  In13      1.0  0.005713823465939025  0.005231472548440302  0.9991453856729944  1.0000
  In  In14      1.0  0.008213823314875928  0.00023147285056649656  0.9995044951428802  1.0000
  In  In15      1.0  0.00321382345139628  0.00023147285056649656  0.9992650887099029  1.0000
  In  In16      1.0  0.000713823602459377  0.005231472548440302  0.9993847918229214  1.0000
  Ca  Ca9       1.0  0.005653564860765342  0.008743955648031002  0.9999512347032866  1.0000
  Ca  Ca10      1.0  0.008110536678218485  0.0037184356361039967  0.999825009396996  1.0000
  Ca  Ca11      1.0  0.003052617182335564  0.0037184834580280346  5.277653410299922e-05  1.0000
  Ca  Ca12      1.0  0.0006250000189929509  0.00874245267327552  0.9997082533111155  1.0000
  Ca  Ca13      1.0  0.006823536793466417  0.00625604761234057  0.9999039870156898  1.0000
  Ca  Ca14      1.0  0.009375000122993674  0.0012424530454855681  0.9997681047895761  1.0000
  Ca  Ca15      1.0  0.004311385197642482  0.0012445170444385706  1.1792519982575083e-05  1.0000
  Ca  Ca16      1.0  0.0018749998588012845  0.006242452993658853  0.9996484017586599  1.0000
  In  In17      1.0  0.006786176374390487  0.00975343264734211  0.9997324568025969  1.0000
  In  In18      1.0  0.008828991984989865  0.00471993721059585  0.00011299824229994347  1.0000
  In  In19      1.0  0.004316047650370386  0.0049124164500573796  0.9998715750917716  1.0000
  In  In20      1.0  0.0017811695659120397  0.009848181306692396  0.9999926201356569  1.0000
  In  In21      1.0  0.0047028432562964545  0.007253432967725443  0.9996726052501413  1.0000
  In  In22      1.0  0.007089594221732893  0.00231754349139675  4.977091768226126e-05  1.0000
  In  In23      1.0  0.0022028433080094533  0.0022534331373401484  0.9997923082838776  1.0000
  In  In24      1.0  0.00960486857112335  0.007365386212082369  0.9999319961895357  1.0000
  In  In25      1.0  0.007797156348457077  0.00773147269920893  0.9996840498196339  1.0000
  In  In26      1.0  0.00035296895821366873  0.0026427043057379103  5.94445477371367e-05  1.0000
  In  In27      1.0  0.005297156826796176  0.0027314728688236354  0.9998037528533701  1.0000
  In  In28      1.0  0.002915402814360789  0.007617447328527674  0.999941161225519  1.0000
  In  In29      1.0  0.005713823465939025  0.005231472548440302  0.9996241982558987  1.0000
  In  In30      1.0  0.008190725074563978  0.00015181804488471749  0.9999991771436961  1.0000
  In  In31      1.0  0.00321382345139628  0.00023147285056649656  0.9997439012928072  1.0000
  In  In32      1.0  0.0007000983008754349  0.005196732158598465  0.9998854863480637  1.0000
