data_image0
_chemical_formula_structural       CONi12Sn16
_chemical_formula_sum              "C1 O1 Ni12 Sn16"
_cell_length_a       6.534834549006803
_cell_length_b       6.737947572497853
_cell_length_c       106.10768127441406
_cell_angle_alpha    84.86398906699847
_cell_angle_beta     85.71945441172188
_cell_angle_gamma    89.86663163470192

_space_group_name_H-M_alt    "P 1"
_space_group_IT_number       1

loop_
  _space_group_symop_operation_xyz
  'x, y, z'

loop_
  _atom_site_type_symbol
  _atom_site_label
  _atom_site_symmetry_multiplicity
  _atom_site_fract_x
  _atom_site_fract_y
  _atom_site_fract_z
  _atom_site_occupancy
  C   C1        1.0  0.002294927678684437  0.0058966525767230925  7.5525266390437e-05  1.0000
  O   O1        1.0  0.002294927678684437  0.0058966525767230925  0.00018861815631666948  1.0000
  Ni  Ni1       1.0  0.007500000035723334  0.008634925685667046  0.9990711899913005  1.0000
  Ni  Ni2       1.0  0.009166666420039757  0.004468259315062332  0.9993547672203331  1.0000
  Ni  Ni3       1.0  0.0008966786682298319  0.007571444138154538  0.9989145520185768  1.0000
  Ni  Ni4       1.0  0.002563345124003896  0.003404777767549824  0.9991981295281497  1.0000
  Ni  Ni5       1.0  0.004103321414297866  0.009698407788295714  0.9992278280759737  1.0000
  Ni  Ni6       1.0  0.0024366547817599505  0.0038650742588213377  0.9989442507520188  1.0000
  Ni  Ni7       1.0  0.0008333333828692775  0.0003015925628152571  0.9996383448449007  1.0000
  Ni  Ni8       1.0  0.0024935600436215254  0.006127899536018814  0.999911172935852  1.0000
  Ni  Ni9       1.0  0.0042300120411193215  0.00923811101946612  0.9994817071332429  1.0000
  Ni  Ni10      1.0  0.005953084896418496  0.005050129298544206  0.9997578178150835  1.0000
  Ni  Ni11      1.0  0.00743511884305236  0.0013212940069890278  0.9998023770287472  1.0000
  Ni  Ni12      1.0  0.005769987796108175  0.005531740862574839  0.9995114053081734  1.0000
  Sn  Sn1       1.0  0.007539236455431878  0.008075974783089026  0.9993219536617637  1.0000
  Sn  Sn2       1.0  0.005872569537689922  0.00224264139239369  0.9990383763383309  1.0000
  Sn  Sn3       1.0  0.0007940970360280639  0.0008605437776461171  0.9993875811723274  1.0000
  Sn  Sn4       1.0  0.009127430571992345  0.005027210217640352  0.9991040038281107  1.0000
  Sn  Sn5       1.0  0.0026298229851536787  0.00627961444793458  0.9993592921985645  1.0000
  Sn  Sn6       1.0  0.0009631564232902444  0.000446280744986404  0.9990757145944021  1.0000
  Sn  Sn7       1.0  0.00570351022078896  0.0026569041821900828  0.9993502426364447  1.0000
  Sn  Sn8       1.0  0.004036843553148084  0.006823571107910958  0.9990666654055588  1.0000
  Sn  Sn9       1.0  0.0008199474856631882  0.009659382012005288  0.9998880321469229  1.0000
  Sn  Sn10      1.0  0.009205902837242185  0.003909307857368152  0.9996055308939634  1.0000
  Sn  Sn11      1.0  0.004223324067041676  0.002641396179582227  0.9999565328629779  1.0000
  Sn  Sn12      1.0  0.0024607636676261865  0.0066938770989519334  0.9996711587783387  1.0000
  Sn  Sn13      1.0  0.005866781170609707  0.007959977155149229  0.9999277817573861  1.0000
  Sn  Sn14      1.0  0.004296489652794555  0.002112947522213706  0.9996428694294504  1.0000
  Sn  Sn15      1.0  0.009063455701123857  0.004377433429404253  0.9999079103746406  1.0000
  Sn  Sn16      1.0  0.007370177137904386  0.008490237434106379  0.9996338202415379  1.0000
