data_image0
_chemical_formula_structural       HSb24Ir12
_chemical_formula_sum              "H1 Sb24 Ir12"
_cell_length_a       9.4733900423666
_cell_length_b       11.426165986778495
_cell_length_c       109.5273666381836
_cell_angle_alpha    89.30089110029706
_cell_angle_beta     78.52273013024727
_cell_angle_gamma    53.36589503921981

_space_group_name_H-M_alt    "P 1"
_space_group_IT_number       1

loop_
  _space_group_symop_operation_xyz
  'x, y, z'

loop_
  _atom_site_type_symbol
  _atom_site_label
  _atom_site_symmetry_multiplicity
  _atom_site_fract_x
  _atom_site_fract_y
  _atom_site_fract_z
  _atom_site_occupancy
  H   H1        1.0  0.0018065499620916429  0.0027677214546553567  1.963186738267564e-05  1.0000
  Sb  Sb1       1.0  0.005781051532771805  0.008224710029630971  0.9995185929356979  1.0000
  Sb  Sb2       1.0  0.009114384801337111  0.0015580434354097654  0.9992178514287313  1.0000
  Sb  Sb3       1.0  0.0023816074036453368  0.004926548371986777  0.999814898999447  1.0000
  Sb  Sb4       1.0  0.007584428252576539  0.0024318098234261446  0.9998134514858217  1.0000
  Sb  Sb5       1.0  0.0009671302088416516  0.005834009793515409  0.9995018049343535  1.0000
  Sb  Sb6       1.0  0.004300463693066676  0.00916734303936743  0.9992010628320628  1.0000
  Sb  Sb7       1.0  0.007500855293658938  0.005067147380195393  0.9991198800681793  1.0000
  Sb  Sb8       1.0  0.0009049574153706108  0.008412979928602652  0.9997175840471111  1.0000
  Sb  Sb9       1.0  0.0041675219624558  0.001733813929309046  0.9994206221680975  1.0000
  Sb  Sb10      1.0  0.005641297946097753  0.0007984177598692305  0.999737975678782  1.0000
  Sb  Sb11      1.0  0.008981443133364067  0.004124514370458933  0.9994374107160131  1.0000
  Sb  Sb12      1.0  0.0023147775656505074  0.007457847206242303  0.9991366684564363  1.0000
  Sb  Sb13      1.0  0.007444081661555945  0.007918618385677952  0.999830486422955  1.0000
  Sb  Sb14      1.0  0.0008128977406454078  0.0012304368220548228  0.9995179531727026  1.0000
  Sb  Sb15      1.0  0.0041462312248704315  0.004563770067906844  0.9992172110704121  1.0000
  Sb  Sb16      1.0  0.002594292020239113  0.0095199258065742  0.9998220099680628  1.0000
  Sb  Sb17      1.0  0.0059682849091456415  0.0028117829211511338  0.9995039336367485  1.0000
  Sb  Sb18      1.0  0.009301617590848615  0.006145116167003155  0.9992031915482695  1.0000
  Sb  Sb19      1.0  0.005786928162060316  0.005356088312883352  0.999725234893398  1.0000
  Sb  Sb20      1.0  0.009135675601560311  0.00872808734191952  0.9994212619334653  1.0000
  Sb  Sb21      1.0  0.0024690095886542003  0.0020614206451811516  0.9991205202727713  1.0000
  Sb  Sb22      1.0  0.0005076310920859741  0.0038013778129528473  0.9997424871713758  1.0000
  Sb  Sb23      1.0  0.003980288433060077  0.0071467412428232084  0.9994352814694194  1.0000
  Sb  Sb24      1.0  0.007313621701625384  0.00048007464860200315  0.9991345399624528  1.0000
  Ir  Ir1       1.0  0.008091865111935442  0.006017362149222683  0.9996385588742632  1.0000
  Ir  Ir2       1.0  0.0014251992381781055  0.009350695395074705  0.9993378166194316  1.0000
  Ir  Ir3       1.0  0.004682061776615236  0.0027625193237470614  0.9999159035815816  1.0000
  Ir  Ir4       1.0  5.2149537897365624e-05  0.002256380609161771  0.9998889290929678  1.0000
  Ir  Ir5       1.0  0.003510285222232189  0.005614373743418431  0.9996008077349757  1.0000
  Ir  Ir6       1.0  0.006843617903935163  0.008947706989270452  0.9993000661906954  1.0000
  Ir  Ir7       1.0  0.005290438518922602  0.007255904798304486  0.9998808331959107  1.0000
  Ir  Ir8       1.0  0.008523374906549664  0.0006078287688996377  0.9996013984729247  1.0000
  Ir  Ir9       1.0  0.0018567082302702763  0.003941162014751659  0.9993006562319048  1.0000
  Ir  Ir10      1.0  0.003104955438270556  0.0010108171747038898  0.9996391494596711  1.0000
  Ir  Ir11      1.0  0.006438288922495581  0.004344150420555911  0.9993384073573804  1.0000
  Ir  Ir12      1.0  0.009947850761834517  0.007603132889064738  0.9999157339383252  1.0000
