data_image0
_chemical_formula_structural       COAg30Sn10
_chemical_formula_sum              "C1 O1 Ag30 Sn10"
_cell_length_a       11.670399739742097
_cell_length_b       7.921717258895543
_cell_length_c       108.08768463134766
_cell_angle_alpha    79.56316860834256
_cell_angle_beta     73.64997330232382
_cell_angle_gamma    74.60377966761735

_space_group_name_H-M_alt    "P 1"
_space_group_IT_number       1

loop_
  _space_group_symop_operation_xyz
  'x, y, z'

loop_
  _atom_site_type_symbol
  _atom_site_label
  _atom_site_symmetry_multiplicity
  _atom_site_fract_x
  _atom_site_fract_y
  _atom_site_fract_z
  _atom_site_occupancy
  C   C1        1.0  0.0013186286801711404  0.0014187259638470428  0.9997941355342668  1.0000
  O   O1        1.0  0.0013186286801711404  0.0014187259638470428  0.999905156181577  1.0000
  Ag  Ag1       1.0  0.005725553590287906  0.004662507817931739  0.9993654789690473  1.0000
  Ag  Ag2       1.0  0.009653758695979935  0.0026420046162958163  0.999553814474031  1.0000
  Ag  Ag3       1.0  0.001725553609555852  0.006662507460464254  0.9991892900849327  1.0000
  Ag  Ag4       1.0  0.0037654676634386354  0.0007206591754039053  0.9996982274919662  1.0000
  Ag  Ag5       1.0  0.007725553923758859  0.008662507594023533  0.9990131011191611  1.0000
  Ag  Ag6       1.0  0.004330180674136896  0.000360194401895775  0.9993040165644267  1.0000
  Ag  Ag7       1.0  0.008360731600088248  0.008351554092639733  0.999474357380735  1.0000
  Ag  Ag8       1.0  0.0003301805714166982  0.0023601942899416726  0.9991278276807605  1.0000
  Ag  Ag9       1.0  0.002328290586476729  0.00636899326565827  0.999646504896132  1.0000
  Ag  Ag10      1.0  0.0063301806361237105  0.004360194423500953  0.998951638722572  1.0000
  Ag  Ag11      1.0  0.006868281784983099  0.007843620785324796  0.9993059130667823  1.0000
  Ag  Ag12      1.0  0.0007902918387779303  0.0059079181514792274  0.9994810650890419  1.0000
  Ag  Ag13      1.0  0.0028682818042510445  0.009843620427857311  0.9991297241826678  1.0000
  Ag  Ag14      1.0  0.004911520712411906  0.00377596955120248  0.9996482620311532  1.0000
  Ag  Ag15      1.0  0.008868281548712637  0.001843620630160338  0.9989535352774163  1.0000
  Ag  Ag16      1.0  0.003187452716521791  0.007179081365758971  0.9993635824162826  1.0000
  Ag  Ag17      1.0  0.0072019752457450755  0.005113100983763089  0.9995463093073264  1.0000
  Ag  Ag18      1.0  0.009187453030724796  0.009179081499318252  0.999187393450511  1.0000
  Ag  Ag19      1.0  0.0012026407059871826  0.003250005741084934  0.9997009897435655  1.0000
  Ag  Ag20      1.0  0.005187452774089843  0.0011790814561078954  0.9990112046147259  1.0000
  Ag  Ag21      1.0  0.005916738030501746  0.0008274206083571782  0.9994759741834072  1.0000
  Ag  Ag22      1.0  0.00981452948668946  0.008805989542905464  0.9996549205231726  1.0000
  Ag  Ag23      1.0  0.0018702630789252592  0.0028376760814122063  0.9993055637355842  1.0000
  Ag  Ag24      1.0  0.0038702632460655482  0.006837675857504002  0.9989531864422007  1.0000
  Ag  Ag25      1.0  0.007870263226797602  0.004837676214971487  0.9991293753263152  1.0000
  Ag  Ag26      1.0  0.0021152301257328448  0.00015637930391931907  0.999550461611671  1.0000
  Ag  Ag27      1.0  0.006295345143111886  0.008199845972367496  0.9996997905558542  1.0000
  Ag  Ag28      1.0  0.008185471057991691  0.002185025892901925  0.9993639318050249  1.0000
  Ag  Ag29      1.0  0.00018547110204729115  0.00618502566899372  0.999011554030109  1.0000
  Ag  Ag30      1.0  0.004185471332275339  0.004185026026461204  0.9991877429066401  1.0000
  Sn  Sn1       1.0  0.0053503474145312245  0.007350110898198415  0.9991287158501039  1.0000
  Sn  Sn2       1.0  0.009350347472908903  0.005350110764639135  0.9993049047383775  1.0000
  Sn  Sn3       1.0  0.001350347356153546  0.009350111031757695  0.9989525269618302  1.0000
  Sn  Sn4       1.0  0.003318530695084361  0.0033826347708983823  0.9994806567405955  1.0000
  Sn  Sn5       1.0  0.007348017230828749  0.0013626741538375385  0.9996608382923463  1.0000
  Sn  Sn6       1.0  0.004650699271152302  0.007623803324563884  0.999556661793761  1.0000
  Sn  Sn7       1.0  0.008685030385184147  0.005693013413499908  0.9997184460327585  1.0000
  Sn  Sn8       1.0  0.0007053869399109495  0.009672590895417868  0.999364590753902  1.0000
  Sn  Sn9       1.0  0.002705386792325526  0.0036725912312801745  0.9990122129553213  1.0000
  Sn  Sn10      1.0  0.006705386831291799  0.0016725912204775854  0.9991884018425552  1.0000
