data_image0
_chemical_formula_structural       COAl9Os6Al9Os6
_chemical_formula_sum              "C1 O1 Al18 Os12"
_cell_length_a       7.499242483498917
_cell_length_b       6.283904008307394
_cell_length_c       100.73607635498047
_cell_angle_alpha    92.9297668167575
_cell_angle_beta     91.71027962485022
_cell_angle_gamma    77.90784797719434

_space_group_name_H-M_alt    "P 1"
_space_group_IT_number       1

loop_
  _space_group_symop_operation_xyz
  'x, y, z'

loop_
  _atom_site_type_symbol
  _atom_site_label
  _atom_site_symmetry_multiplicity
  _atom_site_fract_x
  _atom_site_fract_y
  _atom_site_fract_z
  _atom_site_occupancy
  C   C1        1.0  0.004023268459419407  0.003161894173755192  0.00011735992839891071  1.0000
  O   O1        1.0  0.004023268459419407  0.003161894173755192  0.00023648274068478953  1.0000
  Al  Al1       1.0  0.005499999959349976  0.002499999950754284  0.9997601172740508  1.0000
  Al  Al2       1.0  0.00022893454698923163  0.0015187013094862304  5.3508030815388164e-06  1.0000
  Al  Al3       1.0  0.0017710654873092254  0.003481298699787492  0.9998199990072575  1.0000
  Al  Al4       1.0  0.0045000002439001385  0.002500000010543208  0.9994550025250495  1.0000
  Al  Al5       1.0  0.009228934304359405  0.0015187012333302233  0.9997002355406627  1.0000
  Al  Al6       1.0  0.0007710654542810815  0.003481298541796069  0.9995148842568562  1.0000
  Al  Al7       1.0  0.0035000000203250113  0.0024999998999655068  0.999149887774376  1.0000
  Al  Al8       1.0  0.008228934588909567  0.0015187012931191473  0.9993951207916613  1.0000
  Al  Al9       1.0  0.009771065370440408  0.003481298277727018  0.9992097695858821  1.0000
  Os  Os1       1.0  0.003976967574939943  0.0005323769194245503  0.9999451623581617  1.0000
  Os  Os2       1.0  0.008023032567335137  0.004467622944260109  0.9998801878276771  1.0000
  Os  Os3       1.0  0.002976967351364816  0.0005323769572484578  0.9996400473121158  1.0000
  Os  Os4       1.0  0.007023032851885299  0.0044676233008522515  0.9995750727837764  1.0000
  Os  Os5       1.0  0.0019769675088836557  0.0005323769744457255  0.9993349322668508  1.0000
  Os  Os6       1.0  0.0060230326283101715  0.00446762319027455  0.9992699580331029  1.0000
  Al  Al10      1.0  0.005499999959349976  0.007500000081347699  0.999760117669421  1.0000
  Al  Al11      1.0  0.00022893454698923163  0.006518701291678037  5.350606287453029e-06  1.0000
  Al  Al12      1.0  0.0017710654873092254  0.00848129853357769  0.9998199994016814  1.0000
  Al  Al13      1.0  0.0045000002439001385  0.0074999998443334055  0.9994550026236279  1.0000
  Al  Al14      1.0  0.009228934304359405  0.006518701660726856  0.9997002359369791  1.0000
  Al  Al15      1.0  0.0007710654542810815  0.008481298375586267  0.9995148843554346  1.0000
  Al  Al16      1.0  0.0035000000203250113  0.00750000032736214  0.9991498878748469  1.0000
  Al  Al17      1.0  0.008228934588909567  0.006518701423712563  0.999395120891186  1.0000
  Al  Al18      1.0  0.009771065370440408  0.008481298111517216  0.9992097693886149  1.0000
  Os  Os7       1.0  0.003976967574939943  0.005532376901616357  0.9999451621613675  1.0000
  Os  Os8       1.0  0.008023032567335137  0.009467623371656743  0.9998801876323025  1.0000
  Os  Os9       1.0  0.002976967351364816  0.005532377384645091  0.9996400474125867  1.0000
  Os  Os10      1.0  0.007023032851885299  0.009467622541036013  0.9995750728804621  1.0000
  Os  Os11      1.0  0.0019769675088836557  0.005532377179239946  0.999334932366612  1.0000
  Os  Os12      1.0  0.0060230326283101715  0.009467623024064748  0.9992699578358357  1.0000
