data_image0
_chemical_formula_structural       COBi9
_chemical_formula_sum              "C1 O1 Bi9"
_cell_length_a       4.6662373542785645
_cell_length_b       7.649406720587617
_cell_length_c       100.30757141113281
_cell_angle_alpha    93.025662661365
_cell_angle_beta     90.0
_cell_angle_gamma    107.75855422481678

_space_group_name_H-M_alt    "P 1"
_space_group_IT_number       1

loop_
  _space_group_symop_operation_xyz
  'x, y, z'

loop_
  _atom_site_type_symbol
  _atom_site_label
  _atom_site_symmetry_multiplicity
  _atom_site_fract_x
  _atom_site_fract_y
  _atom_site_fract_z
  _atom_site_occupancy
  C   C1        1.0  0.007298420218611866  0.005152395808271749  0.00023323694356527534  1.0000
  O   O1        1.0  0.007298420218611866  0.005152395808271749  0.00035286923203441107  1.0000
  Bi  Bi1       1.0  0.0027777779887750357  0.006111111532218572  0.9994740132780833  1.0000
  Bi  Bi2       1.0  0.00944444455946078  0.009444444489969575  0.9998097314016863  1.0000
  Bi  Bi3       1.0  0.006111111217591485  0.0027777778062309847  0.9991382948542786  1.0000
  Bi  Bi4       1.0  0.0038888890850000933  0.008333333674771815  3.354353382468356e-05  1.0000
  Bi  Bi5       1.0  0.0005555556400398025  0.001666666734954363  0.9993621069853863  1.0000
  Bi  Bi6       1.0  0.007222222416907536  0.005000000204863089  0.9996978254081602  1.0000
  Bi  Bi7       1.0  0.005000000082295148  0.0005555555356383107  0.9995859191159786  1.0000
  Bi  Bi8       1.0  0.0016666667113164242  0.003888888877507606  0.999921637538237  1.0000
  Bi  Bi9       1.0  0.008333333488184158  0.007222222347416332  0.9992502011459448  1.0000
