data_image0
_chemical_formula_structural       Ir12Rh4H
_chemical_formula_sum              "Ir12 Rh4 H1"
_cell_length_a       4.745000979324404
_cell_length_b       5.480545520782471
_cell_length_c       105.8294448852539
_cell_angle_alpha    90.0
_cell_angle_beta     92.55214571420767
_cell_angle_gamma    90.0

_space_group_name_H-M_alt    "P 1"
_space_group_IT_number       1

loop_
  _space_group_symop_operation_xyz
  'x, y, z'

loop_
  _atom_site_type_symbol
  _atom_site_label
  _atom_site_symmetry_multiplicity
  _atom_site_fract_x
  _atom_site_fract_y
  _atom_site_fract_z
  _atom_site_occupancy
  Ir  Ir1       1.0  0.009068148195202994  0.00750000032627032  0.9995905269773957  1.0000
  Ir  Ir2       1.0  0.005943705539457433  0.0024904918779027727  0.9997986061107308  1.0000
  Ir  Ir3       1.0  0.0021931486588706623  0.002500000278689232  0.9993789278552682  1.0000
  Ir  Ir4       1.0  0.002811561285159275  0.007492653806221705  5.613278020513603e-06  1.0000
  Ir  Ir5       1.0  0.009068148195202994  0.002500000278689232  0.9995905269773957  1.0000
  Ir  Ir6       1.0  0.005943706325334836  0.007509508387191863  0.9997986061122998  1.0000
  Ir  Ir7       1.0  0.0021931486588706623  0.00750000032627032  0.9993789278552682  1.0000
  Ir  Ir8       1.0  0.002811560892220573  0.002507343739953593  5.613277236012056e-06  1.0000
  Ir  Ir9       1.0  0.004068148603859244  0.005000000217513547  0.9995905268937294  1.0000
  Ir  Ir10      1.0  0.0009318512821885324  1.4499999590994313e-09  0.9997990013905964  1.0000
  Ir  Ir11      1.0  0.007193148446683763  4.4999999010086176e-10  0.9993789276577196  1.0000
  Ir  Ir12      1.0  0.00781241748287265  0.004999998858053878  3.880372203774175e-06  1.0000
  Rh  Rh1       1.0  0.007193148446683763  0.005000000217513547  0.9993789276577196  1.0000
  Rh  Rh2       1.0  0.004068148603859244  4.4999999010086176e-10  0.9995905268937294  1.0000
  Rh  Rh3       1.0  0.007826254426313016  0.009999999075567426  9.038315671807811e-06  1.0000
  Rh  Rh4       1.0  0.0009416980313481844  0.00499999987764863  0.9997967253885901  1.0000
  H   H1        1.0  0.006150077731448314  0.00749755057994767  0.00014791467786994412  1.0000
