data_image0
_chemical_formula_structural       COAu20Se20
_chemical_formula_sum              "C1 O1 Au20 Se20"
_cell_length_a       12.198834126555372
_cell_length_b       12.806639880178176
_cell_length_c       102.61502075195312
_cell_angle_alpha    110.81286281530386
_cell_angle_beta     111.28763528496229
_cell_angle_gamma    46.90243990526869

_space_group_name_H-M_alt    "P 1"
_space_group_IT_number       1

loop_
  _space_group_symop_operation_xyz
  'x, y, z'

loop_
  _atom_site_type_symbol
  _atom_site_label
  _atom_site_symmetry_multiplicity
  _atom_site_fract_x
  _atom_site_fract_y
  _atom_site_fract_z
  _atom_site_occupancy
  C   C1        1.0  0.00330791852576123  0.0011384601597199482  0.0002428790561903837  1.0000
  O   O1        1.0  0.00330791852576123  0.0011384601597199482  0.00035982123707930266  1.0000
  Au  Au1       1.0  0.005063818119720544  0.00013668034927275145  0.9995497744383192  1.0000
  Au  Au2       1.0  0.009063818125226735  0.00813667997722174  0.9997616668322454  1.0000
  Au  Au3       1.0  0.0010638182016437072  0.0021366803854793964  0.9993378819635705  1.0000
  Au  Au4       1.0  0.003184512008875925  0.006029949042602555  0.9999677930039239  1.0000
  Au  Au5       1.0  0.007063818466230451  0.00413668038386573  0.999125989460177  1.0000
  Au  Au6       1.0  0.0050638180425949374  0.005136680483913061  0.9995497744061096  1.0000
  Au  Au7       1.0  0.009063818234380213  0.003136680283818399  0.9997616668854037  1.0000
  Au  Au8       1.0  0.001063818121177665  0.007136680280591066  0.999337881920595  1.0000
  Au  Au9       1.0  0.0029597986083273534  0.0008427481361150003  5.9433466939056734e-05  1.0000
  Au  Au10      1.0  0.00706381874219472  0.009136680480685729  0.9991259894415295  1.0000
  Au  Au11      1.0  0.0020638180080506793  0.009136680480685729  0.9996557206269948  1.0000
  Au  Au12      1.0  0.006128658476243382  0.007024612747119489  0.999865676358826  1.0000
  Au  Au13      1.0  0.008063818144731196  0.0011366803862862297  0.9994438281836693  1.0000
  Au  Au14      1.0  0.0002145939628888633  0.004324583390650772  5.0814429453886954e-05  1.0000
  Au  Au15      1.0  0.004063818155721923  0.003136680283818399  0.9992319356997098  1.0000
  Au  Au16      1.0  0.004063818702054196  0.00813667997722174  0.9992319356748418  1.0000
  Au  Au17      1.0  0.008063817967985717  0.006136680180543736  0.9994438281320661  1.0000
  Au  Au18      1.0  0.009528987054620876  0.00022258604783687602  0.9999182442936835  1.0000
  Au  Au19      1.0  0.0020638180598292854  0.00413668038386573  0.9996557206597876  1.0000
  Au  Au20      1.0  0.006158887519864572  0.002030861977723242  0.9999210594673407  1.0000
  Se  Se1       1.0  0.002342230024514856  0.0019333638367962879  0.9995967272879125  1.0000
  Se  Se2       1.0  0.00637283493051873  0.009863319403130276  0.9998090574354306  1.0000
  Se  Se3       1.0  0.00834222999004616  0.0039333640368909495  0.9993848347805566  1.0000
  Se  Se4       1.0  0.0004907518943900913  0.008154943456088698  1.828154753133856e-05  1.0000
  Se  Se5       1.0  0.004342230068628888  0.005933363833568955  0.999172942295042  1.0000
  Se  Se6       1.0  0.004785406676020246  0.007339996627565846  0.9996087677859095  1.0000
  Se  Se7       1.0  0.00880056945577524  0.005342952261312372  0.9998295553802499  1.0000
  Se  Se8       1.0  0.0007854064842349705  0.009339996827660508  0.9993968753066154  1.0000
  Se  Se9       1.0  0.00230597706398647  0.002968902927186095  0.0002311788665595062  1.0000
  Se  Se10      1.0  0.006785406553323487  0.0013399968341151743  0.9991849828648449  1.0000
  Se  Se11      1.0  0.003441696937074984  0.008660182476520248  0.9999102418249655  1.0000
  Se  Se12      1.0  0.007342230379137416  0.0069333639336162855  0.9990669960555093  1.0000
  Se  Se13      1.0  0.009342229803730907  0.0009333638376031211  0.9997026735009386  1.0000
  Se  Se14      1.0  0.0013422300858632358  0.004933363733521624  0.9992788885487199  1.0000
  Se  Se15      1.0  0.005342230335023383  0.0029333639368436188  0.9994907810483796  1.0000
  Se  Se16      1.0  0.001785406095143715  0.006339996930935172  0.9997147140316627  1.0000
  Se  Se17      1.0  0.005882892163617498  0.004202329990022635  2.9151303027620143e-05  1.0000
  Se  Se18      1.0  0.007785406060675018  0.008339997131029835  0.9995028215243068  1.0000
  Se  Se19      1.0  0.009785406863832013  0.002339996934162505  0.9990790366253121  1.0000
  Se  Se20      1.0  0.0037854061583249576  0.0003399968601355485  0.9992909291063216  1.0000
