data_image0
_chemical_formula_structural       HY24
_chemical_formula_sum              "H1 Y24"
_cell_length_a       7.3755895514959615
_cell_length_b       12.106615062786604
_cell_length_c       106.87794494628906
_cell_angle_alpha    98.76052520482271
_cell_angle_beta     120.00000132787692
_cell_angle_gamma    98.76052499778086

_space_group_name_H-M_alt    "P 1"
_space_group_IT_number       1

loop_
  _space_group_symop_operation_xyz
  'x, y, z'

loop_
  _atom_site_type_symbol
  _atom_site_label
  _atom_site_symmetry_multiplicity
  _atom_site_fract_x
  _atom_site_fract_y
  _atom_site_fract_z
  _atom_site_occupancy
  H   H1        1.0  0.006809686224778572  0.008379605477207057  0.00043142346675399207  1.0000
  Y   Y1        1.0  0.0027083331572234142  0.008749999896620893  0.00024440850579690105  1.0000
  Y   Y2        1.0  0.00020833316368460797  0.0037499999095432814  7.188484823147358e-05  1.0000
  Y   Y3        1.0  0.004791666661863149  0.006249999741552232  0.00027316245575229265  1.0000
  Y   Y4        1.0  0.002291666789471734  0.001249999996769403  0.0001006388065471817  1.0000
  Y   Y5        1.0  0.0027083331572234142  0.008749999896620893  0.999899360799392  1.0000
  Y   Y6        1.0  0.00020833316368460797  0.0037499999095432814  0.9997268371418266  1.0000
  Y   Y7        1.0  0.004791666661863149  0.006249999741552232  0.9999281147493474  1.0000
  Y   Y8        1.0  0.002291666789471734  0.001249999996769403  0.9997555911001423  1.0000
  Y   Y9        1.0  0.0027083331572234142  0.008749999896620893  0.999554313650676  1.0000
  Y   Y10       1.0  0.00020833316368460797  0.0037499999095432814  0.9993817899931107  1.0000
  Y   Y11       1.0  0.004791666661863149  0.006249999741552232  0.9995830676006315  1.0000
  Y   Y12       1.0  0.002291666789471734  0.001249999996769403  0.9994105439514264  1.0000
  Y   Y13       1.0  0.00770833323887428  0.008749999896620893  0.00024440831900001244  1.0000
  Y   Y14       1.0  0.005208333245335474  0.0037499999095432814  7.188466143458498e-05  1.0000
  Y   Y15       1.0  0.009791666451903783  0.006249999741552232  0.0002731622588934709  1.0000
  Y   Y16       1.0  0.007291666579512367  0.001249999996769403  0.00010063860968835995  1.0000
  Y   Y17       1.0  0.00770833323887428  0.008749999896620893  0.9998993608914396  1.0000
  Y   Y18       1.0  0.005208333245335474  0.0037499999095432814  0.9997268372338742  1.0000
  Y   Y19       1.0  0.009791666451903783  0.006249999741552232  0.999928114831333  1.0000
  Y   Y20       1.0  0.007291666579512367  0.001249999996769403  0.999755591182128  1.0000
  Y   Y21       1.0  0.00770833323887428  0.008749999896620893  0.9995543137427236  1.0000
  Y   Y22       1.0  0.005208333245335474  0.0037499999095432814  0.9993817900851583  1.0000
  Y   Y23       1.0  0.009791666451903783  0.006249999741552232  0.9995830676826171  1.0000
  Y   Y24       1.0  0.007291666579512367  0.001249999996769403  0.999410544033412  1.0000
