data_image0
_chemical_formula_structural       COCa30Zn18
_chemical_formula_sum              "C1 O1 Ca30 Zn18"
_cell_length_a       14.865649145775835
_cell_length_b       9.614171374089794
_cell_length_c       101.5010986328125
_cell_angle_alpha    90.7537606026446
_cell_angle_beta     93.44687378731616
_cell_angle_gamma    88.40258043147209

_space_group_name_H-M_alt    "P 1"
_space_group_IT_number       1

loop_
  _space_group_symop_operation_xyz
  'x, y, z'

loop_
  _atom_site_type_symbol
  _atom_site_label
  _atom_site_symmetry_multiplicity
  _atom_site_fract_x
  _atom_site_fract_y
  _atom_site_fract_z
  _atom_site_occupancy
  C   C1        1.0  0.0025570740106587225  0.000642236093140629  0.0001694579469975152  1.0000
  O   O1        1.0  0.0025570740106587225  0.000642236093140629  0.0002876829206745098  1.0000
  Ca  Ca1       1.0  0.00222222213627521  0.0072348122110050235  0.9996518990189822  1.0000
  Ca  Ca2       1.0  0.00676378097917851  0.0003451073063970747  0.9999999246784143  1.0000
  Ca  Ca3       1.0  0.007777777853679035  0.003901479187791436  0.9993070632226603  1.0000
  Ca  Ca4       1.0  0.0005555555340688025  0.007234812404644654  0.9991346454958241  1.0000
  Ca  Ca5       1.0  0.005000000120549055  0.000568146182404199  0.9994794813427406  1.0000
  Ca  Ca6       1.0  0.009444059138409218  0.0040035717696964195  0.9998212962355659  1.0000
  Ca  Ca7       1.0  0.009750959956239728  0.007529392843693548  0.9997065297531864  1.0000
  Ca  Ca8       1.0  0.0041234141008255586  0.0008817500101749635  3.740742645227887e-05  1.0000
  Ca  Ca9       1.0  0.005306515683689308  0.0041960594480470546  0.9993616940563183  1.0000
  Ca  Ca10      1.0  0.0017897919543904738  0.008527182695611679  0.999974295027958  1.0000
  Ca  Ca11      1.0  0.0029075018276040494  0.0019990184199158026  0.9992990111969308  1.0000
  Ca  Ca12      1.0  0.007351946351298336  0.005332351611286136  0.9996438471893716  1.0000
  Ca  Ca13      1.0  0.001013681312233048  0.009726433806885768  0.9994165616084509  1.0000
  Ca  Ca14      1.0  0.005484616365328317  0.0029958646394167574  0.9997628368335376  1.0000
  Ca  Ca15      1.0  0.00656923690406494  0.006393100013906877  0.9990717258100642  1.0000
  Ca  Ca16      1.0  0.0015485886138668446  0.0024555684356195344  0.9999837780313336  1.0000
  Ca  Ca17      1.0  0.0026480536386559094  0.005803940175022939  0.9993151153463694  1.0000
  Ca  Ca18      1.0  0.007092498162350196  0.009137273172636963  0.9996599513385689  1.0000
  Ca  Ca19      1.0  0.008986318301005398  0.001409858382715698  0.9995424009244754  1.0000
  Ca  Ca20      1.0  0.0034033401848862473  0.004829367311492242  0.9998811674843879  1.0000
  Ca  Ca21      1.0  0.0045418740284549775  0.00807652439805003  0.9991975650800654  1.0000
  Ca  Ca22      1.0  0.0013853322927083445  0.003606899226910428  0.9996050835910414  1.0000
  Ca  Ca23      1.0  0.005747815639057225  0.006882861177049156  0.9999375103597078  1.0000
  Ca  Ca24      1.0  0.00694088763339637  0.0002735659772812334  0.9992602477911202  1.0000
  Ca  Ca25      1.0  0.00919718069994832  0.0003513945820064539  0.9999377286428999  1.0000
  Ca  Ca26      1.0  0.0002490400023215337  0.003606899331443123  0.9992524327827628  1.0000
  Ca  Ca27      1.0  0.0046934845574088035  0.006940232715254783  0.9995972684821041  1.0000
  Ca  Ca28      1.0  0.0030591121054140092  0.0008627262632496375  0.9996987148897832  1.0000
  Ca  Ca29      1.0  0.007561673077679754  0.004183263096825035  3.1585628486112955e-05  1.0000
  Ca  Ca30      1.0  0.008614667571673968  0.007529392952171188  0.9993538789440833  1.0000
  Zn  Zn1       1.0  0.0008333333324961871  0.0005681461939473376  0.9997381084472  1.0000
  Zn  Zn2       1.0  0.0019444444634197588  0.0039014794898523577  0.9990484365104666  1.0000
  Zn  Zn3       1.0  0.006388888987114046  0.007234812487466383  0.9993932722090503  1.0000
  Zn  Zn4       1.0  0.009166666720244025  0.0005681461787509492  0.9992208545302481  1.0000
  Zn  Zn5       1.0  0.0036111110028402  0.0039014792988426913  0.9995656903266908  1.0000
  Zn  Zn6       1.0  0.007940355835255796  0.0072739395941344535  0.9999006567853502  1.0000
  Zn  Zn7       1.0  0.0012943849366979228  0.005507748912633994  0.9998646409291069  1.0000
  Zn  Zn8       1.0  0.0023867587888619615  0.008901479395984334  0.9991857095708957  1.0000
  Zn  Zn9       1.0  0.006831203061412382  0.002234812605624772  0.9995305454143399  1.0000
  Zn  Zn10      1.0  0.004903857225813262  0.0014527746900699042  0.9991750966117277  1.0000
  Zn  Zn11      1.0  0.009348302000651414  0.004786107677164079  0.9995199326061255  1.0000
  Zn  Zn12      1.0  0.0037662086643717556  0.008127553104461145  0.9998627658161671  1.0000
  Zn  Zn13      1.0  0.0051179749515457085  0.009691542511027156  0.9997939553845993  1.0000
  Zn  Zn14      1.0  0.006207254208994387  0.0030168506773790896  0.9990941941372075  1.0000
  Zn  Zn15      1.0  0.0006516984288045957  0.006350184090735256  0.9994390299334627  1.0000
  Zn  Zn16      1.0  0.003168796928541863  0.008901478793171687  0.9994284171209182  1.0000
  Zn  Zn17      1.0  0.007636897697538754  0.0022084826042612707  0.9997825775306703  1.0000
  Zn  Zn18      1.0  0.008724352143657957  0.005568145790997803  0.9990835810265839  1.0000
