data_image0
_chemical_formula_structural       HSb8V12
_chemical_formula_sum              "H1 Sb8 V12"
_cell_length_a       5.544148921966553
_cell_length_b       7.579563691045594
_cell_length_c       102.73820495605469
_cell_angle_alpha    90.92950302648282
_cell_angle_beta     90.0
_cell_angle_gamma    111.45252018722802

_space_group_name_H-M_alt    "P 1"
_space_group_IT_number       1

loop_
  _space_group_symop_operation_xyz
  'x, y, z'

loop_
  _atom_site_type_symbol
  _atom_site_label
  _atom_site_symmetry_multiplicity
  _atom_site_fract_x
  _atom_site_fract_y
  _atom_site_fract_z
  _atom_site_occupancy
  H   H1        1.0  0.007115838173445064  0.0009967433491399925  0.0001598644684071067  1.0000
  Sb  Sb1       1.0  0.008418566631946156  0.006399802004796503  0.9999392513983679  1.0000
  Sb  Sb2       1.0  0.005822865013733045  0.0012246259227945463  0.9998289787038255  1.0000
  Sb  Sb3       1.0  0.0014835313186307843  0.0025399241208522833  6.862401942014366e-05  1.0000
  Sb  Sb4       1.0  0.0024707305862446834  0.004510402353633123  0.9997357284395366  1.0000
  Sb  Sb5       1.0  0.004499434873267589  0.008567810927678934  0.9994817176143354  1.0000
  Sb  Sb6       1.0  0.0013250945192592642  0.002219130219662284  0.9993805651611709  1.0000
  Sb  Sb7       1.0  0.007639513183335003  0.004847967591489333  0.9995817784250137  1.0000
  Sb  Sb8       1.0  0.00818501616551628  0.005938973555851886  0.9992805046405727  1.0000
  V   V1        1.0  0.001495019902241665  0.007843670723751481  0.9997046365500816  1.0000
  V   V2        1.0  0.0034597485374531557  0.006484118448116468  0.999960271734288  1.0000
  V   V3        1.0  0.006779709388391612  0.007843670723751481  0.9997046365500816  1.0000
  V   V4        1.0  0.007090135570167671  0.00936792270666119  1.0795549125284504e-05  1.0000
  V   V5        1.0  0.002705344298000563  0.00936796073390898  1.1211569689779884e-05  1.0000
  V   V6        1.0  0.0005258273386652319  0.0006320390680324364  0.9998163715654201  1.0000
  V   V7        1.0  0.007209305691491966  0.009272241925970244  0.999249413041198  1.0000
  V   V8        1.0  0.00947417261130379  0.008517286447426907  0.9994899844799047  1.0000
  V   V9        1.0  0.0024939951373260027  0.009272241925970244  0.999249413041198  1.0000
  V   V10       1.0  0.003330534273172806  0.0015146990893319203  0.9996128703143108  1.0000
  V   V11       1.0  0.008615223759322752  0.0015146990893319203  0.9996128703143108  1.0000
  V   V12       1.0  0.006350356737547492  0.0022696546999143117  0.9993722982956016  1.0000
