data_image0
_chemical_formula_structural       COAu8Ca4Si8
_chemical_formula_sum              "C1 O1 Au8 Ca4 Si8"
_cell_length_a       5.959168634751873
_cell_length_b       6.2291107177734375
_cell_length_c       101.90670776367188
_cell_angle_alpha    90.0
_cell_angle_beta     92.97566489799847
_cell_angle_gamma    90.0

_space_group_name_H-M_alt    "P 1"
_space_group_IT_number       1

loop_
  _space_group_symop_operation_xyz
  'x, y, z'

loop_
  _atom_site_type_symbol
  _atom_site_label
  _atom_site_symmetry_multiplicity
  _atom_site_fract_x
  _atom_site_fract_y
  _atom_site_fract_z
  _atom_site_occupancy
  C   C1        1.0  0.00667019115904802  0.006666663174082199  0.00014082067692735344  1.0000
  O   O1        1.0  0.00667019115904802  0.006666663174082199  0.0002585756763972989  1.0000
  Au  Au1       1.0  0.008816831595853412  0.0025000004844166813  0.9993966101421483  1.0000
  Au  Au2       1.0  0.006316831746088597  0.007500000406670795  0.9996575243612407  1.0000
  Au  Au3       1.0  0.0013168315770740147  0.007500000406670795  0.9991356956193099  1.0000
  Au  Au4       1.0  0.003426480825142912  0.002663959234324439  0.9999075706944683  1.0000
  Au  Au5       1.0  0.008816831595853412  0.007500000406670795  0.9993966101421483  1.0000
  Au  Au6       1.0  0.006316831746088597  0.0025000004844166813  0.9996575243612407  1.0000
  Au  Au7       1.0  0.0013168315770740147  0.0025000004844166813  0.9991356956193099  1.0000
  Au  Au8       1.0  0.003426480825142912  0.007336038517025288  0.9999075706944683  1.0000
  Ca  Ca1       1.0  0.006316831746088597  0.005000000370788077  0.9991356957718955  1.0000
  Ca  Ca2       1.0  0.003816831583333814  4.999999873916621e-10  0.9993966099900378  1.0000
  Ca  Ca3       1.0  0.008741698980251646  0.00999999296698744  0.9999094056589128  1.0000
  Ca  Ca4       1.0  0.0013168315770740147  0.005000000370788077  0.9996575242086551  1.0000
  Si  Si1       1.0  0.00554146983854405  0.005000000370788077  0.9994566078325652  1.0000
  Si  Si2       1.0  0.0030843020397851614  0.009999998947440298  0.9997229330839282  1.0000
  Si  Si3       1.0  0.0080414703142888  4.999999873916621e-10  0.9991956933229259  1.0000
  Si  Si4       1.0  0.0004078069128786969  0.004999997978606935  1.2379514853495895e-06  1.0000
  Si  Si5       1.0  0.0020921931716285946  0.005000000370788077  0.9993366124394824  1.0000
  Si  Si6       1.0  0.00959219350339796  4.999999873916621e-10  0.9995975266708238  1.0000
  Si  Si7       1.0  0.004592193177888394  4.999999873916621e-10  0.999075697928418  1.0000
  Si  Si8       1.0  0.007114688242562437  0.00499999648349372  0.9998622080462711  1.0000
