data_image0
_chemical_formula_structural       COZn8Cu4Au4
_chemical_formula_sum              "C1 O1 Zn8 Cu4 Au4"
_cell_length_a       4.749264240264893
_cell_length_b       7.234690766928035
_cell_length_c       98.93875885009766
_cell_angle_alpha    77.99416682562092
_cell_angle_beta     90.0
_cell_angle_gamma    90.0

_space_group_name_H-M_alt    "P 1"
_space_group_IT_number       1

loop_
  _space_group_symop_operation_xyz
  'x, y, z'

loop_
  _atom_site_type_symbol
  _atom_site_label
  _atom_site_symmetry_multiplicity
  _atom_site_fract_x
  _atom_site_fract_y
  _atom_site_fract_z
  _atom_site_occupancy
  C   C1        1.0  0.0013330846746937152  0.004456660145885802  0.999932212455291  1.0000
  O   O1        1.0  0.0013330846746937152  0.004456660145885802  5.349924778278864e-05  1.0000
  Zn  Zn1       1.0  0.008666915917523107  0.0012951013072445947  0.9995915197994331  1.0000
  Zn  Zn2       1.0  0.008620574755101166  0.006258894653942371  0.9992328116165834  1.0000
  Zn  Zn3       1.0  0.008620574755101166  0.008762710258332421  0.9994158980069607  1.0000
  Zn  Zn4       1.0  0.008424945536760353  0.0036131554648214754  0.9998168535464254  1.0000
  Zn  Zn5       1.0  0.0022441823113774203  0.0012588949171601124  0.999232811570409  1.0000
  Zn  Zn6       1.0  0.002197663287810586  0.006295128155454293  0.9995915269637294  1.0000
  Zn  Zn7       1.0  0.0022441823113774203  0.0037627102583324213  0.9994158979647899  1.0000
  Zn  Zn8       1.0  0.002439774271044  0.008613122036168224  0.9998168474702215  1.0000
  Cu  Cu1       1.0  0.007292623835471117  0.002510802719355138  0.9993243549162075  1.0000
  Cu  Cu2       1.0  0.0074161430078969436  0.007240644715008886  0.999709569986146  1.0000
  Cu  Cu3       1.0  0.0035721330349091844  0.007510802456137396  0.999324354962382  1.0000
  Cu  Cu4       1.0  0.003448694654976958  0.002240661297726641  0.9997095570405101  1.0000
  Au  Au1       1.0  0.0036531239799751586  1.080269981944579e-05  0.9995071622364865  1.0000
  Au  Au2       1.0  0.003376645791727029  0.004989101206168982  0.9998513228263156  1.0000
  Au  Au3       1.0  0.007488053817953923  0.009989196490991637  0.9998513202142874  1.0000
  Au  Au4       1.0  0.007211632890405143  0.005010802456137396  0.9995071619811439  1.0000
