data_image0
_chemical_formula_structural       COAl8Au8Al8Au8Al8Au8
_chemical_formula_sum              "C1 O1 Al24 Au24"
_cell_length_a       13.339258584456337
_cell_length_b       14.682399264946213
_cell_length_c       104.29175567626953
_cell_angle_alpha    90.0
_cell_angle_beta     75.10348892297031
_cell_angle_gamma    29.881895373983706

_space_group_name_H-M_alt    "P 1"
_space_group_IT_number       1

loop_
  _space_group_symop_operation_xyz
  'x, y, z'

loop_
  _atom_site_type_symbol
  _atom_site_label
  _atom_site_symmetry_multiplicity
  _atom_site_fract_x
  _atom_site_fract_y
  _atom_site_fract_z
  _atom_site_occupancy
  C   C1        1.0  0.0007865610213176418  0.009048670146969319  0.9999156990834251  1.0000
  O   O1        1.0  0.0007865610213176418  0.009048670146969319  3.076114409213556e-05  1.0000
  Al  Al1       1.0  0.001114771638390344  0.0018044388314415382  0.9988381501629358  1.0000
  Al  Al2       1.0  0.0061147712916084064  0.0018044388314415382  0.9990025530540514  1.0000
  Al  Al3       1.0  0.004213439249385076  0.008210171589716707  0.9989006670505215  1.0000
  Al  Al4       1.0  0.009213438324633243  0.008210171589716707  0.9990650699606412  1.0000
  Al  Al5       1.0  0.007965528720856865  0.00681392171896681  0.998941699033076  1.0000
  Al  Al6       1.0  0.002965528489668906  0.00681392171896681  0.9991061020575552  1.0000
  Al  Al7       1.0  0.007362682051324575  0.0032006887021914345  0.9991259239436086  1.0000
  Al  Al8       1.0  0.0023626818201366176  0.0032006887021914345  0.9989615210714969  1.0000
  Au  Au1       1.0  0.006480754748115165  0.005228894073969153  0.998990519297176  1.0000
  Au  Au2       1.0  0.0014807550948971026  0.005228894073969153  0.9988261164060603  1.0000
  Au  Au3       1.0  0.008847454868126483  0.0047857163471890915  0.9990771037175166  1.0000
  Au  Au4       1.0  0.0038474552149084205  0.0047857163471890915  0.9989127008264009  1.0000
  Au  Au5       1.0  0.0011388367732279314  0.009975478883585038  0.9988373588867819  1.0000
  Au  Au6       1.0  0.00613883700441589  0.009975478883585038  0.9990017617588937  1.0000
  Au  Au7       1.0  0.004189373453994647  3.913105279913621e-05  0.9989014583483946  1.0000
  Au  Au8       1.0  0.00918937310721271  3.913105279913621e-05  0.9990658612395104  1.0000
  Al  Al9       1.0  0.001114771638390344  0.0018044388314415382  0.9991669560595267  1.0000
  Al  Al10      1.0  0.0061147712916084064  0.0018044388314415382  0.9993313589506424  1.0000
  Al  Al11      1.0  0.004213439249385076  0.008210171589716707  0.9992294729471124  1.0000
  Al  Al12      1.0  0.009213438324633243  0.008210171589716707  0.9993938764287503  1.0000
  Al  Al13      1.0  0.007965528720856865  0.00681392171896681  0.999270504929667  1.0000
  Al  Al14      1.0  0.002965528489668906  0.00681392171896681  0.9994349079541461  1.0000
  Al  Al15      1.0  0.007362682051324575  0.0032006887021914345  0.9994547304117178  1.0000
  Al  Al16      1.0  0.0023626818201366176  0.0032006887021914345  0.9992903269680878  1.0000
  Au  Au9       1.0  0.006480754748115165  0.005228894073969153  0.999319325193767  1.0000
  Au  Au10      1.0  0.0014807550948971026  0.005228894073969153  0.9991549223026512  1.0000
  Au  Au11      1.0  0.008847454868126483  0.0047857163471890915  0.9994059101856257  1.0000
  Au  Au12      1.0  0.0038474552149084205  0.0047857163471890915  0.9992415067229918  1.0000
  Au  Au13      1.0  0.0011388367732279314  0.009975478883585038  0.999166164783373  1.0000
  Au  Au14      1.0  0.00613883700441589  0.009975478883585038  0.9993305676554846  1.0000
  Au  Au15      1.0  0.004189373453994647  3.913105279913621e-05  0.9992302642449856  1.0000
  Au  Au16      1.0  0.00918937310721271  3.913105279913621e-05  0.9993946677076195  1.0000
  Al  Al17      1.0  0.001114771638390344  0.0018044388314415382  0.9994957619561176  1.0000
  Al  Al18      1.0  0.005694284725043691  0.0021323266549731173  0.9996645274995805  1.0000
  Al  Al19      1.0  0.004154382042596163  0.008214539296370523  0.9995678007272379  1.0000
  Al  Al20      1.0  0.009202255445888109  0.008363543476719684  0.9996917799739946  1.0000
  Al  Al21      1.0  0.00782086128545921  0.007003679095930272  0.9996063902291106  1.0000
  Al  Al22      1.0  0.00235649156786433  0.007811978311281022  0.9997218182042061  1.0000
  Al  Al23      1.0  0.005994494676245217  0.003862879741585101  0.9997447899915952  1.0000
  Al  Al24      1.0  0.002452937449725909  0.003143807682685001  0.9996162337873133  1.0000
  Au  Au17      1.0  0.006356438786222685  0.005326342998667124  0.9996602159294798  1.0000
  Au  Au18      1.0  0.0014807550948971026  0.005228894073969153  0.9994837281992422  1.0000
  Au  Au19      1.0  0.009113895415815637  0.004652537490711642  0.9997003296196265  1.0000
  Au  Au20      1.0  0.0035924961525812134  0.005074216816074638  0.9996072431654517  1.0000
  Au  Au21      1.0  0.0011388367732279314  0.009975478883585038  0.9994949706799638  1.0000
  Au  Au22      1.0  0.005924099395771157  0.00017958105352490405  0.999658137523351  1.0000
  Au  Au23      1.0  0.004080161253648599  2.4520949796318013e-05  0.9995801672810407  1.0000
  Au  Au24      1.0  0.008197028653009876  0.0008246563543331474  0.9997753192192526  1.0000
