data_image0
_chemical_formula_structural       COAu10Pd20Zn10
_chemical_formula_sum              "C1 O1 Au10 Pd20 Zn10"
_cell_length_a       13.530287814378404
_cell_length_b       4.510096073150635
_cell_length_c       102.20852661132812
_cell_angle_alpha    90.0
_cell_angle_beta     81.95053314981686
_cell_angle_gamma    90.0

_space_group_name_H-M_alt    "P 1"
_space_group_IT_number       1

loop_
  _space_group_symop_operation_xyz
  'x, y, z'

loop_
  _atom_site_type_symbol
  _atom_site_label
  _atom_site_symmetry_multiplicity
  _atom_site_fract_x
  _atom_site_fract_y
  _atom_site_fract_z
  _atom_site_occupancy
  C   C1        1.0  0.004199213890737544  0.005000000016519782  0.999948741340536  1.0000
  O   O1        1.0  0.004199213890737544  0.005000000016519782  6.614861286985485e-05  1.0000
  Au  Au1       1.0  0.009500000195760845  4.999999816744156e-11  0.9991096971506784  1.0000
  Au  Au2       1.0  0.004833333598796904  4.999999816744156e-11  0.9993197808632804  1.0000
  Au  Au3       1.0  0.0041666667037425845  4.999999816744156e-11  0.9988996133580823  1.0000
  Au  Au4       1.0  0.00016666670638424344  4.999999816744156e-11  0.9995298648729427  1.0000
  Au  Au5       1.0  0.005530690455441522  4.999999816744156e-11  0.999752287002599  1.0000
  Au  Au6       1.0  0.002166666713753082  0.005000000016519782  0.9992147392611432  1.0000
  Au  Au7       1.0  0.007500000066736652  0.005000000016519782  0.999424822764733  1.0000
  Au  Au8       1.0  0.006833333171682333  0.005000000016519782  0.9990046552595349  1.0000
  Au  Au9       1.0  0.0027365522554567982  0.005000000016519782  0.9996557930891258  1.0000
  Au  Au10      1.0  0.00816689720323955  0.005000000016519782  0.9998486118431138  1.0000
  Pd  Pd1       1.0  0.009352059498412309  0.010000000033039564  0.9997845176525071  1.0000
  Pd  Pd2       1.0  0.00799999995995801  4.999999816744156e-11  0.9989521345474948  1.0000
  Pd  Pd3       1.0  0.004004780548800224  0.010000000033039564  0.9995773096178109  1.0000
  Pd  Pd4       1.0  0.0033333333629940675  4.999999816744156e-11  0.9991622182600969  1.0000
  Pd  Pd5       1.0  0.008666666855012328  4.999999816744156e-11  0.9993723020526929  1.0000
  Pd  Pd6       1.0  0.008966574138226947  0.005000000016519782  0.9995844803947402  1.0000
  Pd  Pd7       1.0  0.004380251240180547  0.005000000016519782  0.9997775925817171  1.0000
  Pd  Pd8       1.0  0.0036666668105212272  0.005000000016519782  0.9993723021584876  1.0000
  Pd  Pd9       1.0  0.0029999999154669077  0.005000000016519782  0.998952134361706  1.0000
  Pd  Pd10      1.0  0.008333333407485169  0.005000000016519782  0.9991622181543021  1.0000
  Pd  Pd11      1.0  0.0013333333730045653  0.005000000016519782  0.9994773435799906  1.0000
  Pd  Pd12      1.0  0.006669453537337965  0.005000000016519782  0.9996839735200338  1.0000
  Pd  Pd13      1.0  0.0059999998309338155  0.005000000016519782  0.9992672601615493  1.0000
  Pd  Pd14      1.0  0.005333333492018261  0.005000000016519782  0.9988470926460422  1.0000
  Pd  Pd15      1.0  0.0006666666865022827  0.005000000016519782  0.9990571763625102  1.0000
  Pd  Pd16      1.0  0.0016096333998665126  0.010000000033039564  0.9996905356941199  1.0000
  Pd  Pd17      1.0  0.0003333333084924685  4.999999816744156e-11  0.9988470924628308  1.0000
  Pd  Pd18      1.0  0.006333333278460976  4.999999816744156e-11  0.9994773440599402  1.0000
  Pd  Pd19      1.0  0.0056666669395454205  4.999999816744156e-11  0.9990571762528495  1.0000
  Pd  Pd20      1.0  0.0009999999949947512  4.999999816744156e-11  0.9992672599718947  1.0000
  Zn  Zn1       1.0  0.0018333332662259225  4.999999816744156e-11  0.9990046553627524  1.0000
  Zn  Zn2       1.0  0.007166666619209492  4.999999816744156e-11  0.9992147391579257  1.0000
  Zn  Zn3       1.0  0.0032458521791705764  4.999999816744156e-11  0.9998163734838504  1.0000
  Zn  Zn4       1.0  0.0025000000222455505  4.999999816744156e-11  0.9994248228705278  1.0000
  Zn  Zn5       1.0  0.00779466018070648  4.999999816744156e-11  0.9996432542838799  1.0000
  Zn  Zn6       1.0  0.00983333308714924  0.005000000016519782  0.9993197807677947  1.0000
  Zn  Zn7       1.0  0.005166666490185299  0.005000000016519782  0.9995298647719804  1.0000
  Zn  Zn8       1.0  0.004500000151269744  0.005000000016519782  0.9991096972564731  1.0000
  Zn  Zn9       1.0  0.00046469881133970325  0.005000000016519782  0.99973204108673  1.0000
  Zn  Zn10      1.0  0.009166666748233685  0.005000000016519782  0.9988996135438711  1.0000
