data_image0
_chemical_formula_structural       HIn2Au3In2Au3
_chemical_formula_sum              "H1 In4 Au6"
_cell_length_a       4.744083216006311
_cell_length_b       5.793778896331787
_cell_length_c       36.79141616821289
_cell_angle_alpha    90.0
_cell_angle_beta     60.0000020102869
_cell_angle_gamma    90.0

_space_group_name_H-M_alt    "P 1"
_space_group_IT_number       1

loop_
  _space_group_symop_operation_xyz
  'x, y, z'

loop_
  _atom_site_type_symbol
  _atom_site_label
  _atom_site_symmetry_multiplicity
  _atom_site_fract_x
  _atom_site_fract_y
  _atom_site_fract_z
  _atom_site_occupancy
  H   H1        1.0  0.008905394157268995  0.002453858101325179  0.9997379382986715  1.0000
  In  In1       1.0  0.004430727051329934  0.008230846647671462  0.9990940502178366  1.0000
  In  In2       1.0  0.007637121514188137  0.0017663206669658329  0.9995560405562497  1.0000
  Au  Au1       1.0  0.004389445524168474  0.0031413956964297988  0.9991044285440364  1.0000
  Au  Au2       1.0  0.007891010885440374  0.0068841458916902975  0.9994912453240073  1.0000
  Au  Au3       1.0  0.001094605040276437  0.004999999742807562  0.998664994544476  1.0000
  In  In3       1.0  0.00442793840836769  0.008260765200998976  0.9978053587461752  1.0000
  In  In4       1.0  0.007761271663117901  0.0017392346061066949  0.9982351766330708  1.0000
  Au  Au4       1.0  0.00442793840836769  0.0031533493579653732  0.9978053587461752  1.0000
  Au  Au5       1.0  0.007761271663117901  0.006846650449140298  0.9982351766330708  1.0000
  Au  Au6       1.0  0.001094605040276437  0.004999999742807562  0.9973755408665869  1.0000
