data_image0
_chemical_formula_structural       HCo12Sn24
_chemical_formula_sum              "H1 Co12 Sn24"
_cell_length_a       9.09987735748291
_cell_length_b       8.471009973875649
_cell_length_c       101.91326904296875
_cell_angle_alpha    97.04343358362954
_cell_angle_beta     90.0
_cell_angle_gamma    57.512282638849534

_space_group_name_H-M_alt    "P 1"
_space_group_IT_number       1

loop_
  _space_group_symop_operation_xyz
  'x, y, z'

loop_
  _atom_site_type_symbol
  _atom_site_label
  _atom_site_symmetry_multiplicity
  _atom_site_fract_x
  _atom_site_fract_y
  _atom_site_fract_z
  _atom_site_occupancy
  H   H1        1.0  0.0004710744449270851  0.008762325464502237  6.427222377285564e-05  1.0000
  Co  Co1       1.0  0.004166666445849343  0.001705131748463092  0.9996161208062776  1.0000
  Co  Co2       1.0  0.007499999672632801  0.005038464770892238  0.9992681858174867  1.0000
  Co  Co3       1.0  0.000649158255286508  0.00840615784378339  0.9999415553195912  1.0000
  Co  Co4       1.0  0.005981186736640874  0.008400791321345913  0.9999413427111545  1.0000
  Co  Co5       1.0  0.009166666183847373  0.001705131748463092  0.9996161208062776  1.0000
  Co  Co6       1.0  0.0024999999346347703  0.005038464770892238  0.9992681858174867  1.0000
  Co  Co7       1.0  0.007530555758636878  0.004983232905589877  0.9997845112175082  1.0000
  Co  Co8       1.0  0.0008333332258116037  0.008371798188538572  0.9994421531473973  1.0000
  Co  Co9       1.0  0.004166666445849343  0.001705131748463092  0.9990942181991761  1.0000
  Co  Co10      1.0  0.005833332963809634  0.008371798188538572  0.9994421531473973  1.0000
  Co  Co11      1.0  0.009166666183847373  0.001705131748463092  0.9990942181991761  1.0000
  Co  Co12      1.0  0.002528138858529984  0.004984471252774487  0.9997845396302315  1.0000
  Sn  Sn1       1.0  0.006656174022839096  0.005038464770892238  0.9995291368286092  1.0000
  Sn  Sn2       1.0  0.009989506233257806  0.008371798188538572  0.9991812021362747  1.0000
  Sn  Sn3       1.0  0.0033599650299931377  0.0017836042286830936  0.9998902743926361  1.0000
  Sn  Sn4       1.0  0.009457757568195412  0.0061181933820163336  0.999945560801651  1.0000
  Sn  Sn5       1.0  0.002781275285130151  0.009475913807899507  0.9995878560758117  1.0000
  Sn  Sn6       1.0  0.006114608307559297  0.002809247763041214  0.9992399214240469  1.0000
  Sn  Sn7       1.0  0.006677158613603339  0.008371798188538572  0.9997031047433763  1.0000
  Sn  Sn8       1.0  1.049266467857615e-05  0.001705131748463092  0.9993551695027268  1.0000
  Sn  Sn9       1.0  0.002916490477411314  0.005522614255749927  6.050257299182411e-05  1.0000
  Sn  Sn10      1.0  0.0005520580070552855  0.003934348888053178  0.9996443849086318  1.0000
  Sn  Sn11      1.0  0.003885391167969211  0.007267682042221386  0.9992964502136119  1.0000
  Sn  Sn12      1.0  0.0072567849127041185  0.0005240856216703531  5.3416336382189335e-06  1.0000
  Sn  Sn13      1.0  0.006597097951135177  0.005514866944980506  6.0094920747732016e-05  1.0000
  Sn  Sn14      1.0  0.009989506233257806  0.008371798188538572  0.9997031047433763  1.0000
  Sn  Sn15      1.0  0.003322840386677561  0.001705131748463092  0.9993551695027268  1.0000
  Sn  Sn16      1.0  0.006056066296310952  0.0029322841427853463  0.9997752810861388  1.0000
  Sn  Sn17      1.0  0.009447941468473223  0.006142580917209423  0.999413888751272  1.0000
  Sn  Sn18      1.0  0.002781275285130151  0.009475913807899507  0.9990659537611384  1.0000
  Sn  Sn19      1.0  0.009898068172707079  0.001783880222018387  0.9998907790125762  1.0000
  Sn  Sn20      1.0  0.0033438259938065526  0.005038464770892238  0.9995291368286092  1.0000
  Sn  Sn21      1.0  0.006677158613603339  0.008371798188538572  0.9991812021362747  1.0000
  Sn  Sn22      1.0  0.0038201203200300894  0.007393946555945486  0.9998453547190801  1.0000
  Sn  Sn23      1.0  0.00721872432213742  0.0006010157338849696  0.9994704175814066  1.0000
  Sn  Sn24      1.0  0.0005520580070552855  0.003934348888053178  0.9991224825939585  1.0000
