data_image0
_chemical_formula_structural       COCd12
_chemical_formula_sum              "C1 O1 Cd12"
_cell_length_a       6.059682369232178
_cell_length_b       5.312955379486084
_cell_length_c       100.67436218261719
_cell_angle_alpha    90.0
_cell_angle_beta     90.0
_cell_angle_gamma    90.0

_space_group_name_H-M_alt    "P 1"
_space_group_IT_number       1

loop_
  _space_group_symop_operation_xyz
  'x, y, z'

loop_
  _atom_site_type_symbol
  _atom_site_label
  _atom_site_symmetry_multiplicity
  _atom_site_fract_x
  _atom_site_fract_y
  _atom_site_fract_z
  _atom_site_occupancy
  C   C1        1.0  0.0025  0.0033333333333333335  0.00019866012054027142  1.0000
  O   O1        1.0  0.0025  0.0033333333333333335  0.0003178565480967505  1.0000
  Cd  Cd1       1.0  0.0075  0.0033333333333333335  0.9993906223475987  1.0000
  Cd  Cd2       1.0  0.0075  0.008333333333333333  0.9992382777124782  1.0000
  Cd  Cd3       1.0  0.0025  0.006666666666666667  0.9993906223475987  1.0000
  Cd  Cd4       1.0  0.0025  0.0016666666666666668  0.9992382777124782  1.0000
  Cd  Cd5       1.0  0.0075  0.0033333333333333335  0.9996953110257859  1.0000
  Cd  Cd6       1.0  0.0075  0.008333333333333333  0.9995429666866923  1.0000
  Cd  Cd7       1.0  0.0025  0.006666666666666667  0.9996953110257859  1.0000
  Cd  Cd8       1.0  0.0025  0.0016666666666666668  0.9995429666866923  1.0000
  Cd  Cd9       1.0  0.0075  0.0033333333333333335  0.0  1.0000
  Cd  Cd10      1.0  0.0075  0.008333333333333333  0.9998476556609064  1.0000
  Cd  Cd11      1.0  0.0025  0.006666666666666667  0.0  1.0000
  Cd  Cd12      1.0  0.0025  0.0016666666666666668  0.9998476556609064  1.0000
