data_image0
_chemical_formula_structural       V6Co2V6Co2H
_chemical_formula_sum              "V12 Co4 H1"
_cell_length_a       4.655704498291016
_cell_length_b       4.655704498291016
_cell_length_c       102.58993530273438
_cell_angle_alpha    90.0
_cell_angle_beta     90.0
_cell_angle_gamma    90.0

_space_group_name_H-M_alt    "P 1"
_space_group_IT_number       1

loop_
  _space_group_symop_operation_xyz
  'x, y, z'

loop_
  _atom_site_type_symbol
  _atom_site_label
  _atom_site_symmetry_multiplicity
  _atom_site_fract_x
  _atom_site_fract_y
  _atom_site_fract_z
  _atom_site_occupancy
  V   V1        1.0  0.0037499871174869826  0.0011115045234103907  0.9993268639115653  1.0000
  V   V2        1.0  0.008749987677596244  0.0011115045234103907  0.9993268639115653  1.0000
  V   V3        1.0  0.0012499870374713736  0.006111504983500141  0.9992134099224432  1.0000
  V   V4        1.0  0.0012499870374713736  0.006111504983500141  0.9994403181911868  1.0000
  V   V5        1.0  0.006249987197502591  0.0036115045034064886  0.9995537724708083  1.0000
  V   V6        1.0  0.006249987197502591  0.008611504663437707  0.9995537724708083  1.0000
  Co  Co1       1.0  0.006249987197502591  0.006111504983500141  0.9993268639115653  1.0000
  Co  Co2       1.0  0.0012499870374713736  0.0011115045234103907  0.9995537724708083  1.0000
  V   V7        1.0  0.003752031516291946  0.0011115062237420778  0.9997752980747722  1.0000
  V   V8        1.0  0.008747979285815242  0.0011115062237420778  0.9997752980747722  1.0000
  V   V9        1.0  0.0012499870374713736  0.006111504983500141  0.9996672264599304  1.0000
  V   V10       1.0  0.001250010342017438  0.0061115097844366695  0.9999060083137324  1.0000
  V   V11       1.0  0.006250014402809585  0.0033345168708750353  0.0  1.0000
  V   V12       1.0  0.006250015202965673  0.0088884962967496  0.0  1.0000
  Co  Co3       1.0  0.006250002400468264  0.006111506583812317  0.9997840827789085  1.0000
  Co  Co4       1.0  0.001250012042349125  0.0011115079240737648  0.9999882597542008  1.0000
  H   H1        1.0  0.00875001328259106  0.0022230124474841555  0.00014034320156487836  1.0000
