data_image0
_chemical_formula_structural       HFe16Si16
_chemical_formula_sum              "H1 Fe16 Si16"
_cell_length_a       6.32500696182251
_cell_length_b       7.74652007405771
_cell_length_c       99.32785034179688
_cell_angle_alpha    95.05115262865966
_cell_angle_beta     90.0
_cell_angle_gamma    90.0

_space_group_name_H-M_alt    "P 1"
_space_group_IT_number       1

loop_
  _space_group_symop_operation_xyz
  'x, y, z'

loop_
  _atom_site_type_symbol
  _atom_site_label
  _atom_site_symmetry_multiplicity
  _atom_site_fract_x
  _atom_site_fract_y
  _atom_site_fract_z
  _atom_site_occupancy
  H   H1        1.0  0.003489508859021534  0.0032830921184962307  0.00014590505125885645  1.0000
  Fe  Fe1       1.0  0.008701961701197806  0.006311612025213594  0.9998647578444221  1.0000
  Fe  Fe2       1.0  0.003489508859021534  0.0030854639958405785  2.1186599186592107e-05  1.0000
  Fe  Fe3       1.0  0.008637129352811688  0.002534513084781499  0.9994890076081574  1.0000
  Fe  Fe4       1.0  0.0036371294352686165  0.009409513471000224  0.9996735469606877  1.0000
  Fe  Fe5       1.0  0.0025043196710716822  0.004739613941167456  0.9998146529537445  1.0000
  Fe  Fe6       1.0  0.007435460986244412  0.0016063851891065925  0.9999922934853526  1.0000
  Fe  Fe7       1.0  0.002500174738009368  0.0009712005771343682  0.9994470451337031  1.0000
  Fe  Fe8       1.0  0.0075001749500414674  0.007846200480579687  0.9996315844829183  1.0000
  Fe  Fe9       1.0  0.008892663371769506  0.002856109211687411  0.9997641718110253  1.0000
  Fe  Fe10      1.0  0.003888077965578954  0.009794850653852855  0.9999508188692144  1.0000
  Fe  Fe11      1.0  0.008863220358798269  0.009097013277890862  0.9993967379885514  1.0000
  Fe  Fe12      1.0  0.003863220146766169  0.005972013277890862  0.9995812774344425  1.0000
  Fe  Fe13      1.0  1.746500034502813e-07  0.00582989395901385  0.999455389531844  1.0000
  Fe  Fe14      1.0  0.00500017454953639  0.0027048939590138504  0.999639928977735  1.0000
  Fe  Fe15      1.0  0.009999826086559908  0.009576984669897308  0.999822478888559  1.0000
  Fe  Fe16      1.0  0.004875132447029104  0.006407634690691325  9.110291060871912e-07  1.0000
  Si  Si1       1.0  0.0015921597863443938  0.0036426496840885297  0.9995980716274087  1.0000
  Si  Si2       1.0  0.0065984495477817064  0.0005256097124006799  0.9997791783672686  1.0000
  Si  Si3       1.0  0.0016448802427622418  0.007447276605681184  0.999966328664224  1.0000
  Si  Si4       1.0  0.006592159851131979  0.0067676494427018246  0.9994135321798601  1.0000
  Si  Si5       1.0  0.0075001749500414674  0.004891170031867679  0.9996315846178535  1.0000
  Si  Si6       1.0  0.002480669257271721  0.0017903848598165059  0.9998116433182952  1.0000
  Si  Si7       1.0  0.007272391810102769  0.008680997775998081  0.9999947941764739  1.0000
  Si  Si8       1.0  0.002500174738009368  0.008016170031867678  0.9994470451719625  1.0000
  Si  Si9       1.0  0.0009081895836582922  0.007080149635811188  0.9996903414520363  1.0000
  Si  Si10      1.0  0.0060357805534863316  0.004000685547896066  0.9998808877321208  1.0000
  Si  Si11      1.0  0.0008525529496454483  0.0010765282172946892  4.390033192843123e-05  1.0000
  Si  Si12      1.0  0.005908189648445878  0.0002051495965858496  0.9995058018018487  1.0000
  Si  Si13      1.0  6.445250125383415e-06  0.004042819838542033  0.9999808773228872  1.0000
  Si  Si14      1.0  0.00500017454953639  0.0034436514504985  0.9994218011059949  1.0000
  Si  Si15      1.0  1.746500034502813e-07  0.0003186515108451763  0.9996063405523002  1.0000
  Si  Si16      1.0  0.005007381285017808  0.0071878848669615514  0.9997910650349472  1.0000
