data_image0
_chemical_formula_structural       CONa8Ca2Sn12
_chemical_formula_sum              "C1 O1 Na8 Ca2 Sn12"
_cell_length_a       10.265303602595319
_cell_length_b       10.265303611755371
_cell_length_c       99.27108764648438
_cell_angle_alpha    90.0
_cell_angle_beta     90.0
_cell_angle_gamma    120.00000002951808

_space_group_name_H-M_alt    "P 1"
_space_group_IT_number       1

loop_
  _space_group_symop_operation_xyz
  'x, y, z'

loop_
  _atom_site_type_symbol
  _atom_site_label
  _atom_site_symmetry_multiplicity
  _atom_site_fract_x
  _atom_site_fract_y
  _atom_site_fract_z
  _atom_site_occupancy
  C   C1        1.0  0.007005465499490176  0.008299527611013964  0.00011338087818925487  1.0000
  O   O1        1.0  0.007005465499490176  0.008299527611013964  0.00023426224055962113  1.0000
  Na  Na1       1.0  0.0049417219668188355  0.0003772723786071477  0.9996081687501825  1.0000
  Na  Na2       1.0  0.001161099750599532  0.000377272325998573  0.9996081687501825  1.0000
  Na  Na3       1.0  0.005682302251670939  0.00962254594661271  0.9999390006252085  1.0000
  Na  Na4       1.0  0.005682275432974446  0.0056533095740258716  0.9999390000247854  1.0000
  Na  Na5       1.0  0.003670134005651236  0.0016318246549342043  0.9999285424573037  1.0000
  Na  Na6       1.0  0.0049417219668188355  0.004157894534971943  0.9996081687501825  1.0000
  Na  Na7       1.0  0.007014847852841522  0.008304146207463288  0.9996081687501825  1.0000
  Na  Na8       1.0  0.009651818394783013  0.009622727284332815  0.9999387112213199  1.0000
  Ca  Ca1       1.0  0.0003481814009339477  0.004970812981509501  0.9996081687501825  1.0000
  Ca  Ca2       1.0  0.0003494108967414479  0.004971383455475178  0.0  1.0000
  Sn  Sn1       1.0  0.001961630507688652  0.0033620245981756964  0.9998625601719919  1.0000
  Sn  Sn2       1.0  0.002036403757285969  0.003282590626905588  0.999395286071781  1.0000
  Sn  Sn3       1.0  0.007114176342852362  0.0033538474339085394  0.999865458413838  1.0000
  Sn  Sn4       1.0  0.008659959076010085  0.001594368387879963  0.9994524763630275  1.0000
  Sn  Sn5       1.0  0.008711403202474186  0.00659693616859066  0.9997674495654283  1.0000
  Sn  Sn6       1.0  0.0036178966324299185  0.006605195559676027  0.9997651769643535  1.0000
  Sn  Sn7       1.0  0.0037246262445886575  0.006659035403336856  0.9994524763630275  1.0000
  Sn  Sn8       1.0  0.006971736379186332  0.0032825906402919724  0.999395286071781  1.0000
  Sn  Sn9       1.0  0.008659959076010085  0.006659035453439812  0.9994524763630275  1.0000
  Sn  Sn10      1.0  0.002036403757285969  0.008347258055366569  0.999395286071781  1.0000
  Sn  Sn11      1.0  0.008711022712217686  0.0017076248409133537  0.9997673901235508  1.0000
  Sn  Sn12      1.0  0.001961554242020499  0.008192913811106664  0.9998626442312126  1.0000
