data_image0
_chemical_formula_structural       COCa4Zn4Ca4Zn4Ca4Zn4Ca4Zn4
_chemical_formula_sum              "C1 O1 Ca16 Zn16"
_cell_length_a       8.763193130493164
_cell_length_b       12.411038903754589
_cell_length_c       100.82315826416016
_cell_angle_alpha    69.21944573198799
_cell_angle_beta     90.0
_cell_angle_gamma    90.0

_space_group_name_H-M_alt    "P 1"
_space_group_IT_number       1

loop_
  _space_group_symop_operation_xyz
  'x, y, z'

loop_
  _atom_site_type_symbol
  _atom_site_label
  _atom_site_symmetry_multiplicity
  _atom_site_fract_x
  _atom_site_fract_y
  _atom_site_fract_z
  _atom_site_occupancy
  C   C1        1.0  0.004999997143284368  0.0009752096179912211  0.9997968516825665  1.0000
  O   O1        1.0  0.004999997143284368  0.0009752096179912211  0.9999158721985402  1.0000
  Ca  Ca1       1.0  1.7500000936285634e-09  0.008541939691568688  0.998981375416345  1.0000
  Ca  Ca2       1.0  0.0025000017599408806  0.006458060924836973  0.9992907536055046  1.0000
  Ca  Ca3       1.0  0.0025000017599408806  0.0035419394861001346  0.9991997433314316  1.0000
  Ca  Ca4       1.0  1.7500000936285634e-09  0.0014580607193684194  0.9990723857438358  1.0000
  Zn  Zn1       1.0  1.7500000936285634e-09  0.005650816070755809  0.9991076411386232  1.0000
  Zn  Zn2       1.0  0.0025000017599408806  0.009349183903560623  0.9991644879112688  1.0000
  Zn  Zn3       1.0  0.0025000017599408806  0.0006508161060707164  0.9988892732664385  1.0000
  Zn  Zn4       1.0  1.7500000936285634e-09  0.004349184019136683  0.9989461200355788  1.0000
  Ca  Ca5       1.0  1.7500000936285634e-09  0.008541939691568688  0.9994181108975103  1.0000
  Ca  Ca6       1.0  0.002499996871216212  0.00656263671363897  0.9997133861524523  1.0000
  Ca  Ca7       1.0  0.002499999209301923  0.003695770902911835  0.9996231120323167  1.0000
  Ca  Ca8       1.0  0.009999997687420678  0.0014547597386341373  0.9995029105001675  1.0000
  Zn  Zn5       1.0  0.009999998537633665  0.005709974319923743  0.9995486494739872  1.0000
  Zn  Zn6       1.0  0.0024999947456837476  0.009313821481277048  0.9996031035863526  1.0000
  Zn  Zn7       1.0  0.0025000017599408806  0.0006508161060707164  0.9993260090431939  1.0000
  Zn  Zn8       1.0  1.7500000936285634e-09  0.004349184019136683  0.9993828558123342  1.0000
  Ca  Ca9       1.0  0.005000001819455789  0.008541939691568688  0.998981375416345  1.0000
  Ca  Ca10      1.0  0.0075000016664174525  0.006458060924836973  0.9992907536055046  1.0000
  Ca  Ca11      1.0  0.0075000016664174525  0.0035419394861001346  0.9991997433314316  1.0000
  Ca  Ca12      1.0  0.005000001819455789  0.0014580607193684194  0.9990723857438358  1.0000
  Zn  Zn9       1.0  0.005000001819455789  0.005650816070755809  0.9991076411386232  1.0000
  Zn  Zn10      1.0  0.0075000016664174525  0.009349183903560623  0.9991644879112688  1.0000
  Zn  Zn11      1.0  0.0075000016664174525  0.0006508161060707164  0.9988892732664385  1.0000
  Zn  Zn12      1.0  0.005000001819455789  0.004349184019136683  0.9989461200355788  1.0000
  Ca  Ca13      1.0  0.005000001819455789  0.008541939691568688  0.9994181108975103  1.0000
  Ca  Ca14      1.0  0.007499997415352523  0.00656263671363897  0.9997133861524523  1.0000
  Ca  Ca15      1.0  0.007499999115778495  0.003695770902911835  0.9996231120323167  1.0000
  Ca  Ca16      1.0  0.004999997993497354  0.0014547597386341373  0.9995029105001675  1.0000
  Zn  Zn13      1.0  0.004999998418603846  0.005709974319923743  0.9995486494739872  1.0000
  Zn  Zn14      1.0  0.007499994864713566  0.009313821481277048  0.9996031035863526  1.0000
  Zn  Zn15      1.0  0.0075000016664174525  0.0006508161060707164  0.9993260090431939  1.0000
  Zn  Zn16      1.0  0.005000001819455789  0.004349184019136683  0.9993828558123342  1.0000
