data_image0
_chemical_formula_structural       COSi5Os5Si5Os5Si5Os5Si5Os5
_chemical_formula_sum              "C1 O1 Si20 Os20"
_cell_length_a       6.643197162286216
_cell_length_b       8.403053283691406
_cell_length_c       106.02059173583984
_cell_angle_alpha    90.0
_cell_angle_beta     104.96321722653938
_cell_angle_gamma    71.56505187634447

_space_group_name_H-M_alt    "P 1"
_space_group_IT_number       1

loop_
  _space_group_symop_operation_xyz
  'x, y, z'

loop_
  _atom_site_type_symbol
  _atom_site_label
  _atom_site_symmetry_multiplicity
  _atom_site_fract_x
  _atom_site_fract_y
  _atom_site_fract_z
  _atom_site_occupancy
  C   C1        1.0  0.009388666728783693  0.0008056668630116748  0.0001473114355881018  1.0000
  O   O1        1.0  0.009388666728783693  0.0008056668630116748  0.0002604972245204466  1.0000
  Si  Si1       1.0  0.006611333492360785  0.0015000001721174022  0.9997833898354681  1.0000
  Si  Si2       1.0  0.0006113334094316056  0.0005000000155193781  0.9996863181569874  1.0000
  Si  Si3       1.0  0.0026113332835021106  0.0025000002243320708  0.9998804615654481  1.0000
  Si  Si4       1.0  0.004611333541504003  0.004500000115499018  7.46049801202595e-05  1.0000
  Si  Si5       1.0  0.008611333443217567  0.0035000001400706266  0.9999775332451711  1.0000
  Os  Os1       1.0  0.006611333492360785  0.0015000001721174022  2.6069112645705007e-05  1.0000
  Os  Os2       1.0  0.0006113334094316056  0.0005000000155193781  0.999928997434165  1.0000
  Os  Os3       1.0  0.0026113332835021106  0.0025000002243320708  0.9996377822882705  1.0000
  Os  Os4       1.0  0.004611333541504003  0.004500000115499018  0.9998319257029427  1.0000
  Os  Os5       1.0  0.008611333443217567  0.0035000001400706266  0.9997348539679936  1.0000
  Si  Si6       1.0  0.006611333492360785  0.0015000001721174022  0.9992980315622124  1.0000
  Si  Si7       1.0  0.0006113334094316056  0.0005000000155193781  0.9992009598837317  1.0000
  Si  Si8       1.0  0.0026113332835021106  0.0025000002243320708  0.9993951032921924  1.0000
  Si  Si9       1.0  0.004611333541504003  0.004500000115499018  0.9995892464257652  1.0000
  Si  Si10      1.0  0.008611333443217567  0.0035000001400706266  0.9994921749719154  1.0000
  Os  Os6       1.0  0.006611333492360785  0.0015000001721174022  0.9995407105582906  1.0000
  Os  Os7       1.0  0.0006113334094316056  0.0005000000155193781  0.9994436388798098  1.0000
  Os  Os8       1.0  0.0026113332835021106  0.0025000002243320708  0.9991524240150148  1.0000
  Os  Os9       1.0  0.004611333541504003  0.004500000115499018  0.999346567429687  1.0000
  Os  Os10      1.0  0.008611333443217567  0.0035000001400706266  0.9992494956947379  1.0000
  Si  Si11      1.0  0.006611333492360785  0.006500000748440939  0.9997833898354681  1.0000
  Si  Si12      1.0  0.0006113334094316056  0.0055000001485171176  0.9996863181569874  1.0000
  Si  Si13      1.0  0.0026113332835021106  0.007500000800655607  0.9998804615654481  1.0000
  Si  Si14      1.0  0.004611333541504003  0.009500000913485454  7.46049801202595e-05  1.0000
  Si  Si15      1.0  0.008611333443217567  0.008500000938057061  0.9999775332451711  1.0000
  Os  Os11      1.0  0.006611333492360785  0.006500000748440939  2.6069112645705007e-05  1.0000
  Os  Os12      1.0  0.0006113334094316056  0.0055000001485171176  0.999928997434165  1.0000
  Os  Os13      1.0  0.0026113332835021106  0.007500000800655607  0.9996377822882705  1.0000
  Os  Os14      1.0  0.004611333541504003  0.009500000913485454  0.9998319257029427  1.0000
  Os  Os15      1.0  0.008611333443217567  0.008500000938057061  0.9997348539679936  1.0000
  Si  Si16      1.0  0.006611333492360785  0.006500000748440939  0.9992980315622124  1.0000
  Si  Si17      1.0  0.0006113334094316056  0.0055000001485171176  0.9992009598837317  1.0000
  Si  Si18      1.0  0.0026113332835021106  0.007500000800655607  0.9993951032921924  1.0000
  Si  Si19      1.0  0.004611333541504003  0.009500000913485454  0.9995892464257652  1.0000
  Si  Si20      1.0  0.008611333443217567  0.008500000938057061  0.9994921749719154  1.0000
  Os  Os16      1.0  0.006611333492360785  0.006500000748440939  0.9995407105582906  1.0000
  Os  Os17      1.0  0.0006113334094316056  0.0055000001485171176  0.9994436388798098  1.0000
  Os  Os18      1.0  0.0026113332835021106  0.007500000800655607  0.9991524240150148  1.0000
  Os  Os19      1.0  0.004611333541504003  0.009500000913485454  0.999346567429687  1.0000
  Os  Os20      1.0  0.008611333443217567  0.008500000938057061  0.9992494956947379  1.0000
