data_image0
_chemical_formula_structural       V12Ga4V12Ga4CO
_chemical_formula_sum              "V24 Ga8 C1 O1"
_cell_length_a       4.802628517150879
_cell_length_b       6.791942596435547
_cell_length_c       103.959716796875
_cell_angle_alpha    90.0
_cell_angle_beta     90.0
_cell_angle_gamma    90.0

_space_group_name_H-M_alt    "P 1"
_space_group_IT_number       1

loop_
  _space_group_symop_operation_xyz
  'x, y, z'

loop_
  _atom_site_type_symbol
  _atom_site_label
  _atom_site_symmetry_multiplicity
  _atom_site_fract_x
  _atom_site_fract_y
  _atom_site_fract_z
  _atom_site_occupancy
  V   V1        1.0  1.4350000434440387e-08  0.006875000175515749  0.9987759597282128  1.0000
  V   V2        1.0  1.4350000434440387e-08  0.0018750000603335387  0.9991026219932208  1.0000
  V   V3        1.0  1.4350000434440387e-08  0.004374999912242125  0.9992659532690606  1.0000
  V   V4        1.0  1.4350000434440387e-08  0.009375000438789373  0.9989392910040527  1.0000
  V   V5        1.0  0.005000014443112789  0.006875000175515749  0.9989392910040527  1.0000
  V   V6        1.0  0.005000014443112789  0.0018750000603335387  0.9992659532690606  1.0000
  V   V7        1.0  0.005000014443112789  0.009375000438789373  0.9987759597282128  1.0000
  V   V8        1.0  0.005000014443112789  0.004374999912242125  0.9991026219932208  1.0000
  V   V9        1.0  0.007500014489653432  0.0031250000548486714  0.9988576253661327  1.0000
  V   V10       1.0  0.007500014489653432  0.00812500030715256  0.9991842876311406  1.0000
  V   V11       1.0  0.0025000143965721463  0.0031250000548486714  0.9988576253661327  1.0000
  V   V12       1.0  0.0025000143965721463  0.00812500030715256  0.9991842876311406  1.0000
  Ga  Ga1       1.0  0.005000014443112789  0.005625000043878937  0.9993476186203087  1.0000
  Ga  Ga2       1.0  0.005000014443112789  0.0006249999972575663  0.9990209563553007  1.0000
  Ga  Ga3       1.0  1.4350000434440387e-08  0.005625000043878937  0.9990209563553007  1.0000
  Ga  Ga4       1.0  1.4350000434440387e-08  0.0006249999972575663  0.9993476186203087  1.0000
  V   V13       1.0  1.4350000434440387e-08  0.006875000175515749  0.9994292845449005  1.0000
  V   V14       1.0  0.009999986223969757  0.0019546637794852417  0.9997628593277749  1.0000
  V   V15       1.0  1.3535000949495892e-07  0.004356786862309158  0.999913880915182  1.0000
  V   V16       1.0  1.4350000434440387e-08  0.009375000438789373  0.9995926152473967  1.0000
  V   V17       1.0  0.005000014443112789  0.006875000175515749  0.9995926152473967  1.0000
  V   V18       1.0  0.004999906236118478  0.001892960257889854  0.9999138906620242  1.0000
  V   V19       1.0  0.005000014443112789  0.009375000438789373  0.9994292845449005  1.0000
  V   V20       1.0  0.005000038876950215  0.004295747969493397  0.9997628444208396  1.0000
  V   V21       1.0  0.007500014489653432  0.0031250000548486714  0.9995109498961486  1.0000
  V   V22       1.0  0.007500109897970997  0.008124967946436244  0.9998376841157863  1.0000
  V   V23       1.0  0.0025000143965721463  0.0031250000548486714  0.9995109498961486  1.0000
  V   V24       1.0  0.002499920733528683  0.008124966300976092  0.9998376881291919  1.0000
  Ga  Ga5       1.0  0.005000195951619376  0.005525199046268478  0.0  1.0000
  Ga  Ga6       1.0  0.005000014443112789  0.0006249999972575663  0.9996742811719885  1.0000
  Ga  Ga7       1.0  1.4350000434440387e-08  0.005625000043878937  0.9996742811719885  1.0000
  Ga  Ga8       1.0  0.009999852807460642  0.00072493153470673  0.9999999942665634  1.0000
  C   C1        1.0  0.007500109897970997  0.008124967946436244  3.0066141658779907e-05  1.0000
  O   O1        1.0  0.007500109897970997  0.008124967946436244  0.00014549570118847446  1.0000
