data_image0
_chemical_formula_structural       COSiRuSiRuSiRuSiRuSiRuSiRuSiRuSiRuSiRuSiRuSiRuSiRu
_chemical_formula_sum              "C1 O1 Si12 Ru12"
_cell_length_a       5.900062561035156
_cell_length_b       5.900062561035156
_cell_length_c       99.50031280517578
_cell_angle_alpha    90.0
_cell_angle_beta     90.0
_cell_angle_gamma    90.0

_space_group_name_H-M_alt    "P 1"
_space_group_IT_number       1

loop_
  _space_group_symop_operation_xyz
  'x, y, z'

loop_
  _atom_site_type_symbol
  _atom_site_label
  _atom_site_symmetry_multiplicity
  _atom_site_fract_x
  _atom_site_fract_y
  _atom_site_fract_z
  _atom_site_occupancy
  C   C1        1.0  5.0000000844248775e-11  4.50000007598239e-10  0.00017407496757517517  1.0000
  O   O1        1.0  5.0000000844248775e-11  4.50000007598239e-10  0.00029467784791175695  1.0000
  Si  Si1       1.0  0.0025000000252559376  0.0025000000252559376  0.9992772450357335  1.0000
  Ru  Ru1       1.0  5.0000000844248775e-11  5.0000000844248775e-11  0.9994254873116667  1.0000
  Si  Si2       1.0  0.0025000000252559376  0.0025000000252559376  0.9995737295875999  1.0000
  Ru  Ru2       1.0  0.01000000010102375  0.01000000010102375  0.9997166167474844  1.0000
  Si  Si3       1.0  0.0025000000252559376  0.002500000340955158  0.9998720564862876  1.0000
  Ru  Ru3       1.0  5.0000000844248775e-11  4.50000007598239e-10  0.0  1.0000
  Si  Si4       1.0  0.0025000000252559376  0.007500000075767813  0.9992772450357335  1.0000
  Ru  Ru4       1.0  5.0000000844248775e-11  0.005000000050511875  0.9994254873116667  1.0000
  Si  Si5       1.0  0.0025000000252559376  0.007500000075767813  0.9995737295875999  1.0000
  Ru  Ru5       1.0  0.01000000010102375  0.005000000050511875  0.9997166167474844  1.0000
  Si  Si6       1.0  0.0025000000252559376  0.007500000075767813  0.9998720564862876  1.0000
  Ru  Ru6       1.0  5.0000000844248775e-11  0.005000000366211095  0.0  1.0000
  Si  Si7       1.0  0.007500000075767813  0.0025000000252559376  0.9992772450357335  1.0000
  Ru  Ru7       1.0  0.005000000050511875  5.0000000844248775e-11  0.9994254873116667  1.0000
  Si  Si8       1.0  0.007500000075767813  0.0025000000252559376  0.9995737295875999  1.0000
  Ru  Ru8       1.0  0.005000000050511875  0.01000000010102375  0.9997166167474844  1.0000
  Si  Si9       1.0  0.007500000075767813  0.002500000340955158  0.9998720564862876  1.0000
  Ru  Ru9       1.0  0.005000000050511875  4.50000007598239e-10  0.0  1.0000
  Si  Si10      1.0  0.007500000075767813  0.007500000075767813  0.9992772450357335  1.0000
  Ru  Ru10      1.0  0.005000000050511875  0.005000000050511875  0.9994254873116667  1.0000
  Si  Si11      1.0  0.007500000075767813  0.007500000075767813  0.9995737295875999  1.0000
  Ru  Ru11      1.0  0.005000000050511875  0.005000000050511875  0.9997166167474844  1.0000
  Si  Si12      1.0  0.007500000075767813  0.007500000075767813  0.9998720564862876  1.0000
  Ru  Ru12      1.0  0.005000000050511875  0.005000000366211095  0.0  1.0000
