data_image0
_chemical_formula_structural       COV18Sn6V18Sn6
_chemical_formula_sum              "C1 O1 V36 Sn12"
_cell_length_a       4.98288106918335
_cell_length_b       11.142060551202652
_cell_length_c       105.23429107666016
_cell_angle_alpha    71.56505117707799
_cell_angle_beta     90.0
_cell_angle_gamma    90.0

_space_group_name_H-M_alt    "P 1"
_space_group_IT_number       1

loop_
  _space_group_symop_operation_xyz
  'x, y, z'

loop_
  _atom_site_type_symbol
  _atom_site_label
  _atom_site_symmetry_multiplicity
  _atom_site_fract_x
  _atom_site_fract_y
  _atom_site_fract_z
  _atom_site_occupancy
  C   C1        1.0  0.005000023729387162  0.007041075688830557  0.9996685439376113  1.0000
  O   O1        1.0  0.005000023729387162  0.007041075688830557  0.9997825754400419  1.0000
  V   V1        1.0  2.3699999223034174e-08  0.007559247749791158  0.9986580069576947  1.0000
  V   V2        1.0  2.3699999223034174e-08  0.004225914233194021  0.9991044302262083  1.0000
  V   V3        1.0  2.3699999223034174e-08  0.0008925807165968843  0.9988812186804514  1.0000
  V   V4        1.0  2.3699999223034174e-08  0.005892580815277394  0.9985464011907161  1.0000
  V   V5        1.0  2.3699999223034174e-08  0.0025592474748954526  0.9989928247365296  1.0000
  V   V6        1.0  2.3699999223034174e-08  0.009225914331874531  0.9987696130196728  1.0000
  V   V7        1.0  0.005000023729387162  0.007559247749791158  0.9988254159444621  1.0000
  V   V8        1.0  0.005000023729387162  0.004225914233194021  0.9986022041155054  1.0000
  V   V9        1.0  0.005000023729387162  0.0008925807165968843  0.9990486276672188  1.0000
  V   V10       1.0  0.005000023729387162  0.009225914331874531  0.9986022040329054  1.0000
  V   V11       1.0  0.005000023729387162  0.005892580815277394  0.9990486273014192  1.0000
  V   V12       1.0  0.005000023729387162  0.0025592474748954526  0.9988254157497622  1.0000
  V   V13       1.0  0.00750002344529242  0.005059247524235707  0.9988254155668624  1.0000
  V   V14       1.0  0.00750002344529242  0.0017259141838537665  0.9986022040152055  1.0000
  V   V15       1.0  0.00750002344529242  0.008392580688402453  0.9990486276908188  1.0000
  V   V16       1.0  0.002500023639673033  0.005059247524235707  0.9988254155668624  1.0000
  V   V17       1.0  0.002500023639673033  0.0017259141838537665  0.9986022040152055  1.0000
  V   V18       1.0  0.002500023639673033  0.008392580688402453  0.9990486276908188  1.0000
  Sn  Sn1       1.0  0.005000023729387162  0.00672591410631908  0.9986022039385055  1.0000
  Sn  Sn2       1.0  0.005000023729387162  0.0033925805897219432  0.9990486274902189  1.0000
  Sn  Sn3       1.0  0.005000023729387162  5.924739802157364e-05  0.9988254156503842  1.0000
  Sn  Sn4       1.0  2.3699999223034174e-08  0.00672591410631908  0.9989370216288406  1.0000
  Sn  Sn5       1.0  2.3699999223034174e-08  0.0033925805897219432  0.998713809799884  1.0000
  Sn  Sn6       1.0  2.3699999223034174e-08  5.924739802157364e-05  0.9991602333407192  1.0000
  V   V19       1.0  2.3699999223034174e-08  0.007559247749791158  0.9993276423383648  1.0000
  V   V20       1.0  0.009999640754722145  0.004281293735201871  0.9997183836319722  1.0000
  V   V21       1.0  0.009999976435088742  0.0009274963479189216  0.9995545945749011  1.0000
  V   V22       1.0  2.3699999223034174e-08  0.005892580815277394  0.9992160362881866  1.0000
  V   V23       1.0  0.009999726730762588  0.002512092817150587  0.9996593276273316  1.0000
  V   V24       1.0  2.3699999223034174e-08  0.009225914331874531  0.9994392478339434  1.0000
  V   V25       1.0  0.005000023729387162  0.007559247749791158  0.9994950507587327  1.0000
  V   V26       1.0  0.005000023729387162  0.004225914233194021  0.9992718392129758  1.0000
  V   V27       1.0  0.005000499214271695  0.0006614121952610529  0.999722984633369  1.0000
  V   V28       1.0  0.005000023729387162  0.009225914331874531  0.9992718394135756  1.0000
  V   V29       1.0  0.005000046531728323  0.005768842504801399  0.9996867411837984  1.0000
  V   V30       1.0  0.005000023729387162  0.0025592474748954526  0.9994950511304324  1.0000
  V   V31       1.0  0.00750002344529242  0.005059247524235707  0.9994950509475325  1.0000
  V   V32       1.0  0.00750002344529242  0.0017259141838537665  0.9992718393958756  1.0000
  V   V33       1.0  0.007043085461727283  0.008401781941065247  0.9997186935822722  1.0000
  V   V34       1.0  0.002500023639673033  0.005059247524235707  0.9994950509475325  1.0000
  V   V35       1.0  0.002500023639673033  0.0017259141838537665  0.9992718393958756  1.0000
  V   V36       1.0  0.0029572756226902202  0.008401722027898684  0.9997186950218708  1.0000
  Sn  Sn7       1.0  0.005000023729387162  0.00672591410631908  0.9992718390359759  1.0000
  Sn  Sn8       1.0  0.004999981115175813  0.003153091098733831  0.9997446922139085  1.0000
  Sn  Sn9       1.0  0.005000023729387162  5.924739802157364e-05  0.9994950507478546  1.0000
  Sn  Sn10      1.0  0.009999580197684965  0.006799551617191981  0.9996117302730003  1.0000
  Sn  Sn11      1.0  2.3699999223034174e-08  0.0033925805897219432  0.9993834448973543  1.0000
  Sn  Sn12      1.0  6.138000077471142e-07  0.009940752419375429  0.9998391624032723  1.0000
