data_image0
_chemical_formula_structural       COCu4Se8Sn2Zn2
_chemical_formula_sum              "C1 O1 Cu4 Se8 Sn2 Zn2"
_cell_length_a       7.151279690499726
_cell_length_b       5.837214469909668
_cell_length_c       101.43634796142578
_cell_angle_alpha    90.0
_cell_angle_beta     85.66979623991706
_cell_angle_gamma    114.08702740496796

_space_group_name_H-M_alt    "P 1"
_space_group_IT_number       1

loop_
  _space_group_symop_operation_xyz
  'x, y, z'

loop_
  _atom_site_type_symbol
  _atom_site_label
  _atom_site_symmetry_multiplicity
  _atom_site_fract_x
  _atom_site_fract_y
  _atom_site_fract_z
  _atom_site_occupancy
  C   C1        1.0  0.00966480947772099  0.007537115021712484  9.613615203085549e-05  1.0000
  O   O1        1.0  0.00966480947772099  0.007537115021712484  0.00021443718080269613  1.0000
  Cu  Cu1       1.0  0.006353848842790373  0.003399642522376071  0.9997717660847416  1.0000
  Cu  Cu2       1.0  0.007484173987906963  0.008627904921187389  0.9999202239473594  1.0000
  Cu  Cu3       1.0  0.003112043873152687  0.0016905999845932432  0.9992498412997761  1.0000
  Cu  Cu4       1.0  0.004778710551270816  0.007523933294135716  0.99950810124728  1.0000
  Se  Se1       1.0  0.007555564119722269  0.006502920057872983  0.9995826125203637  1.0000
  Se  Se2       1.0  0.005019659618026133  0.004716314861662956  0.9999732799899539  1.0000
  Se  Se3       1.0  0.0036685239472240413  0.009559399882276349  0.9996918499201762  1.0000
  Se  Se4       1.0  0.009357333715060949  0.002495094497965172  0.9998183348929679  1.0000
  Se  Se5       1.0  0.004222230763486012  0.004836253379754855  0.9990660923315527  1.0000
  Se  Se6       1.0  0.002062230665049244  0.0035751333013117645  0.9994429453025258  1.0000
  Se  Se7       1.0  0.0003351905909877837  0.00789273320415822  0.9991753300251685  1.0000
  Se  Se8       1.0  0.005828523902517533  0.0004582800093934308  0.9993149972437684  1.0000
  Sn  Sn1       1.0  0.0022857945516289073  0.006666500144035294  0.9999293692420744  1.0000
  Sn  Sn2       1.0  0.008945377103422863  0.004607266549869223  0.9993789712506028  1.0000
  Zn  Zn1       1.0  0.0006120439275471313  0.00044060001179046523  0.9996372315381412  1.0000
  Zn  Zn2       1.0  0.007278710711591284  0.00877393337429595  0.9991207113015751  1.0000
