data_image0
_chemical_formula_structural       COSiAgPt5SiAgPt5SiAgPt5SiAgPt5SiAgPt5SiAgPt5
_chemical_formula_sum              "C1 O1 Si6 Ag6 Pt30"
_cell_length_a       8.197585940676765
_cell_length_b       7.979586124420166
_cell_length_c       105.90814208984375
_cell_angle_alpha    90.0
_cell_angle_beta     60.87586415389582
_cell_angle_gamma    90.0

_space_group_name_H-M_alt    "P 1"
_space_group_IT_number       1

loop_
  _space_group_symop_operation_xyz
  'x, y, z'

loop_
  _atom_site_type_symbol
  _atom_site_label
  _atom_site_symmetry_multiplicity
  _atom_site_fract_x
  _atom_site_fract_y
  _atom_site_fract_z
  _atom_site_occupancy
  C   C1        1.0  0.004287037719474058  0.0024999999533147433  0.9997930025662584  1.0000
  O   O1        1.0  0.004287037719474058  0.0024999999533147433  0.9999063085319934  1.0000
  Si  Si1       1.0  0.0064821088919600174  0.0012499999766573716  0.9995674437155422  1.0000
  Ag  Ag1       1.0  0.0014821086058451171  0.0037500000466852575  0.9995674437826003  1.0000
  Pt  Pt1       1.0  0.004446325947587579  0.0037500000466852575  0.999644136144541  1.0000
  Pt  Pt2       1.0  0.008517891316123545  0.0037500000466852575  0.9994907513061407  1.0000
  Pt  Pt3       1.0  0.004446325947587579  0.0012499999766573716  0.999455775184213  1.0000
  Pt  Pt4       1.0  0.008517891316123545  0.0012499999766573716  0.9996791122664687  1.0000
  Pt  Pt5       1.0  0.0014821086058451171  0.0012499999766573716  0.9993790828222724  1.0000
  Si  Si2       1.0  0.0064821088919600174  0.0012499999766573716  0.9991907217948863  1.0000
  Ag  Ag2       1.0  0.0014821086058451171  0.0037500000466852575  0.9991907218619445  1.0000
  Pt  Pt6       1.0  0.004446325947587579  0.0037500000466852575  0.9992674142238852  1.0000
  Pt  Pt7       1.0  0.008517891316123545  0.0037500000466852575  0.999114029385485  1.0000
  Pt  Pt8       1.0  0.004446325947587579  0.0012499999766573716  0.9990790532635573  1.0000
  Pt  Pt9       1.0  0.008517891316123545  0.0012499999766573716  0.9993023903458128  1.0000
  Pt  Pt10      1.0  0.0014821086058451171  0.0012499999766573716  0.9990023609016166  1.0000
  Si  Si3       1.0  0.0064821088919600174  0.0012499999766573716  0.9988139998742306  1.0000
  Ag  Ag3       1.0  0.0014821086058451171  0.0037500000466852575  0.9988139996598908  1.0000
  Pt  Pt11      1.0  0.004446325947587579  0.0037500000466852575  0.9988906923032294  1.0000
  Pt  Pt12      1.0  0.008517891316123545  0.0037500000466852575  0.9987373074648291  1.0000
  Pt  Pt13      1.0  0.004446325947587579  0.0012499999766573716  0.9987023310615036  1.0000
  Pt  Pt14      1.0  0.008517891316123545  0.0012499999766573716  0.9989256684251571  1.0000
  Pt  Pt15      1.0  0.0014821086058451171  0.0012499999766573716  0.998625638699563  1.0000
  Si  Si4       1.0  0.0064821088919600174  0.00625  0.9995674437155422  1.0000
  Ag  Ag4       1.0  0.0014821086058451171  0.00875000018674103  0.9995674437826003  1.0000
  Pt  Pt16      1.0  0.004446325947587579  0.00875000018674103  0.999644136144541  1.0000
  Pt  Pt17      1.0  0.008517891316123545  0.00875000018674103  0.9994907513061407  1.0000
  Pt  Pt18      1.0  0.004446325947587579  0.00625  0.999455775184213  1.0000
  Pt  Pt19      1.0  0.008517891316123545  0.00625  0.9996791122664687  1.0000
  Pt  Pt20      1.0  0.0014821086058451171  0.00625  0.9993790828222724  1.0000
  Si  Si5       1.0  0.0064821088919600174  0.00625  0.9991907217948863  1.0000
  Ag  Ag5       1.0  0.0014821086058451171  0.00875000018674103  0.9991907218619445  1.0000
  Pt  Pt21      1.0  0.004446325947587579  0.00875000018674103  0.9992674142238852  1.0000
  Pt  Pt22      1.0  0.008517891316123545  0.00875000018674103  0.999114029385485  1.0000
  Pt  Pt23      1.0  0.004446325947587579  0.00625  0.9990790532635573  1.0000
  Pt  Pt24      1.0  0.008517891316123545  0.00625  0.9993023903458128  1.0000
  Pt  Pt25      1.0  0.0014821086058451171  0.00625  0.9990023609016166  1.0000
  Si  Si6       1.0  0.0064821088919600174  0.00625  0.9988139998742306  1.0000
  Ag  Ag6       1.0  0.0014821086058451171  0.00875000018674103  0.9988139996598908  1.0000
  Pt  Pt26      1.0  0.004446325947587579  0.00875000018674103  0.9988906923032294  1.0000
  Pt  Pt27      1.0  0.008517891316123545  0.00875000018674103  0.9987373074648291  1.0000
  Pt  Pt28      1.0  0.004446325947587579  0.00625  0.9987023310615036  1.0000
  Pt  Pt29      1.0  0.008517891316123545  0.00625  0.9989256684251571  1.0000
  Pt  Pt30      1.0  0.0014821086058451171  0.00625  0.998625638699563  1.0000
