data_image0
_chemical_formula_structural       COCa2In4Pd2
_chemical_formula_sum              "C1 O1 Ca2 In4 Pd2"
_cell_length_a       4.561015605926514
_cell_length_b       5.769817911581702
_cell_length_c       102.0464859008789
_cell_angle_alpha    90.0
_cell_angle_beta     90.0
_cell_angle_gamma    113.28142925027994

_space_group_name_H-M_alt    "P 1"
_space_group_IT_number       1

loop_
  _space_group_symop_operation_xyz
  'x, y, z'

loop_
  _atom_site_type_symbol
  _atom_site_label
  _atom_site_symmetry_multiplicity
  _atom_site_fract_x
  _atom_site_fract_y
  _atom_site_fract_z
  _atom_site_occupancy
  C   C1        1.0  0.005655619794729776  0.0013091715662736994  2.637413828049132e-05  1.0000
  O   O1        1.0  0.005655619794729776  0.0013091715662736994  0.0001439678428824419  1.0000
  Ca  Ca1       1.0  0.005655619794729776  0.0013091715662736994  0.9998566431184641  1.0000
  Ca  Ca2       1.0  0.004345316511351521  0.008690828672706836  0.9994582817181973  1.0000
  In  In1       1.0  0.008525535756527841  0.007049977076987135  0.0  1.0000
  In  In2       1.0  0.0014463033051353633  0.002892802260274521  0.999303763694319  1.0000
  In  In3       1.0  0.0014463033051353633  0.002892802260274521  0.9996128000341222  1.0000
  In  In4       1.0  0.008553696858867211  0.007107588957889223  0.9996963113242581  1.0000
  Pd  Pd1       1.0  0.002803357692396687  0.005614647335131996  0.9998543628191363  1.0000
  Pd  Pd2       1.0  0.007179565638861798  0.004359326517878398  0.9994582817181973  1.0000
