data_image0
_chemical_formula_structural       COPb8Pt4
_chemical_formula_sum              "C1 O1 Pb8 Pt4"
_cell_length_a       5.855725887233543
_cell_length_b       5.855725684750202
_cell_length_c       106.4069595336914
_cell_angle_alpha    87.46863331805235
_cell_angle_beta     87.4686334056407
_cell_angle_gamma    75.41049874808841

_space_group_name_H-M_alt    "P 1"
_space_group_IT_number       1

loop_
  _space_group_symop_operation_xyz
  'x, y, z'

loop_
  _atom_site_type_symbol
  _atom_site_label
  _atom_site_symmetry_multiplicity
  _atom_site_fract_x
  _atom_site_fract_y
  _atom_site_fract_z
  _atom_site_occupancy
  C   C1        1.0  0.005956103176342059  0.0019246342816488316  3.0375831077675262e-05  1.0000
  O   O1        1.0  0.005956103176342059  0.0019246342816488316  0.00014315007786226428  1.0000
  Pb  Pb1       1.0  0.0038187531729469127  0.0007237749800482916  0.9994693953231325  1.0000
  Pb  Pb2       1.0  0.007985618660699143  0.003941518114947267  0.9999326410195002  1.0000
  Pb  Pb3       1.0  0.008725352922841286  0.002067175191070391  0.9992555527852434  1.0000
  Pb  Pb4       1.0  0.00247535298607952  0.005817175243691206  0.9996832380233757  1.0000
  Pb  Pb5       1.0  0.007705253141701281  0.004610275072471492  0.9995455917345675  1.0000
  Pb  Pb6       1.0  0.002106577206101203  0.008411609690531511  0.9999744351819733  1.0000
  Pb  Pb7       1.0  0.006696651879784454  0.00923726777802671  0.9997707289177509  1.0000
  Pb  Pb8       1.0  0.002611853076690455  0.005953675612373688  0.9993317493130622  1.0000
  Pt  Pt1       1.0  0.007277802928275015  0.007401225572470271  0.999293650990095  1.0000
  Pt  Pt2       1.0  0.0008471967192324739  0.0009675682871109985  0.9997308430835938  1.0000
  Pt  Pt3       1.0  0.009152803622166623  0.009276225598780679  0.999507493968853  1.0000
  Pt  Pt4       1.0  0.0034995862746797033  0.0029086642509081723  0.9998986666690127  1.0000
