data_image0
_chemical_formula_structural       COCaAlSiCaAlSiCaAlSiCaAlSiCaAlSiCaAlSiCaAlSiCaAlSi
_chemical_formula_sum              "C1 O1 Ca8 Al8 Si8"
_cell_length_a       8.482199668884277
_cell_length_b       8.482199674560672
_cell_length_c       100.92740631103516
_cell_angle_alpha    90.0
_cell_angle_beta     90.0
_cell_angle_gamma    119.99999997786264

_space_group_name_H-M_alt    "P 1"
_space_group_IT_number       1

loop_
  _space_group_symop_operation_xyz
  'x, y, z'

loop_
  _atom_site_type_symbol
  _atom_site_label
  _atom_site_symmetry_multiplicity
  _atom_site_fract_x
  _atom_site_fract_y
  _atom_site_fract_z
  _atom_site_occupancy
  C   C1        1.0  0.00250002468946665  0.004166668864238578  0.00017161299149270036  1.0000
  O   O1        1.0  0.00250002468946665  0.004166668864238578  0.00029051057102341514  1.0000
  Ca  Ca1       1.0  0.0008333333492711446  0.000833333341785533  0.9995545263625297  1.0000
  Al  Al1       1.0  0.004166666605123855  0.002500000152139594  0.9993356462577134  1.0000
  Si  Si1       1.0  0.0025000000243493607  0.0041666665821446704  0.9993356462577134  1.0000
  Ca  Ca2       1.0  0.0008333581241857287  0.0008333356238794412  0.0  1.0000
  Al  Al2       1.0  0.004166569602023776  0.0025000419905279107  0.9997845986446421  1.0000
  Si  Si2       1.0  0.0025000775839427187  0.0041666336185659965  0.9997846582921586  1.0000
  Ca  Ca3       1.0  0.0008333332409659778  0.005833333265715736  0.9995545263625297  1.0000
  Al  Al3       1.0  0.004166666724906128  0.0075000002028527924  0.9993356462577134  1.0000
  Si  Si3       1.0  0.0025000001781030332  0.009166667139989848  0.9993356462577134  1.0000
  Ca  Ca4       1.0  0.0008333582250115276  0.0058333358013756345  0.0  1.0000
  Al  Al4       1.0  0.004166569766241072  0.007500042294807099  0.9997845986446421  1.0000
  Si  Si4       1.0  0.002500077648826344  0.009166633669279195  0.9997846582921586  1.0000
  Ca  Ca5       1.0  0.005833333489811681  0.000833333341785533  0.9995545263625297  1.0000
  Al  Al5       1.0  0.009166666965258979  0.002500000152139594  0.9993356462577134  1.0000
  Si  Si5       1.0  0.007500000109991249  0.0041666665821446704  0.9993356462577134  1.0000
  Ca  Ca6       1.0  0.005833358347074236  0.0008333356238794412  0.0  1.0000
  Al  Al6       1.0  0.009166569303375133  0.0025000419905279107  0.9997845986446421  1.0000
  Si  Si6       1.0  0.00750007761468596  0.0041666336185659965  0.9997846582921586  1.0000
  Ca  Ca7       1.0  0.005833333381506514  0.005833333265715736  0.9995545263625297  1.0000
  Al  Al7       1.0  0.00916666692034531  0.0075000002028527924  0.9993356462577134  1.0000
  Si  Si7       1.0  0.0075000003186435705  0.009166667139989848  0.9993356462577134  1.0000
  Ca  Ca8       1.0  0.0058333581459574756  0.0058333358013756345  0.0  1.0000
  Al  Al8       1.0  0.009166569824433637  0.007500042294807099  0.9997845986446421  1.0000
  Si  Si8       1.0  0.007500077569772292  0.009166633669279195  0.9997846582921586  1.0000
