data_image0
_chemical_formula_structural       Sn6Au6Sn6Au6H
_chemical_formula_sum              "Sn12 Au12 H1"
_cell_length_a       5.707462310791016
_cell_length_b       11.780027716708418
_cell_length_c       38.832977294921875
_cell_angle_alpha    100.8933939328993
_cell_angle_beta     90.0
_cell_angle_gamma    90.0

_space_group_name_H-M_alt    "P 1"
_space_group_IT_number       1

loop_
  _space_group_symop_operation_xyz
  'x, y, z'

loop_
  _atom_site_type_symbol
  _atom_site_label
  _atom_site_symmetry_multiplicity
  _atom_site_fract_x
  _atom_site_fract_y
  _atom_site_fract_z
  _atom_site_occupancy
  Sn  Sn1       1.0  0.002509926099099154  0.009063819285359136  0.00035288903131219297  1.0000
  Sn  Sn2       1.0  0.0025150118147994854  0.005041844556011527  0.9997373416436616  1.0000
  Sn  Sn3       1.0  0.002515529736371432  0.0015138846514040404  9.884839519589459e-05  1.0000
  Sn  Sn4       1.0  0.007514810298597693  0.005868997741118001  0.0003364577388277165  1.0000
  Sn  Sn5       1.0  0.007514622319501636  0.0027065100626579137  0.9996002134258474  1.0000
  Sn  Sn6       1.0  0.007511196922640169  0.009515712135232335  3.584451283205074e-05  1.0000
  Au  Au1       1.0  0.005042740611258728  0.007217716344249347  0.9998750694157662  1.0000
  Au  Au2       1.0  0.00496690344739877  0.0037696476854734667  0.00019679225679497815  1.0000
  Au  Au3       1.0  0.005014622724178857  0.0004842879034125652  0.9994728179358756  1.0000
  Au  Au4       1.0  0.009985377132226  0.007216438486223001  0.9998747697613567  1.0000
  Au  Au5       1.0  6.259950192895532e-05  0.003769432240156021  0.00019675074269687775  1.0000
  Au  Au6       1.0  1.4622600368840573e-05  0.0004842879034125652  0.9994728179358756  1.0000
  Sn  Sn7       1.0  0.0025146226393271817  0.008262065782812118  0.9993454225095153  1.0000
  Sn  Sn8       1.0  0.0025146226393271817  0.004928732221903262  0.9985810492126481  1.0000
  Sn  Sn9       1.0  0.0025146226393271817  0.0015953989830352394  0.9989632356374138  1.0000
  Sn  Sn10      1.0  0.007514622319501636  0.006039843623566769  0.9992180266358192  1.0000
  Sn  Sn11      1.0  0.007514622319501636  0.0027065100626579137  0.9984536537226764  1.0000
  Sn  Sn12      1.0  0.007514622319501636  0.009373176862434792  0.9988358402110534  1.0000
  Au  Au7       1.0  0.005014622724178857  0.0071509547031894435  0.9987084447210818  1.0000
  Au  Au8       1.0  0.005014622724178857  0.0038176211422805877  0.9990906311273855  1.0000
  Au  Au9       1.0  0.005014622724178857  0.0004842879034125652  0.9983262582327047  1.0000
  Au  Au10      1.0  1.4622600368840573e-05  0.0071509547031894435  0.9987084447210818  1.0000
  Au  Au11      1.0  1.4622600368840573e-05  0.0038176211422805877  0.9990906311273855  1.0000
  Au  Au12      1.0  1.4622600368840573e-05  0.0004842879034125652  0.9983262582327047  1.0000
  H   H1        1.0  1.5076100448001963e-05  0.002110197357030977  0.00023580056175455752  1.0000
