data_image0
_chemical_formula_structural       COPt4Zn12
_chemical_formula_sum              "C1 O1 Pt4 Zn12"
_cell_length_a       4.905758380889893
_cell_length_b       4.905758192393233
_cell_length_c       102.41780853271484
_cell_angle_alpha    90.0
_cell_angle_beta     90.0
_cell_angle_gamma    113.17317077320922

_space_group_name_H-M_alt    "P 1"
_space_group_IT_number       1

loop_
  _space_group_symop_operation_xyz
  'x, y, z'

loop_
  _atom_site_type_symbol
  _atom_site_label
  _atom_site_symmetry_multiplicity
  _atom_site_fract_x
  _atom_site_fract_y
  _atom_site_fract_z
  _atom_site_occupancy
  C   C1        1.0  0.009999997248900308  0.002500004510036506  0.0001055656812032264  1.0000
  O   O1        1.0  0.009999997248900308  0.002500004510036506  0.000222733041944615  1.0000
  Pt  Pt1       1.0  0.0050000019835383476  0.005000005716016964  0.999210811680993  1.0000
  Pt  Pt2       1.0  2.149999973010173e-09  5.700000133860209e-09  0.9994745827180535  1.0000
  Pt  Pt3       1.0  0.004999992087187465  0.005000000346925885  0.9997327406024102  1.0000
  Pt  Pt4       1.0  9.049999618346475e-09  1.1600000120395656e-08  0.9999828672262893  1.0000
  Zn  Zn1       1.0  0.005000001908892157  5.700000133860209e-09  0.9990789261624629  1.0000
  Zn  Zn2       1.0  2.1278188234692438e-09  0.005000005716016964  0.9993426971995232  1.0000
  Zn  Zn3       1.0  2.1278188234692438e-09  0.005000005716016964  0.9990789261624629  1.0000
  Zn  Zn4       1.0  0.005000001908892157  5.700000133860209e-09  0.9993426971995232  1.0000
  Zn  Zn5       1.0  2.149999973010173e-09  5.700000133860209e-09  0.999210811680993  1.0000
  Zn  Zn6       1.0  0.0050000019835383476  0.005000005716016964  0.9994745827180535  1.0000
  Zn  Zn7       1.0  0.005000001908892157  5.700000133860209e-09  0.9996064682365836  1.0000
  Zn  Zn8       1.0  0.009999986059177759  0.004999997455876842  0.9998900322568942  1.0000
  Zn  Zn9       1.0  2.1278188234692438e-09  0.005000005716016964  0.9996064682365836  1.0000
  Zn  Zn10      1.0  0.0049999941011379875  0.0099999891296556  0.9998900322568942  1.0000
  Zn  Zn11      1.0  0.009999990306772783  0.009999994085739672  0.9997333825212731  1.0000
  Zn  Zn12      1.0  0.004999994041649741  0.00499999662986283  0.0  1.0000
