data_image0
_chemical_formula_structural       HTi27Ni27
_chemical_formula_sum              "H1 Ti27 Ni27"
_cell_length_a       5.361398220062256
_cell_length_b       19.410609947287124
_cell_length_c       99.34608459472656
_cell_angle_alpha    79.10660578322809
_cell_angle_beta     90.0
_cell_angle_gamma    90.0

_space_group_name_H-M_alt    "P 1"
_space_group_IT_number       1

loop_
  _space_group_symop_operation_xyz
  'x, y, z'

loop_
  _atom_site_type_symbol
  _atom_site_label
  _atom_site_symmetry_multiplicity
  _atom_site_fract_x
  _atom_site_fract_y
  _atom_site_fract_z
  _atom_site_occupancy
  H   H1        1.0  0.0025135573263153385  0.007013573436688524  0.9997410304255488  1.0000
  Ti  Ti1       1.0  0.00025992685534526906  0.006671173769459151  0.999450899679321  1.0000
  Ti  Ti2       1.0  1.343394995077771e-05  0.003329242053106209  0.9992071506672541  1.0000
  Ti  Ti3       1.0  0.009986566215452663  0.00998503804897647  0.9996936391581606  1.0000
  Ti  Ti4       1.0  0.00957247199690279  0.005551464605408386  0.9991250974985043  1.0000
  Ti  Ti5       1.0  6.646405328592421e-05  0.002177486446951829  0.9996217673899117  1.0000
  Ti  Ti6       1.0  0.00957247199690279  0.008884797652093337  0.9993712576027427  1.0000
  Ti  Ti7       1.0  0.0004543962461824065  0.0077736867668264055  0.9990430437442178  1.0000
  Ti  Ti8       1.0  0.00018881325542108505  0.004455939834985595  0.9995379832332524  1.0000
  Ti  Ti9       1.0  0.0004543962461824065  0.0011070199894092283  0.9992892041179474  1.0000
  Ti  Ti10      1.0  0.006553282116501672  0.004475758834357179  0.9990474733359098  1.0000
  Ti  Ti11      1.0  0.006599531068244907  0.0011248902358200986  0.999545204732078  1.0000
  Ti  Ti12      1.0  0.006553282116501672  0.007809092271926287  0.9992936337257  1.0000
  Ti  Ti13      1.0  0.006553282116501672  0.00555965597378562  0.9993622039669572  1.0000
  Ti  Ti14      1.0  0.006553282116501672  0.0022263225362165115  0.999116043577167  1.0000
  Ti  Ti15      1.0  0.0065620863782696525  0.00887687599378388  0.99960747200448  1.0000
  Ti  Ti16      1.0  0.0067786395332590345  0.0066330484924004614  0.9996939440329473  1.0000
  Ti  Ti17      1.0  0.0067099856078982065  0.003295465753169351  0.9994510579873884  1.0000
  Ti  Ti18      1.0  0.006553282116501672  0.009952311663883153  0.9992117753113174  1.0000
  Ti  Ti19      1.0  0.0034735859528746272  0.008849392146993457  0.9991206682212302  1.0000
  Ti  Ti20      1.0  0.0035612273030008806  0.0055172653688145236  0.9996034499124279  1.0000
  Ti  Ti21      1.0  0.0034735859528746272  0.0021827256627393963  0.9993668285841352  1.0000
  Ti  Ti22      1.0  0.0032116999868681633  0.007781760869956781  0.9995523539150204  1.0000
  Ti  Ti23      1.0  0.0034735859528746272  0.0044321619608800635  0.9992982577429081  1.0000
  Ti  Ti24      1.0  0.0034735859528746272  0.001098828621031994  0.9990520976494945  1.0000
  Ti  Ti25      1.0  0.0034735859528746272  0.006706172755036589  0.9992025266356128  1.0000
  Ti  Ti26      1.0  0.003404189595685287  0.0034050653708408672  0.9996763123609087  1.0000
  Ti  Ti27      1.0  0.0034861193972571406  1.4961849943328833e-05  0.9994461800502096  1.0000
  Ni  Ni1       1.0  0.00548110633079048  0.006680740268297881  0.9994608737245622  1.0000
  Ni  Ni2       1.0  0.00501343403468815  0.003329242053106209  0.9992071506672541  1.0000
  Ni  Ni3       1.0  0.0049764305653129  0.009973738369789169  0.9996723470829851  1.0000
  Ni  Ni4       1.0  0.004150522231203575  0.005551464605408386  0.9991250974985043  1.0000
  Ni  Ni5       1.0  0.004888605431172944  0.0022827134390100636  0.9995991491273579  1.0000
  Ni  Ni6       1.0  0.004150522231203575  0.008884797652093337  0.9993712576027427  1.0000
  Ni  Ni7       1.0  0.00587634618559052  0.0077736867668264055  0.9990430437442178  1.0000
  Ni  Ni8       1.0  0.0055368731404532  0.004426051659750414  0.9995428048383851  1.0000
  Ni  Ni9       1.0  0.00587634618559052  0.0011070199894092283  0.9992892041179474  1.0000
  Ni  Ni10      1.0  0.0014233638457597953  0.004462744737260804  0.9990590782081299  1.0000
  Ni  Ni11      1.0  0.0014575576605701682  0.0010774981703494417  0.9995441311817238  1.0000
  Ni  Ni12      1.0  0.0014233638457597953  0.0077960781748299115  0.9993052382979353  1.0000
  Ni  Ni13      1.0  0.0014233638457597953  0.005616375610154533  0.999356710219399  1.0000
  Ni  Ni14      1.0  0.0014233638457597953  0.002283042172585424  0.9991105495296239  1.0000
  Ni  Ni15      1.0  0.0014668893025513831  0.008987798754324117  0.9995927178238472  1.0000
  Ni  Ni16      1.0  0.001815414318344718  0.006588841057871368  0.9996752763744794  1.0000
  Ni  Ni17      1.0  0.0014599404255190946  0.0031919154586991173  0.999450711094524  1.0000
  Ni  Ni18      1.0  0.0014233638457597953  0.009908606124610617  0.9992056644866404  1.0000
  Ni  Ni19      1.0  0.008603504310470952  0.008862406244089831  0.9991090630490254  1.0000
  Ni  Ni20      1.0  0.00838667600058771  0.0056222001749660026  0.9995885970474822  1.0000
  Ni  Ni21      1.0  0.008603504310470952  0.002195739759835771  0.9993552234119302  1.0000
  Ni  Ni22      1.0  0.008306092442972564  0.007703501171276556  0.9995406061186701  1.0000
  Ni  Ni23      1.0  0.008603504310470952  0.004375442324511151  0.9993037520904361  1.0000
  Ni  Ni24      1.0  0.008603504310470952  0.0010421089846630817  0.9990575916970377  1.0000
  Ni  Ni25      1.0  0.008603504310470952  0.0067498782943091265  0.9992086374602899  1.0000
  Ni  Ni26      1.0  0.008410761781498865  0.0033113766927472914  0.999669497245016  1.0000
  Ni  Ni27      1.0  0.008624679425093255  9.574245063344185e-05  0.9994584455338319  1.0000
