data_image0
_chemical_formula_structural       HMo6Pd24
_chemical_formula_sum              "H1 Mo6 Pd24"
_cell_length_a       4.860567569732666
_cell_length_b       11.577686080081563
_cell_length_c       100.8687515258789
_cell_angle_alpha    90.0
_cell_angle_beta     90.0
_cell_angle_gamma    81.95558669432293

_space_group_name_H-M_alt    "P 1"
_space_group_IT_number       1

loop_
  _space_group_symop_operation_xyz
  'x, y, z'

loop_
  _atom_site_type_symbol
  _atom_site_label
  _atom_site_symmetry_multiplicity
  _atom_site_fract_x
  _atom_site_fract_y
  _atom_site_fract_z
  _atom_site_occupancy
  H   H1        1.0  0.009491106055429837  0.008053360130264451  0.00014870795432653743  1.0000
  Mo  Mo1       1.0  0.002499999748031036  0.009026680156121679  0.0  1.0000
  Mo  Mo2       1.0  0.00749999947211583  0.009026680156121679  0.999860896152762  1.0000
  Mo  Mo3       1.0  0.002499999748031036  0.009026680156121679  0.999721791714611  1.0000
  Mo  Mo4       1.0  0.00749999947211583  0.009026680156121679  0.9995826878673729  1.0000
  Mo  Mo5       1.0  0.002499999748031036  0.009026680156121679  0.9994435840201348  1.0000
  Mo  Mo6       1.0  0.00749999947211583  0.009026680156121679  0.9993044798774403  1.0000
  Pd  Pd1       1.0  0.003517786577171117  0.0009733199446166437  0.999860896152762  1.0000
  Pd  Pd2       1.0  0.00851778630125591  0.0009733199446166437  0.0  1.0000
  Pd  Pd3       1.0  0.009504007182288225  0.0030146570256044942  0.999860896152762  1.0000
  Pd  Pd4       1.0  0.004504007458203431  0.0030146570256044942  0.0  1.0000
  Pd  Pd5       1.0  0.0004959921741409709  0.0050387034296222885  0.0  1.0000
  Pd  Pd6       1.0  0.005495991898225764  0.0050387034296222885  0.999860896152762  1.0000
  Pd  Pd7       1.0  0.0014822131905742565  0.007080040104407225  0.999860896152762  1.0000
  Pd  Pd8       1.0  0.00648221291465905  0.007080040104407225  0.0  1.0000
  Pd  Pd9       1.0  0.003517786577171117  0.0009733199446166437  0.9995826878673729  1.0000
  Pd  Pd10      1.0  0.00851778630125591  0.0009733199446166437  0.999721791714611  1.0000
  Pd  Pd11      1.0  0.009504007182288225  0.0030146570256044942  0.9995826878673729  1.0000
  Pd  Pd12      1.0  0.004504007458203431  0.0030146570256044942  0.999721791714611  1.0000
  Pd  Pd13      1.0  0.0004959921741409709  0.0050387034296222885  0.999721791714611  1.0000
  Pd  Pd14      1.0  0.005495991898225764  0.0050387034296222885  0.9995826878673729  1.0000
  Pd  Pd15      1.0  0.0014822131905742565  0.007080040104407225  0.9995826878673729  1.0000
  Pd  Pd16      1.0  0.00648221291465905  0.007080040104407225  0.999721791714611  1.0000
  Pd  Pd17      1.0  0.003517786577171117  0.0009733199446166437  0.9993044798774403  1.0000
  Pd  Pd18      1.0  0.00851778630125591  0.0009733199446166437  0.9994435840201348  1.0000
  Pd  Pd19      1.0  0.009504007182288225  0.0030146570256044942  0.9993044798774403  1.0000
  Pd  Pd20      1.0  0.004504007458203431  0.0030146570256044942  0.9994435840201348  1.0000
  Pd  Pd21      1.0  0.0004959921741409709  0.0050387034296222885  0.9994435840201348  1.0000
  Pd  Pd22      1.0  0.005495991898225764  0.0050387034296222885  0.9993044798774403  1.0000
  Pd  Pd23      1.0  0.0014822131905742565  0.007080040104407225  0.9993044798774403  1.0000
  Pd  Pd24      1.0  0.00648221291465905  0.007080040104407225  0.9994435840201348  1.0000
