data_image0
_chemical_formula_structural       HMn12Ir4Mn12Ir4Mn12Ir4Mn12Ir4
_chemical_formula_sum              "H1 Mn48 Ir16"
_cell_length_a       8.98638916015625
_cell_length_b       8.124532699584961
_cell_length_c       101.12976837158203
_cell_angle_alpha    90.0
_cell_angle_beta     90.0
_cell_angle_gamma    90.0

_space_group_name_H-M_alt    "P 1"
_space_group_IT_number       1

loop_
  _space_group_symop_operation_xyz
  'x, y, z'

loop_
  _atom_site_type_symbol
  _atom_site_label
  _atom_site_symmetry_multiplicity
  _atom_site_fract_x
  _atom_site_fract_y
  _atom_site_fract_z
  _atom_site_occupancy
  H   H1        1.0  0.0003539672083819471  0.005000000366818911  0.00012178106126154548  1.0000
  Mn  Mn1       1.0  0.004691651118571415  0.003749999128805086  0.9999976589519302  1.0000
  Mn  Mn2       1.0  0.009569098537426648  0.003750000045852364  0.9997521766041776  1.0000
  Mn  Mn3       1.0  0.004584946444899411  0.0037499998165905447  0.9997653983391601  1.0000
  Mn  Mn4       1.0  0.009646032855873005  0.003750000962899642  0.9999999051085752  1.0000
  Mn  Mn5       1.0  0.0019194636965727792  0.0037500011921614614  0.9996305546776036  1.0000
  Mn  Mn6       1.0  0.006901256596023608  0.0037499998165905447  0.9998899512909232  1.0000
  Mn  Mn7       1.0  0.0061221023023456025  0.0012500019257992837  0.9997653936240583  1.0000
  Mn  Mn8       1.0  0.0010619015733273325  0.001249999977073818  0.0  1.0000
  Mn  Mn9       1.0  0.006014812286796269  0.0012500021550611033  0.9999976430384614  1.0000
  Mn  Mn10      1.0  0.0011377670832076645  0.0012500010087520058  0.9997522025372378  1.0000
  Mn  Mn11      1.0  0.008787285746964421  0.0012500012380138254  0.9996305546776036  1.0000
  Mn  Mn12      1.0  0.003805141310748737  0.0012500014672756448  0.9998899436288827  1.0000
  Ir  Ir1       1.0  0.00702004161505488  0.0037500011921614614  0.9996305546776036  1.0000
  Ir  Ir2       1.0  0.0020900585190650194  0.0037500007336378227  0.9998908860598655  1.0000
  Ir  Ir3       1.0  0.0036867082430303926  0.0012500012380138254  0.9996305546776036  1.0000
  Ir  Ir4       1.0  0.008617545722596157  0.0012499987161338109  0.9998909249594558  1.0000
  Mn  Mn13      1.0  0.004570330308985163  0.0037500011921614614  0.9994945567001748  1.0000
  Mn  Mn14      1.0  0.009570330574295929  0.0037500011921614614  0.9992380398353117  1.0000
  Mn  Mn15      1.0  0.004570330308985163  0.0037500011921614614  0.9992535198093877  1.0000
  Mn  Mn16      1.0  0.009570330574295929  0.0037500011921614614  0.9995100363795569  1.0000
  Mn  Mn17      1.0  0.0019194636965727792  0.0037500011921614614  0.9991175215372651  1.0000
  Mn  Mn18      1.0  0.006919463961883546  0.0037500011921614614  0.9993740381074343  1.0000
  Mn  Mn19      1.0  0.006136419549100109  0.0012500012380138254  0.9992535198093877  1.0000
  Mn  Mn20      1.0  0.0011364192837893426  0.0012500012380138254  0.9995100363795569  1.0000
  Mn  Mn21      1.0  0.006136419549100109  0.0012500012380138254  0.9994945567001748  1.0000
  Mn  Mn22      1.0  0.0011364192837893426  0.0012500012380138254  0.9992380398353117  1.0000
  Mn  Mn23      1.0  0.008787285746964421  0.0012500012380138254  0.9991175215372651  1.0000
  Mn  Mn24      1.0  0.0037872858962017266  0.0012500012380138254  0.9993740381074343  1.0000
  Ir  Ir5       1.0  0.00702004161505488  0.0037500011921614614  0.9991175215372651  1.0000
  Ir  Ir6       1.0  0.0020200415570181493  0.0037500011921614614  0.9993740381074343  1.0000
  Ir  Ir7       1.0  0.0036867082430303926  0.0012500012380138254  0.9991175215372651  1.0000
  Ir  Ir8       1.0  0.008686708093793087  0.0012500012380138254  0.9993740381074343  1.0000
  Mn  Mn25      1.0  0.004691651118571415  0.008749999266362178  0.9999976589519302  1.0000
  Mn  Mn26      1.0  0.009569098537426648  0.008750000183409455  0.9997521766041776  1.0000
  Mn  Mn27      1.0  0.004584946444899411  0.008749999266362178  0.9997653983391601  1.0000
  Mn  Mn28      1.0  0.009646032855873005  0.008750001100456734  0.9999999051085752  1.0000
  Mn  Mn29      1.0  0.0019194636965727792  0.008750001100456734  0.9996305546776036  1.0000
  Mn  Mn30      1.0  0.006901256596023608  0.008749999266362178  0.9998899512909232  1.0000
  Mn  Mn31      1.0  0.0061221023023456025  0.006250001834094556  0.9997653936240583  1.0000
  Mn  Mn32      1.0  0.0010619015733273325  0.00625  0.0  1.0000
  Mn  Mn33      1.0  0.006014812286796269  0.006250001834094556  0.9999976430384614  1.0000
  Mn  Mn34      1.0  0.0011377670832076645  0.006250000917047278  0.9997522025372378  1.0000
  Mn  Mn35      1.0  0.008787285746964421  0.006250000917047278  0.9996305546776036  1.0000
  Mn  Mn36      1.0  0.003805141310748737  0.006250001375570917  0.9998899436288827  1.0000
  Ir  Ir9       1.0  0.00702004161505488  0.008750001100456734  0.9996305546776036  1.0000
  Ir  Ir10      1.0  0.0020900585190650194  0.008750000183409455  0.9998908860598655  1.0000
  Ir  Ir11      1.0  0.0036867082430303926  0.006250000917047278  0.9996305546776036  1.0000
  Ir  Ir12      1.0  0.008617545722596157  0.006249998624429084  0.9998909249594558  1.0000
  Mn  Mn37      1.0  0.004570330308985163  0.008750001100456734  0.9994945567001748  1.0000
  Mn  Mn38      1.0  0.009570330574295929  0.008750001100456734  0.9992380398353117  1.0000
  Mn  Mn39      1.0  0.004570330308985163  0.008750001100456734  0.9992535198093877  1.0000
  Mn  Mn40      1.0  0.009570330574295929  0.008750001100456734  0.9995100363795569  1.0000
  Mn  Mn41      1.0  0.0019194636965727792  0.008750001100456734  0.9991175215372651  1.0000
  Mn  Mn42      1.0  0.006919463961883546  0.008750001100456734  0.9993740381074343  1.0000
  Mn  Mn43      1.0  0.006136419549100109  0.006250000917047278  0.9992535198093877  1.0000
  Mn  Mn44      1.0  0.0011364192837893426  0.006250000917047278  0.9995100363795569  1.0000
  Mn  Mn45      1.0  0.006136419549100109  0.006250000917047278  0.9994945567001748  1.0000
  Mn  Mn46      1.0  0.0011364192837893426  0.006250000917047278  0.9992380398353117  1.0000
  Mn  Mn47      1.0  0.008787285746964421  0.006250000917047278  0.9991175215372651  1.0000
  Mn  Mn48      1.0  0.0037872858962017266  0.006250000917047278  0.9993740381074343  1.0000
  Ir  Ir13      1.0  0.00702004161505488  0.008750001100456734  0.9991175215372651  1.0000
  Ir  Ir14      1.0  0.0020200415570181493  0.008750001100456734  0.9993740381074343  1.0000
  Ir  Ir15      1.0  0.0036867082430303926  0.006250000917047278  0.9991175215372651  1.0000
  Ir  Ir16      1.0  0.008686708093793087  0.006250000917047278  0.9993740381074343  1.0000
