data_image0
_chemical_formula_structural       HPb20Rh16
_chemical_formula_sum              "H1 Pb20 Rh16"
_cell_length_a       5.853987216949463
_cell_length_b       13.902928738055115
_cell_length_c       100.0947036743164
_cell_angle_alpha    90.0
_cell_angle_beta     90.0
_cell_angle_gamma    102.15345564389492

_space_group_name_H-M_alt    "P 1"
_space_group_IT_number       1

loop_
  _space_group_symop_operation_xyz
  'x, y, z'

loop_
  _atom_site_type_symbol
  _atom_site_label
  _atom_site_symmetry_multiplicity
  _atom_site_fract_x
  _atom_site_fract_y
  _atom_site_fract_z
  _atom_site_occupancy
  H   H1        1.0  0.001626453613397506  0.008255052016140293  0.0001154628665494935  1.0000
  Pb  Pb1       1.0  0.009999857393491572  0.00999986260254858  0.9998646152662811  1.0000
  Pb  Pb2       1.0  0.00829196773494261  0.006581863633770614  0.9998600300510008  1.0000
  Pb  Pb3       1.0  0.0008800898456418532  0.0017600313942870587  0.9995058135360967  1.0000
  Pb  Pb4       1.0  1.4249999909259672e-07  1.367999967804299e-07  0.99916912832385  1.0000
  Pb  Pb5       1.0  0.009120194879216054  0.008240241662864738  0.9995058135360967  1.0000
  Pb  Pb6       1.0  0.0017085053008105051  0.003418554007556939  0.9998600205232807  1.0000
  Pb  Pb7       1.0  0.008338151817881199  0.00667615554019503  0.9991720521429444  1.0000
  Pb  Pb8       1.0  0.0016621327871155446  0.0033241173799101542  0.9991720521429444  1.0000
  Pb  Pb9       1.0  0.0021335782896793926  0.004267008486645441  0.9995058135360967  1.0000
  Pb  Pb10      1.0  0.007866706856790794  0.0057332649816461915  0.9995058135360967  1.0000
  Pb  Pb11      1.0  0.005000142447782074  1.367999967804299e-07  0.9993413948619331  1.0000
  Pb  Pb12      1.0  0.0033381518643983265  0.00667615554019503  0.9993384710428387  1.0000
  Pb  Pb13      1.0  0.005880313245789782  0.0017610632182294991  0.9999915548671291  1.0000
  Pb  Pb14      1.0  0.005000142447782074  1.367999967804299e-07  0.9996702325080016  1.0000
  Pb  Pb15      1.0  0.004119957416974204  0.00823923354798619  0.9999915667767791  1.0000
  Pb  Pb16      1.0  0.006662132737738762  0.0033241173799101542  0.9993384710428387  1.0000
  Pb  Pb17      1.0  0.0033381518643983265  0.00667615554019503  0.9996731557316134  1.0000
  Pb  Pb18      1.0  0.006662132737738762  0.0033241173799101542  0.9996731557316134  1.0000
  Pb  Pb19      1.0  0.0071631617334682205  0.004329395393588397  5.35934253548485e-09  1.0000
  Pb  Pb20      1.0  0.002837306150966205  0.005671139011452659  0.0  1.0000
  Rh  Rh1       1.0  0.005839810032550732  0.0016794719695340952  0.9995058135360967  1.0000
  Rh  Rh2       1.0  0.004160474842271601  0.008320801498757538  0.9995058135360967  1.0000
  Rh  Rh3       1.0  1.6980995667553269e-07  0.005000168666006434  0.999740444063594  1.0000
  Rh  Rh4       1.0  0.008349183734763548  0.0016063027833381914  0.999750408867815  1.0000
  Rh  Rh5       1.0  0.0016825168006101565  0.008364885556562387  0.9992552615928915  1.0000
  Rh  Rh6       1.0  0.008317768436378567  0.0016353879117292464  0.9992552615928915  1.0000
  Rh  Rh7       1.0  0.001651059461496212  0.008393990967852032  0.999750423159395  1.0000
  Rh  Rh8       1.0  1.4245792517709573e-07  0.005000136871192429  0.9992552615928915  1.0000
  Rh  Rh9       1.0  0.000867030449278401  0.0017295488015925018  0.9999932025672175  1.0000
  Rh  Rh10      1.0  0.009132950135908154  0.008270870484294398  0.9999931817253298  1.0000
  Rh  Rh11      1.0  0.005000142527925661  0.005000136871192429  0.9992552615928915  1.0000
  Rh  Rh12      1.0  0.0033177680481940694  0.0016353879117292464  0.9992552615928915  1.0000
  Rh  Rh13      1.0  0.00674473558632595  0.008395488613228972  0.9997502867939017  1.0000
  Rh  Rh14      1.0  0.003256079202946494  0.0016049231350942614  0.9997502725023215  1.0000
  Rh  Rh15      1.0  0.0066825168706106395  0.008364885556562387  0.9992552615928915  1.0000
  Rh  Rh16      1.0  0.005000019730090205  0.004999917048426633  0.9997404017843362  1.0000
