data_image0
_chemical_formula_structural       COCo9Sn9Co9Sn9
_chemical_formula_sum              "C1 O1 Co18 Sn18"
_cell_length_a       5.334482041386335
_cell_length_b       10.048982577438938
_cell_length_c       110.95326232910156
_cell_angle_alpha    83.46519556021654
_cell_angle_beta     113.0026346636398
_cell_angle_gamma    74.60785219749845

_space_group_name_H-M_alt    "P 1"
_space_group_IT_number       1

loop_
  _space_group_symop_operation_xyz
  'x, y, z'

loop_
  _atom_site_type_symbol
  _atom_site_label
  _atom_site_symmetry_multiplicity
  _atom_site_fract_x
  _atom_site_fract_y
  _atom_site_fract_z
  _atom_site_occupancy
  C   C1        1.0  0.006638246677541501  0.008181280391202478  0.00010736333555530473  1.0000
  O   O1        1.0  0.006638246677541501  0.008181280391202478  0.0002155166648234146  1.0000
  Co  Co1       1.0  0.005036701201386816  0.0002777778038874671  0.9994242223867753  1.0000
  Co  Co2       1.0  0.005036701058297106  0.0036111112274479547  0.9990141074289989  1.0000
  Co  Co3       1.0  0.005036700693188099  0.00694444497324828  0.9992191646854569  1.0000
  Co  Co4       1.0  0.005036700783888117  0.008611111449545565  0.9990141073463453  1.0000
  Co  Co5       1.0  0.00503670110422435  0.0019444445528492306  0.9992191650413238  1.0000
  Co  Co6       1.0  0.005036700875742602  0.005277778100348117  0.9994242225709952  1.0000
  Co  Co7       1.0  3.670113287418482e-05  0.008611111449545565  0.9990141074925754  1.0000
  Co  Co8       1.0  3.6701073877734666e-05  0.0019444445528492306  0.999219165180427  1.0000
  Co  Co9       1.0  3.6700845395987777e-05  0.005277778100348117  0.9994242227100983  1.0000
  Sn  Sn1       1.0  0.0033700346026307245  0.00972222216934184  0.9991849885322006  1.0000
  Sn  Sn2       1.0  0.0033700346497124375  0.0030555556692483804  0.9993900462179572  1.0000
  Sn  Sn3       1.0  0.003370034421230691  0.006388889216747267  0.9989799309886965  1.0000
  Sn  Sn4       1.0  0.006703368317401627  0.0008333334364500812  0.9990482836103416  1.0000
  Sn  Sn5       1.0  0.0067033680889198805  0.004166666983948968  0.9992533414086154  1.0000
  Sn  Sn6       1.0  0.006703368270319915  0.00749999993654354  0.998843225924585  1.0000
  Sn  Sn7       1.0  3.6701052498737135e-05  0.0002777778038874671  0.9994242225236513  1.0000
  Sn  Sn8       1.0  3.670102795049136e-05  0.0036111112274479547  0.9990141072994996  1.0000
  Sn  Sn9       1.0  3.670066284148419e-05  0.00694444497324828  0.9992191648245601  1.0000
  Co  Co10      1.0  0.004878349845002521  0.0004395119362490003  2.992299143908956e-05  1.0000
  Co  Co11      1.0  0.005036701058297106  0.0036111112274479547  0.9996292799193285  1.0000
  Co  Co12      1.0  0.005102621800809102  0.006827002929556324  0.9998349492442324  1.0000
  Co  Co13      1.0  0.005036700783888117  0.008611111449545565  0.9996292801052775  1.0000
  Co  Co14      1.0  0.004893769696169127  0.0018978766329377813  0.9998317880722043  1.0000
  Co  Co15      1.0  0.004802322558867284  0.005317993631991925  1.0550852701647466e-05  1.0000
  Co  Co16      1.0  3.670113287418482e-05  0.008611111449545565  0.9996292802515074  1.0000
  Co  Co17      1.0  0.00018497704770962077  0.001897217280656146  0.9998317845304775  1.0000
  Co  Co18      1.0  0.009759145360400649  0.005320058346565275  1.0578826506358927e-05  1.0000
  Sn  Sn10      1.0  0.0036616261786553313  0.009470348407948486  0.9998202246441464  1.0000
  Sn  Sn11      1.0  0.0036606887296674034  0.0030057126027855053  3.7795350795557885e-05  1.0000
  Sn  Sn12      1.0  0.003370034421230691  0.006388889216747267  0.9995951037476286  1.0000
  Sn  Sn13      1.0  0.006703368317401627  0.0008333334364500812  0.9996634566378761  1.0000
  Sn  Sn14      1.0  0.006794094087921982  0.004009033204785775  0.9998694319991377  1.0000
  Sn  Sn15      1.0  0.006703368270319915  0.00749999993654354  0.9994583989521196  1.0000
  Sn  Sn16      1.0  0.009937601426043673  0.0003808952209594556  3.374877865330171e-05  1.0000
  Sn  Sn17      1.0  3.670102795049136e-05  0.0036111112274479547  0.9996292800584317  1.0000
  Sn  Sn18      1.0  0.009963299361988103  0.007043952634879752  0.9998308216438087  1.0000
