data_image0
_chemical_formula_structural       HIr4Sn8
_chemical_formula_sum              "H1 Ir4 Sn8"
_cell_length_a       4.572421073913574
_cell_length_b       4.572421073913574
_cell_length_c       108.79827880859375
_cell_angle_alpha    90.0
_cell_angle_beta     90.0
_cell_angle_gamma    90.0

_space_group_name_H-M_alt    "P 1"
_space_group_IT_number       1

loop_
  _space_group_symop_operation_xyz
  'x, y, z'

loop_
  _atom_site_type_symbol
  _atom_site_label
  _atom_site_symmetry_multiplicity
  _atom_site_fract_x
  _atom_site_fract_y
  _atom_site_fract_z
  _atom_site_occupancy
  H   H1        1.0  0.005000001482809267  0.0074999995763402084  0.00011324185114479193  1.0000
  Ir  Ir1       1.0  0.0024999991119439  1.5999999926451786e-09  0.9995543567415813  1.0000
  Ir  Ir2       1.0  0.007500001205800942  0.0050000006680789005  0.9998416540308664  1.0000
  Ir  Ir3       1.0  0.0024999991119439  1.5999999926451786e-09  0.9989600106900869  1.0000
  Ir  Ir4       1.0  0.007499998761609842  0.005000001482809267  0.9992571834419114  1.0000
  Sn  Sn1       1.0  0.007500000391070576  0.009999998077236333  5.47845475388923e-10  1.0000
  Sn  Sn2       1.0  0.0025000021671827753  0.005000000260713717  0.0  1.0000
  Sn  Sn3       1.0  0.0024999991119439  0.005000001482809267  0.9997029428435709  1.0000
  Sn  Sn4       1.0  0.007499998761609842  1.5999999926451786e-09  0.9997029428435709  1.0000
  Sn  Sn5       1.0  0.007499998761609842  1.5999999926451786e-09  0.9994057700917464  1.0000
  Sn  Sn6       1.0  0.0024999991119439  0.005000001482809267  0.9994057700917464  1.0000
  Sn  Sn7       1.0  0.0024999991119439  0.005000001482809267  0.9991085970659991  1.0000
  Sn  Sn8       1.0  0.007499998761609842  1.5999999926451786e-09  0.9991085970659991  1.0000
