data_image0
_chemical_formula_structural       COPt18W6
_chemical_formula_sum              "C1 O1 Pt18 W6"
_cell_length_a       4.90685567399762
_cell_length_b       7.418823512453081
_cell_length_c       101.03605651855469
_cell_angle_alpha    85.71775793295907
_cell_angle_beta     89.35591437172792
_cell_angle_gamma    88.6526640779149

_space_group_name_H-M_alt    "P 1"
_space_group_IT_number       1

loop_
  _space_group_symop_operation_xyz
  'x, y, z'

loop_
  _atom_site_type_symbol
  _atom_site_label
  _atom_site_symmetry_multiplicity
  _atom_site_fract_x
  _atom_site_fract_y
  _atom_site_fract_z
  _atom_site_occupancy
  C   C1        1.0  0.0051406519394080275  0.005625593532119718  6.988300389843238e-05  1.0000
  O   O1        1.0  0.0051406519394080275  0.005625593532119718  0.00018865272564119785  1.0000
  Pt  Pt1       1.0  0.002500000197176451  0.00541666659950983  0.9991807108431078  1.0000
  Pt  Pt2       1.0  0.005833333513090088  0.0009722221956393077  0.9993513653671854  1.0000
  Pt  Pt3       1.0  0.009166667137248893  0.009861111066339886  0.9990100565441951  1.0000
  Pt  Pt4       1.0  0.005833333667555139  0.002638888933660113  0.9990953837638911  1.0000
  Pt  Pt5       1.0  0.009166667364566996  0.008194444265359547  0.9992660381476262  1.0000
  Pt  Pt6       1.0  0.0025000002346822828  0.0037499997985294907  0.9994366927416097  1.0000
  Pt  Pt7       1.0  0.0008333333674234385  0.0018055555331699432  0.9992233744530076  1.0000
  Pt  Pt8       1.0  0.004166666779716888  0.007361110864869377  0.9993940291318654  1.0000
  Pt  Pt9       1.0  0.007500000212589745  0.0062499999999999995  0.9990527201541467  1.0000
  Pt  Pt10      1.0  0.0025000000737413967  0.002083333249387288  0.9996926743438721  1.0000
  Pt  Pt11      1.0  0.00624922742412455  0.007618001377897105  0.9998889978061869  1.0000
  Pt  Pt12      1.0  0.009166666832636013  0.006527777464379208  0.9995220200464391  1.0000
  Pt  Pt13      1.0  0.005833333552069596  0.009305555130228925  0.9996073471255521  1.0000
  Pt  Pt14      1.0  0.009099975660029859  0.004748607012753244  0.999786424035482  1.0000
  Pt  Pt15      1.0  0.002522767105215233  0.0002817616066555863  0.9999367989896434  1.0000
  Pt  Pt16      1.0  0.0008607013269181421  0.00841929593068254  0.9997308749973274  1.0000
  Pt  Pt17      1.0  0.004099268805135505  0.003981790360022964  0.9999069355081852  1.0000
  Pt  Pt18      1.0  0.007500000658591505  0.0029166666498774575  0.9995646833596329  1.0000
  W   W1        1.0  0.0008333333995327414  0.00013888888958843925  0.9994793563506494  1.0000
  W   W2        1.0  0.004166666932023328  0.009027777665849716  0.9991380472332597  1.0000
  W   W3        1.0  0.007500000439907848  0.00458333319901966  0.9993087017575778  1.0000
  W   W4        1.0  0.0013049951229063789  0.006795280436472158  0.9999620303606882  1.0000
  W   W5        1.0  0.004166667007034992  0.005694444063889038  0.9996500104403293  1.0000
  W   W6        1.0  0.0074143700819079015  0.0012197843092994595  0.9998190966606351  1.0000
