data_image0
_chemical_formula_structural       HPb36Pd52
_chemical_formula_sum              "H1 Pb36 Pd52"
_cell_length_a       9.33724308013916
_cell_length_b       12.730192501986494
_cell_length_c       118.49498748779297
_cell_angle_alpha    89.77417068018975
_cell_angle_beta     90.0
_cell_angle_gamma    111.51446626873687

_space_group_name_H-M_alt    "P 1"
_space_group_IT_number       1

loop_
  _space_group_symop_operation_xyz
  'x, y, z'

loop_
  _atom_site_type_symbol
  _atom_site_label
  _atom_site_symmetry_multiplicity
  _atom_site_fract_x
  _atom_site_fract_y
  _atom_site_fract_z
  _atom_site_occupancy
  H   H1        1.0  0.009823160307413148  0.0024926994865824515  0.00011270967307118499  1.0000
  Pb  Pb1       1.0  0.008940434832965697  0.006132673602664305  0.9993898773880414  1.0000
  Pb  Pb2       1.0  0.003940434940687899  0.006132673602664305  0.9987077807650766  1.0000
  Pb  Pb3       1.0  0.009692238550993082  0.0011326736121009058  0.999048829340323  1.0000
  Pb  Pb4       1.0  0.0046922387584580625  0.0011326736121009058  0.9997309254602738  1.0000
  Pb  Pb5       1.0  0.00812163899600918  0.0038159580815799073  0.9989181564473747  1.0000
  Pb  Pb6       1.0  0.003121638804503044  0.0038159580815799073  0.9996002525673254  1.0000
  Pb  Pb7       1.0  0.006878361456204835  0.00618404205682358  0.9991075148506096  1.0000
  Pb  Pb8       1.0  0.0018783612646986994  0.00618404205682358  0.9997896109705603  1.0000
  Pb  Pb9       1.0  0.001805680718204836  0.0011840419089834916  0.9987664668029578  1.0000
  Pb  Pb10      1.0  0.006805680909710972  0.0011840419089834916  0.9994485629229085  1.0000
  Pb  Pb11      1.0  0.00180714519275025  0.0061631670363599955  0.9990706899823459  1.0000
  Pb  Pb12      1.0  0.006807145085028049  0.0061631670363599955  0.9997527861022967  1.0000
  Pb  Pb13      1.0  0.003941144045756783  0.001251396909538716  0.9990504027975534  1.0000
  Pb  Pb14      1.0  0.008941143838291803  0.001251396909538716  0.9997324989175042  1.0000
  Pb  Pb15      1.0  0.007512667489166552  0.0075000000251642706  0.9988423113613856  1.0000
  Pb  Pb16      1.0  0.0025126672976604164  0.0075000000251642706  0.9995244079843504  1.0000
  Pb  Pb17      1.0  0.0031943195475927695  0.00881595862261172  0.99925920449486  1.0000
  Pb  Pb18      1.0  0.008194319739098906  0.00881595862261172  0.9999413006148108  1.0000
  Pb  Pb19      1.0  0.009810252764466443  0.0062513967428254255  0.9987093547253877  1.0000
  Pb  Pb20      1.0  0.004810252772445865  0.0062513967428254255  0.9993914508453384  1.0000
  Pb  Pb21      1.0  0.0031439781815545253  0.008836833013968546  0.9999781254833409  1.0000
  Pb  Pb22      1.0  0.008143978073832324  0.008836833013968546  0.9992960293633901  1.0000
  Pb  Pb23      1.0  0.003192854876451493  0.0038368331020434917  0.9989549813156384  1.0000
  Pb  Pb24      1.0  0.00819285496821485  0.0038368331020434917  0.9996370774355892  1.0000
  Pb  Pb25      1.0  0.0010588560627641326  0.008748603307503116  0.9989752679973835  1.0000
  Pb  Pb26      1.0  0.00605885605478471  0.008748603307503116  0.9996573646203483  1.0000
  Pb  Pb27      1.0  0.005307761363187865  0.008867326447664237  0.9989768419576945  1.0000
  Pb  Pb28      1.0  0.00030776127142450834  0.008867326447664237  0.9996589380776453  1.0000
  Pb  Pb29      1.0  0.0018560218876472181  0.0011631671244349414  0.999411738054545  1.0000
  Pb  Pb30      1.0  0.0068560219794105755  0.0011631671244349414  0.9987296419345942  1.0000
  Pb  Pb31      1.0  0.0060595652202772  0.0038673265357391825  0.9999999861498443  1.0000
  Pb  Pb32      1.0  0.0010595651285138443  0.0038673265357391825  0.9993178900298936  1.0000
  Pb  Pb33      1.0  0.005189747131499767  0.0037486030810246827  0.9993163165727298  1.0000
  Pb  Pb34      1.0  0.0001897471394791889  0.0037486030810246827  0.9999984126926805  1.0000
  Pb  Pb35      1.0  0.007487332963047463  0.0025000001132392167  0.9991833594335846  1.0000
  Pb  Pb36      1.0  0.0024873327715413274  0.0025000001132392167  0.9998654560565494  1.0000
  Pd  Pd1       1.0  0.001316468120375572  0.004996856265452372  0.9988520155884238  1.0000
  Pd  Pd2       1.0  0.00631646801265337  0.004996856265452372  0.9995341117083746  1.0000
  Pd  Pd3       1.0  0.003591486573111455  0.009944327650355307  0.999518813136567  1.0000
  Pd  Pd4       1.0  0.008591486565132034  0.009944327650355307  0.9988367170166162  1.0000
  Pd  Pd5       1.0  0.0044054607071010166  0.0014032558104199568  0.9999761061945266  1.0000
  Pd  Pd6       1.0  0.009405460499636035  0.0014032558104199568  0.9992940100745759  1.0000
  Pd  Pd7       1.0  0.003819612178929901  3.1438000631991842e-06  0.9988326076618769  1.0000
  Pd  Pd8       1.0  0.008819612370436037  3.1438000631991842e-06  0.9995147037818276  1.0000
  Pd  Pd9       1.0  0.0068765436829302685  0.0013018770649548602  0.9989642005263237  1.0000
  Pd  Pd10      1.0  0.0018765436909096902  0.0013018770649548602  0.9996462966462745  1.0000
  Pd  Pd11      1.0  0.009287376450499492  0.006251104837289439  0.9989506838926215  1.0000
  Pd  Pd12      1.0  0.004287376258993356  0.006251104837289439  0.9996327800125723  1.0000
  Pd  Pd13      1.0  0.001180387809790411  0.009996856177377425  0.9991930636361755  1.0000
  Pd  Pd14      1.0  0.006180388001296546  0.009996856177377425  0.9998751597561263  1.0000
  Pd  Pd15      1.0  0.008074666770533796  0.003698123240161918  0.9994025188438262  1.0000
  Pd  Pd16      1.0  0.00307466667877044  0.003698123240161918  0.9987204227238755  1.0000
  Pd  Pd17      1.0  0.0005022047397757962  0.003596744258781787  0.999072709295674  1.0000
  Pd  Pd18      1.0  0.005502204931281932  0.003596744258781787  0.9997548054156249  1.0000
  Pd  Pd19      1.0  0.0044637284148685745  0.0012511049253643848  0.9992917319648206  1.0000
  Pd  Pd20      1.0  0.009463728207403594  0.0012511049253643848  0.9999738280847713  1.0000
  Pd  Pd21      1.0  0.008123456409631802  0.008698123152086972  0.9990614707716272  1.0000
  Pd  Pd22      1.0  0.0031234563178684457  0.008698123152086972  0.999743566891578  1.0000
  Pd  Pd23      1.0  0.005712624001714523  0.0037488953011140485  0.9990749874053627  1.0000
  Pd  Pd24      1.0  0.0007126238102083869  0.0037488953011140485  0.9997570835253136  1.0000
  Pd  Pd25      1.0  1.989977555431805e-05  0.0075064458530128  0.9998655785654075  1.0000
  Pd  Pd26      1.0  0.005019899867317675  0.0075064458530128  0.9991834824454566  1.0000
  Pd  Pd27      1.0  0.008852840956025213  0.004944327423876875  0.9991777650889485  1.0000
  Pd  Pd28      1.0  0.003852840964004635  0.004944327423876875  0.9998598612088992  1.0000
  Pd  Pd29      1.0  1.345426225916871e-05  0.0074935548264225  0.9991832369000129  1.0000
  Pd  Pd30      1.0  0.005013454354022525  0.0074935548264225  0.9998653330199636  1.0000
  Pd  Pd31      1.0  0.004497795386959858  0.00640325619417508  0.998952962002177  1.0000
  Pd  Pd32      1.0  0.009497795279237655  0.00640325619417508  0.9996350581221277  1.0000
  Pd  Pd33      1.0  0.006925333282709102  0.006301876898241569  0.9999873446940595  1.0000
  Pd  Pd34      1.0  0.0019253332906885245  0.006301876898241569  0.9993052485741087  1.0000
  Pd  Pd35      1.0  0.00498654588558092  0.0025064454692576765  0.9988424343979048  1.0000
  Pd  Pd36      1.0  0.009986545678115938  0.0025064454692576765  0.9995245305178555  1.0000
  Pd  Pd37      1.0  0.006147159097217686  0.005055672714526613  0.9988479062090357  1.0000
  Pd  Pd38      1.0  0.0011471591051971086  0.005055672714526613  0.9995300023289866  1.0000
  Pd  Pd39      1.0  0.002501812689974269  0.0075000000251642706  0.9988423113613856  1.0000
  Pd  Pd40      1.0  0.007501812681994846  0.0075000000251642706  0.9995244079843504  1.0000
  Pd  Pd41      1.0  0.0036835319488261703  0.005003143872951115  0.9991736557095604  1.0000
  Pd  Pd42      1.0  0.008683532040589527  0.005003143872951115  0.9998557518295111  1.0000
  Pd  Pd43      1.0  0.004980100450924115  0.002493554599944067  0.9995242849723451  1.0000
  Pd  Pd44      1.0  0.009980100243459135  0.002493554599944067  0.9988421888523944  1.0000
  Pd  Pd45      1.0  0.0005945394407390719  0.00859674448526022  0.9994137573432926  1.0000
  Pd  Pd46      1.0  0.0055945396322452075  0.00859674448526022  0.9987316607203278  1.0000
  Pd  Pd47      1.0  0.001408513552611598  5.567260109080016e-05  0.9998710504012709  1.0000
  Pd  Pd48      1.0  0.0064085135446321755  5.567260109080016e-05  0.9991889542813202  1.0000
  Pd  Pd49      1.0  0.0024981873792274747  0.0025000001132392167  0.9991833594335846  1.0000
  Pd  Pd50      1.0  0.007498187371248052  0.0025000001132392167  0.9998654560565494  1.0000
  Pd  Pd51      1.0  0.0005362716543331692  0.008748895213039103  0.9987339393331637  1.0000
  Pd  Pd52      1.0  0.005536271546610967  0.008748895213039103  0.9994160354531144  1.0000
