data_image0
_chemical_formula_structural       HTi2Pt16Ti2Pt16Ti2Pt16
_chemical_formula_sum              "H1 Ti6 Pt48"
_cell_length_a       11.958724975585938
_cell_length_b       9.334465867751936
_cell_length_c       109.53062438964844
_cell_angle_alpha    64.94481397218603
_cell_angle_beta     90.0
_cell_angle_gamma    50.16579429072338

_space_group_name_H-M_alt    "P 1"
_space_group_IT_number       1

loop_
  _space_group_symop_operation_xyz
  'x, y, z'

loop_
  _atom_site_type_symbol
  _atom_site_label
  _atom_site_symmetry_multiplicity
  _atom_site_fract_x
  _atom_site_fract_y
  _atom_site_fract_z
  _atom_site_occupancy
  H   H1        1.0  0.0058451479203097826  0.0034761480390732356  0.9998745425781616  1.0000
  Ti  Ti1       1.0  7.145594829069682e-05  1.8874349636547595e-05  0.9990183978137556  1.0000
  Ti  Ti2       1.0  0.005071455736851701  1.8874349636547595e-05  0.9988379431002892  1.0000
  Pt  Pt1       1.0  0.001690295815698579  0.006781194191942793  0.9989547941029184  1.0000
  Pt  Pt2       1.0  0.0034526159302860717  0.0032565539627678066  0.9989015469396166  1.0000
  Pt  Pt3       1.0  0.008452615878253777  1.8874349636547595e-05  0.9988379431002892  1.0000
  Pt  Pt4       1.0  7.145594464016226e-05  0.006729149826725377  0.9987762177190881  1.0000
  Pt  Pt5       1.0  0.0017817316940102388  0.003308598327985223  0.999080123323447  1.0000
  Pt  Pt6       1.0  0.008361180375947236  0.006729149826725377  0.9989566724325546  1.0000
  Pt  Pt7       1.0  7.145594464016168e-05  0.003308598327985223  0.9988996686099805  1.0000
  Pt  Pt8       1.0  0.006690295919422449  1.8874349636547595e-05  0.9990183978137556  1.0000
  Pt  Pt9       1.0  0.0066902958281590715  0.006781194191942793  0.998774339389452  1.0000
  Pt  Pt10      1.0  0.008452615942746565  0.0032565539627678066  0.999082001653083  1.0000
  Pt  Pt11      1.0  0.0034526158657932847  1.8874349636547595e-05  0.9990183978137556  1.0000
  Pt  Pt12      1.0  0.005071455645588324  0.006729149826725377  0.9989566724325546  1.0000
  Pt  Pt13      1.0  0.0067817313949584  0.003308598327985223  0.9988996686099805  1.0000
  Pt  Pt14      1.0  0.0033611800519744123  0.006729149826725377  0.9987762177190881  1.0000
  Pt  Pt15      1.0  0.005071455801344489  0.003308598327985223  0.999080123323447  1.0000
  Pt  Pt16      1.0  0.0016902957512057912  1.8874349636547595e-05  0.9988379431002892  1.0000
  Ti  Ti3       1.0  7.145594829069682e-05  1.8874349636547595e-05  0.9993793072406885  1.0000
  Ti  Ti4       1.0  0.005071455736851701  1.8874349636547595e-05  0.9991988525272221  1.0000
  Pt  Pt17      1.0  0.001690295815698579  0.006781194191942793  0.9993157035298512  1.0000
  Pt  Pt18      1.0  0.0034526159302860717  0.0032565539627678066  0.9992624563665495  1.0000
  Pt  Pt19      1.0  0.008452615878253777  1.8874349636547595e-05  0.9991988525272221  1.0000
  Pt  Pt20      1.0  7.145594464016226e-05  0.006729149826725377  0.999137127146021  1.0000
  Pt  Pt21      1.0  0.0017817316940102388  0.003308598327985223  0.9994410327503798  1.0000
  Pt  Pt22      1.0  0.008361180375947236  0.006729149826725377  0.9993175818594874  1.0000
  Pt  Pt23      1.0  7.145594464016168e-05  0.003308598327985223  0.9992605780369134  1.0000
  Pt  Pt24      1.0  0.006690295919422449  1.8874349636547595e-05  0.9993793072406885  1.0000
  Pt  Pt25      1.0  0.0066902958281590715  0.006781194191942793  0.9991352488163848  1.0000
  Pt  Pt26      1.0  0.008452615942746565  0.0032565539627678066  0.9994429110800159  1.0000
  Pt  Pt27      1.0  0.0034526158657932847  1.8874349636547595e-05  0.9993793072406885  1.0000
  Pt  Pt28      1.0  0.005071455645588324  0.006729149826725377  0.9993175818594874  1.0000
  Pt  Pt29      1.0  0.0067817313949584  0.003308598327985223  0.9992605780369134  1.0000
  Pt  Pt30      1.0  0.0033611800519744123  0.006729149826725377  0.999137127146021  1.0000
  Pt  Pt31      1.0  0.005071455801344489  0.003308598327985223  0.9994410327503798  1.0000
  Pt  Pt32      1.0  0.0016902957512057912  1.8874349636547595e-05  0.9991988525272221  1.0000
  Ti  Ti5       1.0  0.009928543622747088  0.00030477834992361614  0.9997165183116652  1.0000
  Ti  Ti6       1.0  0.005108393843316136  0.009945505303704286  0.9995660255684984  1.0000
  Pt  Pt33      1.0  0.0017252328582090764  0.006710807357624211  0.9996892418818731  1.0000
  Pt  Pt34      1.0  0.0034523696797880508  0.003257150508882557  0.9996230770699887  1.0000
  Pt  Pt35      1.0  0.008523132833463534  0.009845238206551834  0.9995769940297877  1.0000
  Pt  Pt36      1.0  7.145594464016226e-05  0.006729149826725377  0.9994980360287714  1.0000
  Pt  Pt37      1.0  0.001703037916104715  0.003465445721413515  0.999780446787471  1.0000
  Pt  Pt38      1.0  0.008380216894522901  0.006681554480625906  0.9996808854656103  1.0000
  Pt  Pt39      1.0  0.00012469978808987375  0.0031645721590952587  0.9996323161584142  1.0000
  Pt  Pt40      1.0  0.006655498343173068  0.00998070557413487  0.9997317854342656  1.0000
  Pt  Pt41      1.0  0.0066902958281590715  0.006781194191942793  0.9994961582433177  1.0000
  Pt  Pt42      1.0  0.008396857104488792  0.0033687918557936945  0.9997939818121461  1.0000
  Pt  Pt43      1.0  0.003524738978584061  0.00998112549275768  0.9997317724557411  1.0000
  Pt  Pt44      1.0  0.005100034721413674  0.006681814281910346  0.9996808521451115  1.0000
  Pt  Pt45      1.0  0.006872506399858863  0.0031650403621294467  0.9996323602089661  1.0000
  Pt  Pt46      1.0  0.0033611800519744123  0.006729149826725377  0.9994980360287714  1.0000
  Pt  Pt47      1.0  0.004992747382359386  0.003465509269929133  0.9997803949733419  1.0000
  Pt  Pt48      1.0  0.0017934173003442211  0.009844976536193406  0.9995769316416299  1.0000
