data_image0
_chemical_formula_structural       COV6Sn2V6Sn2
_chemical_formula_sum              "C1 O1 V12 Sn4"
_cell_length_a       5.671743886488486
_cell_length_b       4.542364597320557
_cell_length_c       30.297794342041016
_cell_angle_alpha    90.0
_cell_angle_beta     119.99999990255856
_cell_angle_gamma    90.0

_space_group_name_H-M_alt    "P 1"
_space_group_IT_number       1

loop_
  _space_group_symop_operation_xyz
  'x, y, z'

loop_
  _atom_site_type_symbol
  _atom_site_label
  _atom_site_symmetry_multiplicity
  _atom_site_fract_x
  _atom_site_fract_y
  _atom_site_fract_z
  _atom_site_occupancy
  C   C1        1.0  0.009230574261764476  0.002500001410608765  0.000863981258712952  1.0000
  O   O1        1.0  0.009230574261764476  0.002500001410608765  0.001260049513084907  1.0000
  V   V1        1.0  0.0009733043992217414  0.00750000013121942  0.9988048082214621  1.0000
  V   V2        1.0  0.0024675547200296243  0.002499999975396359  0.9993642552490954  1.0000
  V   V3        1.0  0.007984802877832495  0.002499999975396359  0.9993642549175531  1.0000
  V   V4        1.0  0.006490553125843672  0.00750000013121942  0.998804808189073  1.0000
  V   V5        1.0  0.0007694250954699845  0.007499999311098045  0.9995660883720924  1.0000
  V   V6        1.0  0.007467448290191183  0.002500001410608765  0.00020386719790964575  1.0000
  Sn  Sn1       1.0  0.006120730862778927  0.007499999311098045  0.999697744292441  1.0000
  Sn  Sn2       1.0  0.0028750777416387055  0.002499999770366015  0.0003557540931787276  1.0000
  V   V7        1.0  0.0009733043992217414  0.00750000013121942  0.9969328092288736  1.0000
  V   V8        1.0  0.0024675547200296243  0.002499999975396359  0.997492256256507  1.0000
  V   V9        1.0  0.007984802877832495  0.002499999975396359  0.9974922561708763  1.0000
  V   V10       1.0  0.006490553125843672  0.00750000013121942  0.9969328091964845  1.0000
  V   V11       1.0  0.0009733043992217414  0.00750000013121942  0.9977719797834363  1.0000
  V   V12       1.0  0.007984802877832495  0.002499999975396359  0.9985250846089021  1.0000
  Sn  Sn3       1.0  0.006145720221766989  0.00750000013121942  0.9978365323513442  1.0000
  Sn  Sn4       1.0  0.002812387055287247  0.002499999975396359  0.9984605320409943  1.0000
