data_image0
_chemical_formula_structural       HAl3Cu9Al3Cu9
_chemical_formula_sum              "H1 Al6 Cu18"
_cell_length_a       5.269715785980225
_cell_length_b       5.26971586144479
_cell_length_c       108.7243423461914
_cell_angle_alpha    90.0
_cell_angle_beta     90.0
_cell_angle_gamma    60.000000473715815

_space_group_name_H-M_alt    "P 1"
_space_group_IT_number       1

loop_
  _space_group_symop_operation_xyz
  'x, y, z'

loop_
  _atom_site_type_symbol
  _atom_site_label
  _atom_site_symmetry_multiplicity
  _atom_site_fract_x
  _atom_site_fract_y
  _atom_site_fract_z
  _atom_site_occupancy
  H   H1        1.0  0.006672627778786037  0.006672627365805474  0.00011331776323956191  1.0000
  Al  Al1       1.0  0.00667262988490738  0.006672630222806082  0.9990126908504849  1.0000
  Al  Al2       1.0  5.963300318345029e-06  5.963549937555885e-06  0.9994084354667909  1.0000
  Al  Al3       1.0  0.0033392968085470694  0.0033392967996813015  0.9992105632956925  1.0000
  Cu  Cu1       1.0  0.00833929659646977  0.0033392967996813015  0.9992105632956925  1.0000
  Cu  Cu2       1.0  0.0016726300969846786  0.006672630222806082  0.9990126908504849  1.0000
  Cu  Cu3       1.0  0.005005963433418942  5.963549937555885e-06  0.9994084354667909  1.0000
  Cu  Cu4       1.0  0.0033392969649495194  0.008339296628261265  0.9992105632956925  1.0000
  Cu  Cu5       1.0  0.00667263018400283  0.0016726301901546466  0.9990126908504849  1.0000
  Cu  Cu6       1.0  5.963433091308512e-06  0.005005963409207956  0.9994084354667909  1.0000
  Cu  Cu7       1.0  0.008339297106334386  0.008339296628261265  0.9992105632956925  1.0000
  Cu  Cu8       1.0  0.001672630042617963  0.0016726301901546466  0.9990126908504849  1.0000
  Cu  Cu9       1.0  0.0050059635744761745  0.005005963409207956  0.9994084354667909  1.0000
  Al  Al4       1.0  0.00667262988490738  0.006672630222806082  0.9996063076378894  1.0000
  Al  Al5       1.0  5.971900178733451e-06  5.9740500525166916e-06  9.337249487166155e-06  1.0000
  Al  Al6       1.0  0.003339296597149774  0.00333929863632455  0.9998063968027012  1.0000
  Cu  Cu10      1.0  0.008343714384874542  0.003330530501456045  0.999802483622403  1.0000
  Cu  Cu11      1.0  0.0016726300969846786  0.006672630222806082  0.9996063076378894  1.0000
  Cu  Cu12      1.0  0.005011962909149519  0.009994036280603408  0.999999998903564  1.0000
  Cu  Cu13      1.0  0.003330528026978364  0.008343716816346072  0.999802483622403  1.0000
  Cu  Cu14      1.0  0.00667263018400283  0.0016726301901546466  0.9996063076378894  1.0000
  Cu  Cu15      1.0  0.00999403723293226  0.005011962294200614  0.999999998903564  1.0000
  Cu  Cu16      1.0  0.008343662677991318  0.008343666206621001  0.9998024825259669  1.0000
  Cu  Cu17      1.0  0.001672630042617963  0.0016726301901546466  0.9996063076378894  1.0000
  Cu  Cu18      1.0  0.005011883697129189  0.005011883930755343  0.0  1.0000
