data_image0
_chemical_formula_structural       Ni8W2Ni8W2Ni8W2Ni8W2H
_chemical_formula_sum              "Ni32 W8 H1"
_cell_length_a       5.7781853675842285
_cell_length_b       7.155918598175049
_cell_length_c       35.33089065551758
_cell_angle_alpha    90.0
_cell_angle_beta     90.0
_cell_angle_gamma    90.0

_space_group_name_H-M_alt    "P 1"
_space_group_IT_number       1

loop_
  _space_group_symop_operation_xyz
  'x, y, z'

loop_
  _atom_site_type_symbol
  _atom_site_label
  _atom_site_symmetry_multiplicity
  _atom_site_fract_x
  _atom_site_fract_y
  _atom_site_fract_z
  _atom_site_occupancy
  Ni  Ni1       1.0  0.0015441508260559131  0.003749999989588226  0.9992386871076686  1.0000
  Ni  Ni2       1.0  0.008571477437240117  0.0012500000832941906  0.9994045961570458  1.0000
  Ni  Ni3       1.0  0.0024732111931022906  0.0012500000832941906  0.9997223637386805  1.0000
  Ni  Ni4       1.0  0.00947541611124787  0.003749999989588226  0.999861425646698  1.0000
  Ni  Ni5       1.0  0.006425024744727417  0.0012500000832941906  3.057718798900557e-05  1.0000
  Ni  Ni6       1.0  0.0035060420336048004  0.003749999989588226  0.9985895092693295  1.0000
  Ni  Ni7       1.0  0.007489911685626346  0.003749999989588226  0.9989152751101543  1.0000
  Ni  Ni8       1.0  0.004502022985652514  0.0012500000832941906  0.9990781626699282  1.0000
  W   W1        1.0  0.0004979769369815295  0.0012500000832941906  0.9987523921897419  1.0000
  W   W2        1.0  0.0054991476644187486  0.003749999989588226  0.9995754423305572  1.0000
  Ni  Ni9       1.0  0.0014939308109445883  0.003749999989588226  0.9976088971339584  1.0000
  Ni  Ni10      1.0  0.008506041956238844  0.0012500000832941906  0.9977717846937322  1.0000
  Ni  Ni11      1.0  0.002489911762992302  0.0012500000832941906  0.9980975509563171  1.0000
  Ni  Ni12      1.0  0.009502022908286558  0.003749999989588226  0.998260438516091  1.0000
  Ni  Ni13      1.0  0.006493930733578632  0.0012500000832941906  0.9984266217095557  1.0000
  Ni  Ni14      1.0  0.0035060420336048004  0.003749999989588226  0.9969540605398951  1.0000
  Ni  Ni15      1.0  0.007489911685626346  0.003749999989588226  0.99727982680248  1.0000
  Ni  Ni16      1.0  0.004502022985652514  0.0012500000832941906  0.9974427143622538  1.0000
  W   W3        1.0  0.0004979769369815295  0.0012500000832941906  0.9971169438820676  1.0000
  W   W4        1.0  0.005497976859615573  0.003749999989588226  0.9979346680359048  1.0000
  Ni  Ni17      1.0  0.0015441508260559131  0.008750000583059334  0.9992386871076686  1.0000
  Ni  Ni18      1.0  0.008571477437240117  0.006250000416470953  0.9994045961570458  1.0000
  Ni  Ni19      1.0  0.0024732111931022906  0.006250000416470953  0.9997223637386805  1.0000
  Ni  Ni20      1.0  0.00947541611124787  0.008750000583059334  0.999861425646698  1.0000
  Ni  Ni21      1.0  0.006425024744727417  0.006250000416470953  3.057718798900557e-05  1.0000
  Ni  Ni22      1.0  0.0035060420336048004  0.008750000583059334  0.9985895092693295  1.0000
  Ni  Ni23      1.0  0.007489911685626346  0.008750000583059334  0.9989152751101543  1.0000
  Ni  Ni24      1.0  0.004502022985652514  0.006250000416470953  0.9990781626699282  1.0000
  W   W5        1.0  0.0004979769369815295  0.006250000416470953  0.9987523921897419  1.0000
  W   W6        1.0  0.0054991476644187486  0.008750000583059334  0.9995754423305572  1.0000
  Ni  Ni25      1.0  0.0014939308109445883  0.008750000583059334  0.9976088971339584  1.0000
  Ni  Ni26      1.0  0.008506041956238844  0.006250000416470953  0.9977717846937322  1.0000
  Ni  Ni27      1.0  0.002489911762992302  0.006250000416470953  0.9980975509563171  1.0000
  Ni  Ni28      1.0  0.009502022908286558  0.008750000583059334  0.998260438516091  1.0000
  Ni  Ni29      1.0  0.006493930733578632  0.006250000416470953  0.9984266217095557  1.0000
  Ni  Ni30      1.0  0.0035060420336048004  0.008750000583059334  0.9969540605398951  1.0000
  Ni  Ni31      1.0  0.007489911685626346  0.008750000583059334  0.99727982680248  1.0000
  Ni  Ni32      1.0  0.004502022985652514  0.006250000416470953  0.9974427143622538  1.0000
  W   W7        1.0  0.0004979769369815295  0.006250000416470953  0.9971169438820676  1.0000
  W   W8        1.0  0.005497976859615573  0.008750000583059334  0.9979346680359048  1.0000
  H   H1        1.0  0.0054991476644187486  0.003749999989588226  0.0  1.0000
