data_image0
_chemical_formula_structural       COVCu3Se4VCu3Se4
_chemical_formula_sum              "C1 O1 V2 Cu6 Se8"
_cell_length_a       5.705760478973389
_cell_length_b       5.705760478973389
_cell_length_c       104.23455810546875
_cell_angle_alpha    90.0
_cell_angle_beta     90.0
_cell_angle_gamma    90.0

_space_group_name_H-M_alt    "P 1"
_space_group_IT_number       1

loop_
  _space_group_symop_operation_xyz
  'x, y, z'

loop_
  _atom_site_type_symbol
  _atom_site_label
  _atom_site_symmetry_multiplicity
  _atom_site_fract_x
  _atom_site_fract_y
  _atom_site_fract_z
  _atom_site_occupancy
  C   C1        1.0  0.003739352796128849  2.426299944937983e-06  0.00016616863005986137  1.0000
  O   O1        1.0  0.003739352796128849  2.426299944937983e-06  0.0002812938297710067  1.0000
  V   V1        1.0  0.0037347505049162002  0.009998929792642343  0.9997474899004424  1.0000
  Cu  Cu1       1.0  0.00373359748373851  0.004998794694600391  0.9997527153002892  1.0000
  Cu  Cu2       1.0  0.008732965424428375  0.00999889780054851  0.9997526323846645  1.0000
  Cu  Cu3       1.0  0.003739352796128849  2.426299944937983e-06  0.0  1.0000
  Se  Se1       1.0  0.006154302767911039  0.0024212711851384194  0.99961828848683  1.0000
  Se  Se2       1.0  0.006202589936800964  0.007528374297281254  0.9998864742140962  1.0000
  Se  Se3       1.0  0.0013138996240717436  0.007580868100060113  0.99961828848683  1.0000
  Se  Se4       1.0  0.0012658986701641348  0.0024695655359269594  0.999886280934916  1.0000
  V   V2        1.0  0.003734101195991391  1.0696999320362571e-06  0.9992033732688224  1.0000
  Cu  Cu4       1.0  0.003734101195991391  0.005001069397761813  0.9992033732688224  1.0000
  Cu  Cu5       1.0  0.008734100817309465  1.0696999320362571e-06  0.9992033732688224  1.0000
  Cu  Cu6       1.0  0.003734101195991391  1.0696999320362571e-06  0.9994770717414622  1.0000
  Se  Se5       1.0  0.006154302767911039  0.0024212711851384194  0.9990708923992982  1.0000
  Se  Se6       1.0  0.006154302767911039  0.007580868100060113  0.9993358544242624  1.0000
  Se  Se7       1.0  0.0013138996240717436  0.007580868100060113  0.9990708923992982  1.0000
  Se  Se8       1.0  0.0013138996240717436  0.0024212711851384194  0.9993358544242624  1.0000
