data_image0
_chemical_formula_structural       COFe6Sb12
_chemical_formula_sum              "C1 O1 Fe6 Sb12"
_cell_length_a       7.314010386309509
_cell_length_b       6.659203456180942
_cell_length_c       107.32134246826172
_cell_angle_alpha    111.50415274345264
_cell_angle_beta     117.89342230845637
_cell_angle_gamma    77.20731594821225

_space_group_name_H-M_alt    "P 1"
_space_group_IT_number       1

loop_
  _space_group_symop_operation_xyz
  'x, y, z'

loop_
  _atom_site_type_symbol
  _atom_site_label
  _atom_site_symmetry_multiplicity
  _atom_site_fract_x
  _atom_site_fract_y
  _atom_site_fract_z
  _atom_site_occupancy
  C   C1        1.0  0.0069541780789041776  0.0034237307755603384  0.0002995922012765646  1.0000
  O   O1        1.0  0.0069541780789041776  0.0034237307755603384  0.00041140616150767  1.0000
  Fe  Fe1       1.0  0.007632103577445473  0.0071493849906413  0.9999859432179297  1.0000
  Fe  Fe2       1.0  0.0009654370782118678  0.0004827185087807499  0.9994063543230506  1.0000
  Fe  Fe3       1.0  0.0042987705443369405  0.003816051698414304  0.99969614863738  1.0000
  Fe  Fe4       1.0  0.007632103577445473  0.0071493849906413  0.9995512515701602  1.0000
  Fe  Fe5       1.0  0.0009654370782118678  0.0004827185087807499  0.99984104597082  1.0000
  Fe  Fe6       1.0  0.0042987705443369405  0.003816051698414304  0.0001308402851494055  1.0000
  Sb  Sb1       1.0  0.009345076594090231  0.0072752836887274306  0.9998260749009544  1.0000
  Sb  Sb2       1.0  0.0026784102391954733  0.0006086169722444411  0.00011586930087956578  1.0000
  Sb  Sb3       1.0  0.006011743560981699  0.003941950396500435  0.9995362803204049  1.0000
  Sb  Sb4       1.0  0.009252464171264633  0.0003568199450439808  0.9995662227798714  1.0000
  Sb  Sb5       1.0  0.0025857975276921815  0.003690153300965112  0.9998560169611933  1.0000
  Sb  Sb6       1.0  0.005919130560800714  0.007023486292555169  0.00014581125721236334  1.0000
  Sb  Sb7       1.0  0.000654923371268446  0.004655590241670164  0.9995052590365835  1.0000
  Sb  Sb8       1.0  0.003988256693054672  0.007988923816244628  0.9997950533550666  1.0000
  Sb  Sb9       1.0  0.007321590303518591  0.0013222570177780306  8.484760762245158e-05  1.0000
  Sb  Sb10      1.0  0.0046092841069415155  0.00964318010394351  0.9995972439890397  1.0000
  Sb  Sb11      1.0  0.007942617428727742  0.002976513173447916  0.9998870385070812  1.0000
  Sb  Sb12      1.0  0.0012759506408164432  0.006309846538513782  0.00017683296170147475  1.0000
