data_image0
_chemical_formula_structural       HV8Ir8V8Ir8V8Ir8
_chemical_formula_sum              "H1 V24 Ir24"
_cell_length_a       11.977918651763883
_cell_length_b       13.469629287719727
_cell_length_c       101.07386779785156
_cell_angle_alpha    90.0
_cell_angle_beta     103.6412658942991
_cell_angle_gamma    32.881823983606964

_space_group_name_H-M_alt    "P 1"
_space_group_IT_number       1

loop_
  _space_group_symop_operation_xyz
  'x, y, z'

loop_
  _atom_site_type_symbol
  _atom_site_label
  _atom_site_symmetry_multiplicity
  _atom_site_fract_x
  _atom_site_fract_y
  _atom_site_fract_z
  _atom_site_occupancy
  H   H1        1.0  0.0019631218026513373  0.002622755873493425  8.987768858976899e-05  1.0000
  V   V1        1.0  0.0014787834558983672  0.0074999999742305975  0.9999015858251677  1.0000
  V   V2        1.0  0.006478783551299843  0.00749999988086032  4.1330024371919175e-05  1.0000
  V   V3        1.0  0.0035212166395031112  0.007500000153654821  0.9999586694620127  1.0000
  V   V4        1.0  0.008521216575902128  0.007499999625886477  0.999818925334463  1.0000
  V   V5        1.0  0.00897878367850181  0.002499999608862818  0.9998317140987428  1.0000
  V   V6        1.0  0.0039787834240978745  0.0024999998209742753  0.9999714579225478  1.0000
  V   V7        1.0  0.006021216448700159  0.002500000119139679  2.8541554948932978e-05  1.0000
  V   V8        1.0  0.0010212165918023733  0.002500000034398186  0.9998887973624107  1.0000
  Ir  Ir1       1.0  0.009664122440747288  0.00033587731985276536  0.9999906126828351  1.0000
  Ir  Ir2       1.0  0.004664122186343353  0.0003358778085338472  0.9998508684791869  1.0000
  Ir  Ir3       1.0  0.0053358776864546814  0.00466412240814973  0.9998696432657136  1.0000
  Ir  Ir4       1.0  0.0003358777103050493  0.004664122412464123  9.3873921523084e-06  1.0000
  Ir  Ir5       1.0  0.007164122313545322  0.005335878144989515  0.999920740581011  1.0000
  Ir  Ir6       1.0  0.0021641223771463047  0.005335877566479366  6.0484708560765534e-05  1.0000
  Ir  Ir7       1.0  0.002835877559252714  0.009664122127007986  7.925948619948095e-05  1.0000
  Ir  Ir8       1.0  0.007835877813656649  0.009664122468035776  0.9999395153675376  1.0000
  V   V9        1.0  0.0014787834558983672  0.0074999999742305975  0.9996220975028577  1.0000
  V   V10       1.0  0.006478783551299843  0.00749999988086032  0.9997618419969188  1.0000
  V   V11       1.0  0.0035212166395031112  0.007500000153654821  0.9996791814345596  1.0000
  V   V12       1.0  0.008521216575902128  0.007499999625886477  0.999539437012153  1.0000
  V   V13       1.0  0.00897878367850181  0.002499999608862818  0.999552225481576  1.0000
  V   V14       1.0  0.0039787834240978745  0.0024999998209742753  0.9996919698950947  1.0000
  V   V15       1.0  0.006021216448700159  0.002500000119139679  0.9997490535274958  1.0000
  V   V16       1.0  0.0010212165918023733  0.002500000034398186  0.9996093090401007  1.0000
  Ir  Ir9       1.0  0.009664122440747288  0.00033587731985276536  0.9997111240656682  1.0000
  Ir  Ir10      1.0  0.004664122186343353  0.0003358778085338472  0.9995713798620202  1.0000
  Ir  Ir11      1.0  0.0053358776864546814  0.00466412240814973  0.9995901546485467  1.0000
  Ir  Ir12      1.0  0.0003358777103050493  0.004664122412464123  0.9997298990698423  1.0000
  Ir  Ir13      1.0  0.007164122313545322  0.005335878144989515  0.9996412519638441  1.0000
  Ir  Ir14      1.0  0.0021641223771463047  0.005335877566479366  0.9997809963862507  1.0000
  Ir  Ir15      1.0  0.002835877559252714  0.009664122127007986  0.9997997711638895  1.0000
  Ir  Ir16      1.0  0.007835877813656649  0.009664122468035776  0.9996600267503708  1.0000
  V   V17       1.0  0.0014787834558983672  0.0074999999742305975  0.9993426091805477  1.0000
  V   V18       1.0  0.006478783551299843  0.00749999988086032  0.9994823533797519  1.0000
  V   V19       1.0  0.0035212166395031112  0.007500000153654821  0.9993996928173927  1.0000
  V   V20       1.0  0.008521216575902128  0.007499999625886477  0.999259948689843  1.0000
  V   V21       1.0  0.00897878367850181  0.002499999608862818  0.999272737159266  1.0000
  V   V22       1.0  0.0039787834240978745  0.0024999998209742753  0.9994124812779279  1.0000
  V   V23       1.0  0.006021216448700159  0.002500000119139679  0.9994695649103289  1.0000
  V   V24       1.0  0.0010212165918023733  0.002500000034398186  0.9993298207177906  1.0000
  Ir  Ir17      1.0  0.009664122440747288  0.00033587731985276536  0.9994316357433582  1.0000
  Ir  Ir18      1.0  0.004664122186343353  0.0003358778085338472  0.9992918915397101  1.0000
  Ir  Ir19      1.0  0.0053358776864546814  0.00466412240814973  0.9993106663262367  1.0000
  Ir  Ir20      1.0  0.0003358777103050493  0.004664122412464123  0.9994504104526755  1.0000
  Ir  Ir21      1.0  0.007164122313545322  0.005335878144989515  0.9993617636415342  1.0000
  Ir  Ir22      1.0  0.0021641223771463047  0.005335877566479366  0.999501507769084  1.0000
  Ir  Ir23      1.0  0.002835877559252714  0.009664122127007986  0.9995202825467226  1.0000
  Ir  Ir24      1.0  0.007835877813656649  0.009664122468035776  0.9993805384280607  1.0000
