data_image0
_chemical_formula_structural       HPb16Pd8
_chemical_formula_sum              "H1 Pb16 Pd8"
_cell_length_a       5.840286492327614
_cell_length_b       10.04022216796875
_cell_length_c       100.79473876953125
_cell_angle_alpha    90.0
_cell_angle_beta     91.45360999382868
_cell_angle_gamma    90.0

_space_group_name_H-M_alt    "P 1"
_space_group_IT_number       1

loop_
  _space_group_symop_operation_xyz
  'x, y, z'

loop_
  _atom_site_type_symbol
  _atom_site_label
  _atom_site_symmetry_multiplicity
  _atom_site_fract_x
  _atom_site_fract_y
  _atom_site_fract_z
  _atom_site_occupancy
  H   H1        1.0  0.0013368989113783805  0.009566393165763926  0.0001507183335982899  1.0000
  Pb  Pb1       1.0  0.001250000035093642  0.006300818810781144  0.9994926383609509  1.0000
  Pb  Pb2       1.0  0.008749999846864108  0.0013008187477049158  0.9997472377304591  1.0000
  Pb  Pb3       1.0  0.0037500000255226485  0.0013008187477049158  0.9992380390414164  1.0000
  Pb  Pb4       1.0  0.006250000255226487  0.006300818810781144  1.8373462532614938e-06  1.0000
  Pb  Pb5       1.0  0.006300819039152723  0.007933606359309175  0.99966409632111  1.0000
  Pb  Pb6       1.0  0.0038008188094488847  0.0029336062034737865  0.9999186959359662  1.0000
  Pb  Pb7       1.0  0.008800818630790344  0.0029336062034737865  0.9994094970009894  1.0000
  Pb  Pb8       1.0  0.001300818819019878  0.007933606359309175  0.999154897631481  1.0000
  Pb  Pb9       1.0  0.008749999846864108  0.004566393566483497  0.9997472377304591  1.0000
  Pb  Pb10      1.0  0.006250000255226487  0.009566393165763926  1.8373462532614938e-06  1.0000
  Pb  Pb11      1.0  0.001250000035093642  0.009566393165763926  0.9994926383609509  1.0000
  Pb  Pb12      1.0  0.0037500000255226485  0.004566393566483497  0.9992380390414164  1.0000
  Pb  Pb13      1.0  0.0011991812511674058  0.007933606359309175  0.9998303790904208  1.0000
  Pb  Pb14      1.0  0.00869918106293787  0.0029336062034737865  8.497875560244158e-05  1.0000
  Pb  Pb15      1.0  0.0036991812415964123  0.0029336062034737865  0.9995757797708863  1.0000
  Pb  Pb16      1.0  0.006199181471300251  0.007933606359309175  0.9993211804517034  1.0000
  Pd  Pd1       1.0  0.0037500000255226485  0.005433606003114001  0.9997472377055895  1.0000
  Pd  Pd2       1.0  0.001250000035093642  0.0004336062183152519  1.8373207974593918e-06  1.0000
  Pd  Pd3       1.0  0.006250000255226487  0.0004336062183152519  0.9994926383864067  1.0000
  Pd  Pd4       1.0  0.008749999846864108  0.005433606003114001  0.999238039066286  1.0000
  Pd  Pd5       1.0  0.006250000255226487  0.005433606003114001  0.9994926383864067  1.0000
  Pd  Pd6       1.0  0.0037500000255226485  0.0004336062183152519  0.9997472377055895  1.0000
  Pd  Pd7       1.0  0.008749999846864108  0.0004336062183152519  0.999238039066286  1.0000
  Pd  Pd8       1.0  0.001250000035093642  0.005433606003114001  1.8373207974593918e-06  1.0000
