data_image0
_chemical_formula_structural       HOs12
_chemical_formula_sum              "H1 Os12"
_cell_length_a       4.793224334716797
_cell_length_b       5.151223763052468
_cell_length_c       100.4410629272461
_cell_angle_alpha    105.58173699863075
_cell_angle_beta     90.0
_cell_angle_gamma    62.27353043878389

_space_group_name_H-M_alt    "P 1"
_space_group_IT_number       1

loop_
  _space_group_symop_operation_xyz
  'x, y, z'

loop_
  _atom_site_type_symbol
  _atom_site_label
  _atom_site_symmetry_multiplicity
  _atom_site_fract_x
  _atom_site_fract_y
  _atom_site_fract_z
  _atom_site_occupancy
  H   H1        1.0  0.003884888680702613  0.003896888631688767  0.0002625157070736998  1.0000
  Os  Os1       1.0  0.00041666664942622  0.002500000008574252  0.9994833965341202  1.0000
  Os  Os2       1.0  0.005416666610566258  0.002500000008574252  0.9996211575280154  1.0000
  Os  Os3       1.0  0.004583332954227393  0.007500000240079055  0.9995522769630456  1.0000
  Os  Os4       1.0  0.00958333310966724  0.007500000240079055  0.999414516265865  1.0000
  Os  Os5       1.0  0.00041666664942622  0.002500000008574252  0.9997589182251959  1.0000
  Os  Os6       1.0  0.005416666610566258  0.002500000008574252  0.9998966792190911  1.0000
  Os  Os7       1.0  0.004583332954227393  0.007500000240079055  0.9998277986541212  1.0000
  Os  Os8       1.0  0.00958333310966724  0.007500000240079055  0.9996900379569407  1.0000
  Os  Os9       1.0  0.00041666664942622  0.002500000008574252  3.444021298615293e-05  1.0000
  Os  Os10      1.0  0.005416666610566258  0.002500000008574252  0.00017220061345220647  1.0000
  Os  Os11      1.0  0.004583332954227393  0.007500000240079055  0.00010332064191144943  1.0000
  Os  Os12      1.0  0.00958333310966724  0.007500000240079055  0.9999655596480164  1.0000
