data_image0
_chemical_formula_structural       COZn6Pt2Zn6Pt2Zn6Pt2Zn6Pt2
_chemical_formula_sum              "C1 O1 Zn24 Pt8"
_cell_length_a       7.640951156616211
_cell_length_b       7.640951156616211
_cell_length_c       102.75943756103516
_cell_angle_alpha    90.0
_cell_angle_beta     90.0
_cell_angle_gamma    90.0

_space_group_name_H-M_alt    "P 1"
_space_group_IT_number       1

loop_
  _space_group_symop_operation_xyz
  'x, y, z'

loop_
  _atom_site_type_symbol
  _atom_site_label
  _atom_site_symmetry_multiplicity
  _atom_site_fract_x
  _atom_site_fract_y
  _atom_site_fract_z
  _atom_site_occupancy
  C   C1        1.0  0.0037499993759452866  0.0012499988981533971  0.00016855341496345097  1.0000
  O   O1        1.0  0.0037499993759452866  0.0012499988981533971  0.0002853312467958558  1.0000
  Zn  Zn1       1.0  0.0024999995027064005  0.0024999982838495387  0.9999999994199594  1.0000
  Zn  Zn2       1.0  0.00999999898591109  0.00999999996099658  0.0  1.0000
  Zn  Zn3       1.0  0.0025000002340205174  2.7499999956510378e-09  0.9998007305356011  1.0000
  Zn  Zn4       1.0  6.499999968586225e-10  4.4999999558983005e-10  0.9996000631733807  1.0000
  Zn  Zn5       1.0  0.002500000721563262  0.0025000004777918894  0.9996000631733807  1.0000
  Zn  Zn6       1.0  6.499999968586225e-10  0.0025000004777918894  0.9994008148804634  1.0000
  Pt  Pt1       1.0  0.002500000721563262  4.4999999558983005e-10  0.9994008148804634  1.0000
  Pt  Pt2       1.0  0.00999999898591109  0.0024999997464777725  0.9997890415576345  1.0000
  Zn  Zn7       1.0  0.0024999995027064005  0.007499998264347828  0.9999999994199594  1.0000
  Zn  Zn8       1.0  0.00999999898591109  0.004999999492955545  0.0  1.0000
  Zn  Zn9       1.0  0.0025000002340205174  0.005000002905754758  0.9998007305356011  1.0000
  Zn  Zn10      1.0  6.499999968586225e-10  0.005000000468041035  0.9996000631733807  1.0000
  Zn  Zn11      1.0  0.002500000721563262  0.007500000702061552  0.9996000631733807  1.0000
  Zn  Zn12      1.0  6.499999968586225e-10  0.007500000702061552  0.9994008148804634  1.0000
  Pt  Pt3       1.0  0.002500000721563262  0.005000000468041035  0.9994008148804634  1.0000
  Pt  Pt4       1.0  0.00999999898591109  0.007499999726976063  0.9997890415576345  1.0000
  Zn  Zn13      1.0  0.007499999726976063  0.0024999982838495387  0.9999999994199594  1.0000
  Zn  Zn14      1.0  0.004999999492955545  0.00999999996099658  0.0  1.0000
  Zn  Zn15      1.0  0.007500000214518807  2.7499999956510378e-09  0.9998007305356011  1.0000
  Zn  Zn16      1.0  0.005000000468041035  4.4999999558983005e-10  0.9996000631733807  1.0000
  Zn  Zn17      1.0  0.007500000702061552  0.0025000004777918894  0.9996000631733807  1.0000
  Zn  Zn18      1.0  0.005000000468041035  0.0025000004777918894  0.9994008148804634  1.0000
  Pt  Pt5       1.0  0.007500000702061552  4.4999999558983005e-10  0.9994008148804634  1.0000
  Pt  Pt6       1.0  0.004999999005412801  0.0024999997464777725  0.9997890415576345  1.0000
  Zn  Zn19      1.0  0.007499999726976063  0.007499998264347828  0.9999999994199594  1.0000
  Zn  Zn20      1.0  0.004999999492955545  0.004999999492955545  0.0  1.0000
  Zn  Zn21      1.0  0.007500000214518807  0.005000002905754758  0.9998007305356011  1.0000
  Zn  Zn22      1.0  0.005000000468041035  0.005000000468041035  0.9996000631733807  1.0000
  Zn  Zn23      1.0  0.007500000702061552  0.007500000702061552  0.9996000631733807  1.0000
  Zn  Zn24      1.0  0.005000000468041035  0.007500000702061552  0.9994008148804634  1.0000
  Pt  Pt7       1.0  0.007500000702061552  0.005000000468041035  0.9994008148804634  1.0000
  Pt  Pt8       1.0  0.004999999005412801  0.007499999726976063  0.9997890415576345  1.0000
