data_image0
_chemical_formula_structural       HGa24Ir12
_chemical_formula_sum              "H1 Ga24 Ir12"
_cell_length_a       6.893231909849568
_cell_length_b       11.062582015991211
_cell_length_c       39.59550857543945
_cell_angle_alpha    90.0
_cell_angle_beta     85.86287994738495
_cell_angle_gamma    90.0

_space_group_name_H-M_alt    "P 1"
_space_group_IT_number       1

loop_
  _space_group_symop_operation_xyz
  'x, y, z'

loop_
  _atom_site_type_symbol
  _atom_site_label
  _atom_site_symmetry_multiplicity
  _atom_site_fract_x
  _atom_site_fract_y
  _atom_site_fract_z
  _atom_site_occupancy
  H   H1        1.0  0.0001581030553036654  0.00957542731512476  1.6357607120052197e-06  1.0000
  Ga  Ga1       1.0  0.002826245938720612  0.0060462779531184506  0.998186960669062  1.0000
  Ga  Ga2       1.0  0.005029778373575423  0.003929214455453201  0.9980741579639008  1.0000
  Ga  Ga3       1.0  0.005029778373575423  0.0010462778655642546  0.9980741579639008  1.0000
  Ga  Ga4       1.0  0.002826245938720612  0.008929214711380851  0.998186960669062  1.0000
  Ga  Ga5       1.0  0.001206362437906102  0.005164164037274962  0.9987818038705101  1.0000
  Ga  Ga6       1.0  0.007899661868971541  0.004811328371296689  0.9984391615939486  1.0000
  Ga  Ga7       1.0  0.00893575420297249  0.007487745995502742  0.9983861221374789  1.0000
  Ga  Ga8       1.0  0.00017027005310773442  0.0024877460763220003  0.9988348433276178  1.0000
  Ga  Ga9       1.0  0.00531059842638818  0.007487745995502742  0.9985717002248449  1.0000
  Ga  Ga10      1.0  0.0037954257450296797  0.0024877460763220003  0.9986492648649805  1.0000
  Ga  Ga11      1.0  0.001206362437906102  0.00981132862722434  0.9987818038705101  1.0000
  Ga  Ga12      1.0  0.007899661868971541  0.00016416394972076622  0.9984391615939486  1.0000
  Ga  Ga13      1.0  0.004076246068762005  0.0060462779531184506  0.9991468074988566  1.0000
  Ga  Ga14      1.0  0.0062797785036168155  0.003929214455453201  0.9990340044173608  1.0000
  Ga  Ga15      1.0  0.0062797785036168155  0.0010462778655642546  0.9990340044173608  1.0000
  Ga  Ga16      1.0  0.004076246068762005  0.008929214711380851  0.9991468074988566  1.0000
  Ga  Ga17      1.0  0.002503037539360929  0.005139512143061208  0.9997505902646516  1.0000
  Ga  Ga18      1.0  0.00901512279964762  0.004780174231018767  0.9994368059818596  1.0000
  Ga  Ga19      1.0  0.009841896715092  0.007487572234097743  0.9993373914382198  1.0000
  Ga  Ga20      1.0  0.0008989771636520992  0.0024880776036538235  0.9998580469716635  1.0000
  Ga  Ga21      1.0  0.006317657393952458  0.007487665176244603  0.9997821158390494  1.0000
  Ga  Ga22      1.0  0.004907449519145075  0.0024878162880525084  0.9995903957244506  1.0000
  Ga  Ga23      1.0  0.0025030640894786044  0.00983583639376108  0.9997507156269608  1.0000
  Ga  Ga24      1.0  0.00901523496034882  0.0001949035545538182  0.9994366171585214  1.0000
  Ir  Ir1       1.0  0.00780854078143156  0.006215881880779223  0.9989557444871665  1.0000
  Ir  Ir2       1.0  0.0012974837963656517  0.003759610864539337  0.9982652209738896  1.0000
  Ir  Ir3       1.0  0.0012974837963656517  0.0012158815406648454  0.9982652209738896  1.0000
  Ir  Ir4       1.0  0.00780854078143156  0.008759610783720078  0.9989557444871665  1.0000
  Ir  Ir5       1.0  0.007340838785015293  0.0024877460763220003  0.99846776861161  1.0000
  Ir  Ir6       1.0  0.001765185386402567  0.007487745995502742  0.9987531964782155  1.0000
  Ir  Ir7       1.0  0.009501338897509768  0.006279548598365614  0.9998807304287928  1.0000
  Ir  Ir8       1.0  0.002585922942949766  0.0037742984177184086  0.9992178682053723  1.0000
  Ir  Ir9       1.0  0.0025859275485824243  0.001201146842918526  0.9992179012649751  1.0000
  Ir  Ir10      1.0  0.009501253286926243  0.008695541990324447  0.9998806682798071  1.0000
  Ir  Ir11      1.0  0.008450024134815543  0.002487319923108773  0.9994063519595663  1.0000
  Ir  Ir12      1.0  0.002948548513952852  0.007487736566589292  0.9996449078870049  1.0000
