data_image0
_chemical_formula_structural       HFe12As12
_chemical_formula_sum              "H1 Fe12 As12"
_cell_length_a       6.882977935915948
_cell_length_b       6.361737531591053
_cell_length_c       105.04544067382812
_cell_angle_alpha    109.16753899392735
_cell_angle_beta     114.7051147329701
_cell_angle_gamma    75.33491098418118

_space_group_name_H-M_alt    "P 1"
_space_group_IT_number       1

loop_
  _space_group_symop_operation_xyz
  'x, y, z'

loop_
  _atom_site_type_symbol
  _atom_site_label
  _atom_site_symmetry_multiplicity
  _atom_site_fract_x
  _atom_site_fract_y
  _atom_site_fract_z
  _atom_site_occupancy
  H   H1        1.0  0.0021197368251176445  0.0032619966796804552  0.00023739105343351422  1.0000
  Fe  Fe1       1.0  0.0021688228635435634  0.0019415554872662007  0.9994909116727263  1.0000
  Fe  Fe2       1.0  0.005502156092655787  0.005274889112162046  0.9997689297195471  1.0000
  Fe  Fe3       1.0  0.008641498560902084  0.0082903035889212  2.9451048917227602e-05  1.0000
  Fe  Fe4       1.0  0.0011645102904092055  0.004947647233716597  0.9997409797791293  1.0000
  Fe  Fe5       1.0  0.004250362451358245  0.008152093220963018  3.731178759548926e-06  1.0000
  Fe  Fe6       1.0  0.007831176823793107  0.0016143140389789138  0.9994629616662676  1.0000
  Fe  Fe7       1.0  0.004500467260916838  0.008275733299326836  0.9996021893565247  1.0000
  Fe  Fe8       1.0  0.007833800189391244  0.0016090665325301917  0.9998802073078855  1.0000
  Fe  Fe9       1.0  0.0008014466080896568  0.0044142036990912886  0.00010972158702411069  1.0000
  Fe  Fe10      1.0  0.008832865354894238  0.008613469708099918  0.9996297018139289  1.0000
  Fe  Fe11      1.0  0.0021725443087712206  0.0019301444577119304  0.99991145997223  1.0000
  Fe  Fe12      1.0  0.004929059540352965  0.004768385016458215  0.0001437943250145416  1.0000
  As  As1       1.0  0.005337480525403694  0.009363294218213232  0.9994416695440087  1.0000
  As  As2       1.0  0.008670813754515918  0.0026966277191199347  0.9997196875089257  1.0000
  As  As3       1.0  0.0017881158750890562  0.006069700317970878  0.9999919316834835  1.0000
  As  As4       1.0  0.0079958523910452  0.007525908746944016  0.9997902219175463  1.0000
  As  As5       1.0  0.0013893420569737623  0.0006367057112536846  8.503545053219861e-05  1.0000
  As  As6       1.0  0.004662519161932976  0.0041925754320210245  0.999512203876889  1.0000
  As  As7       1.0  0.009323719125121439  0.004870174752050565  0.9994839460564444  1.0000
  As  As8       1.0  0.00265705296753481  0.008203508203924218  0.9997619641847106  1.0000
  As  As9       1.0  0.0060530442287197875  0.001202592917352123  5.887989839547168e-05  1.0000
  As  As10      1.0  0.0040096137913274545  0.002019028089117541  0.9997479453232067  1.0000
  As  As11      1.0  0.0071980077246506236  0.005349654248328143  4.665587148683876e-05  1.0000
  As  As12      1.0  0.0006762804118963222  0.008685694919318445  0.999469927360757  1.0000
