data_image0
_chemical_formula_structural       CONa16
_chemical_formula_sum              "C1 O1 Na16"
_cell_length_a       7.669324601247492
_cell_length_b       7.2784466798340235
_cell_length_c       113.6706771850586
_cell_angle_alpha    63.58596821527367
_cell_angle_beta     105.27343850881967
_cell_angle_gamma    74.72656115994668

_space_group_name_H-M_alt    "P 1"
_space_group_IT_number       1

loop_
  _space_group_symop_operation_xyz
  'x, y, z'

loop_
  _atom_site_type_symbol
  _atom_site_label
  _atom_site_symmetry_multiplicity
  _atom_site_fract_x
  _atom_site_fract_y
  _atom_site_fract_z
  _atom_site_occupancy
  C   C1        1.0  0.0014966122675144319  0.00030571211160442663  9.402906916053773e-05  1.0000
  O   O1        1.0  0.0014966122675144319  0.00030571211160442663  0.0001995974058315575  1.0000
  Na  Na1       1.0  0.0035033873399811415  0.009694287835877065  0.9986479323008316  1.0000
  Na  Na2       1.0  0.0035033873965832473  0.004694288001389942  0.9989680873714288  1.0000
  Na  Na3       1.0  0.001836721021804602  0.0005276213135036752  0.9989147279709463  1.0000
  Na  Na4       1.0  0.001836720967538078  0.005527621466284793  0.9992348829979867  1.0000
  Na  Na5       1.0  0.0035033873399811415  0.009694287835877065  0.9992882424074941  1.0000
  Na  Na6       1.0  0.0035033873965832473  0.004694288001389942  0.9996083974780914  1.0000
  Na  Na7       1.0  0.001836721021804602  0.0005276213135036752  0.9995550380776088  1.0000
  Na  Na8       1.0  0.001836720967538078  0.005527621466284793  0.9998751931046492  1.0000
  Na  Na9       1.0  0.008503387924068595  0.009694287835877065  0.9986479322692637  1.0000
  Na  Na10      1.0  0.008503386973623368  0.004694288001389942  0.9989680873219624  1.0000
  Na  Na11      1.0  0.006836720724725638  0.0005276213135036752  0.9989147281858985  1.0000
  Na  Na12      1.0  0.006836721048101864  0.005527621466284793  0.9992348829574695  1.0000
  Na  Na13      1.0  0.008503387924068595  0.009694287835877065  0.9992882423759263  1.0000
  Na  Na14      1.0  0.008503386973623368  0.004694288001389942  0.999608397428625  1.0000
  Na  Na15      1.0  0.006836720724725638  0.0005276213135036752  0.9995550380303798  1.0000
  Na  Na16      1.0  0.006836721048101864  0.005527621466284793  0.9998751930641322  1.0000
