data_image0
_chemical_formula_structural       COCu6Rh12Sn6
_chemical_formula_sum              "C1 O1 Cu6 Rh12 Sn6"
_cell_length_a       7.662847757331006
_cell_length_b       6.256689071655273
_cell_length_c       103.69329833984375
_cell_angle_alpha    90.0
_cell_angle_beta     85.65224656355836
_cell_angle_gamma    114.09484287001298

_space_group_name_H-M_alt    "P 1"
_space_group_IT_number       1

loop_
  _space_group_symop_operation_xyz
  'x, y, z'

loop_
  _atom_site_type_symbol
  _atom_site_label
  _atom_site_symmetry_multiplicity
  _atom_site_fract_x
  _atom_site_fract_y
  _atom_site_fract_z
  _atom_site_occupancy
  C   C1        1.0  0.008474217609865858  0.006945442213684763  0.00010030986073685522  1.0000
  O   O1        1.0  0.008474217609865858  0.006945442213684763  0.00021603599261633567  1.0000
  Cu  Cu1       1.0  0.003541666791359097  0.006979166530543145  0.9995039648703591  1.0000
  Cu  Cu2       1.0  0.00520833368959742  0.0028125001925210992  0.999774741684113  1.0000
  Cu  Cu3       1.0  0.0018750000267198064  0.0011458333610822925  0.9992331880558567  1.0000
  Cu  Cu4       1.0  0.009375  0.009895833134863597  0.9996393532670869  1.0000
  Cu  Cu5       1.0  0.0010416667111996774  0.0057291664904634354  0.9999101301048813  1.0000
  Cu  Cu6       1.0  0.0077083333689597425  0.00406250003220226  0.9993685764518361  1.0000
  Rh  Rh1       1.0  0.002291666684479871  0.008854166500919901  0.9997070474879944  1.0000
  Rh  Rh2       1.0  0.003958333582718194  0.00468750020011093  0.9999778243017482  1.0000
  Rh  Rh3       1.0  0.0006249999866400968  0.003020833402071882  0.9994362706731178  1.0000
  Rh  Rh4       1.0  0.002291666684479871  0.0038541667509917692  0.9997070474879944  1.0000
  Rh  Rh5       1.0  0.003958333582718194  0.009687499950039062  0.9999778243017482  1.0000
  Rh  Rh6       1.0  0.0006249999866400968  0.008020833152000013  0.9994362706731178  1.0000
  Rh  Rh7       1.0  0.008124999893120774  0.0017708333076794838  0.9998424358847222  1.0000
  Rh  Rh8       1.0  0.004791666631040258  0.00010416667663922548  0.9993008822542206  1.0000
  Rh  Rh9       1.0  0.006458333262080516  0.0059375000397920916  0.9995716590694714  1.0000
  Rh  Rh10      1.0  0.008124999893120774  0.006770833355312221  0.9998424358847222  1.0000
  Rh  Rh11      1.0  0.004791666631040258  0.005104166724271963  0.9993008822542206  1.0000
  Rh  Rh12      1.0  0.006458333262080516  0.0009374999921593547  0.9995716590694714  1.0000
  Sn  Sn1       1.0  0.00520833368959742  0.007812499979662306  0.999774741684113  1.0000
  Sn  Sn2       1.0  0.0018750000267198064  0.0061458331482235  0.9992331880558567  1.0000
  Sn  Sn3       1.0  0.003541666791359097  0.0019791667061888622  0.9995039648703591  1.0000
  Sn  Sn4       1.0  0.0010416667111996774  0.0007291666661091524  0.9999101301048813  1.0000
  Sn  Sn5       1.0  0.0077083333689597425  0.009062499819343468  0.9993685764518361  1.0000
  Sn  Sn6       1.0  0.009375  0.004895833366328927  0.9996393532670869  1.0000
