data_image0
_chemical_formula_structural       COIr4V4Ir4V4Ir4V4Ir4V4
_chemical_formula_sum              "C1 O1 Ir16 V16"
_cell_length_a       5.649794578552246
_cell_length_b       8.933814948918087
_cell_length_c       105.33682250976562
_cell_angle_alpha    91.51830889352563
_cell_angle_beta     90.0
_cell_angle_gamma    90.0

_space_group_name_H-M_alt    "P 1"
_space_group_IT_number       1

loop_
  _space_group_symop_operation_xyz
  'x, y, z'

loop_
  _atom_site_type_symbol
  _atom_site_label
  _atom_site_symmetry_multiplicity
  _atom_site_fract_x
  _atom_site_fract_y
  _atom_site_fract_z
  _atom_site_occupancy
  C   C1        1.0  0.0062499753396596585  0.0032790059020801443  0.00017174070429689143  1.0000
  O   O1        1.0  0.0062499753396596585  0.0032790059020801443  0.0002856612121761049  1.0000
  Ir  Ir1       1.0  0.003750000039562043  0.0018167688750834936  0.9993621732152848  1.0000
  Ir  Ir2       1.0  0.0037499868522142673  0.0012726999568916956  0.999779761945774  1.0000
  Ir  Ir3       1.0  0.003749975642968658  0.003227617694881037  7.253130646390812e-06  1.0000
  Ir  Ir4       1.0  0.003750000039562043  0.0036264064259471547  0.9996000075577244  1.0000
  V   V1        1.0  0.0012499999307664241  0.0043280234445370516  0.9993954446296026  1.0000
  V   V2        1.0  0.0012500180633696159  0.003837985173653251  0.9998170178234652  1.0000
  V   V3        1.0  0.0012499999307664241  0.0011151521693441558  0.9995667358611855  1.0000
  V   V4        1.0  0.0012500199590508587  0.0006719768787418596  0.9999864698288236  1.0000
  Ir  Ir5       1.0  0.003750000039562043  0.006816769250504165  0.9993621732132991  1.0000
  Ir  Ir6       1.0  0.0037499868522142673  0.006272700019461808  0.9997797619430854  1.0000
  Ir  Ir7       1.0  0.003749975642968658  0.008227617653167629  7.2531277234113945e-06  1.0000
  Ir  Ir8       1.0  0.003750000039562043  0.008626407009934866  0.9996000075562075  1.0000
  V   V5        1.0  0.0012499999307664241  0.009328023194256605  0.9993954446262109  1.0000
  V   V6        1.0  0.0012500180633696159  0.008837984923372804  0.9998170178200736  1.0000
  V   V7        1.0  0.0012499999307664241  0.006115152231914268  0.9995667358584969  1.0000
  V   V8        1.0  0.0012500199590508587  0.005671976889170212  0.9999864698260178  1.0000
  Ir  Ir9       1.0  0.00874999976262774  0.0018167688750834936  0.9993621732152848  1.0000
  Ir  Ir10      1.0  0.008749986575279964  0.0012726999568916956  0.999779761945774  1.0000
  Ir  Ir11      1.0  0.008749975366034354  0.003227617694881037  7.253130646390812e-06  1.0000
  Ir  Ir12      1.0  0.00874999976262774  0.0036264064259471547  0.9996000075577244  1.0000
  V   V9        1.0  0.006249999736253044  0.0043280234445370516  0.9993954446296026  1.0000
  V   V10       1.0  0.006250018198539931  0.003837985173653251  0.9998170178234652  1.0000
  V   V11       1.0  0.006249999736253044  0.0011151521693441558  0.9995667358611855  1.0000
  V   V12       1.0  0.006250019517274708  0.0006719768787418596  0.9999864698288236  1.0000
  Ir  Ir13      1.0  0.00874999976262774  0.006816769250504165  0.9993621732132991  1.0000
  Ir  Ir14      1.0  0.008749986575279964  0.006272700019461808  0.9997797619430854  1.0000
  Ir  Ir15      1.0  0.008749975366034354  0.008227617653167629  7.2531277234113945e-06  1.0000
  Ir  Ir16      1.0  0.00874999976262774  0.008626407009934866  0.9996000075562075  1.0000
  V   V13       1.0  0.006249999736253044  0.009328023194256605  0.9993954446262109  1.0000
  V   V14       1.0  0.006250018198539931  0.008837984923372804  0.9998170178200736  1.0000
  V   V15       1.0  0.006249999736253044  0.006115152231914268  0.9995667358584969  1.0000
  V   V16       1.0  0.006250019517274708  0.005671976889170212  0.9999864698260178  1.0000
