data_image0
_chemical_formula_structural       Au3In3Pd6CO
_chemical_formula_sum              "Au3 In3 Pd6 C1 O1"
_cell_length_a       4.635605812072754
_cell_length_b       4.635605983585106
_cell_length_c       35.935394287109375
_cell_angle_alpha    90.0
_cell_angle_beta     90.0
_cell_angle_gamma    119.99999877608603

_space_group_name_H-M_alt    "P 1"
_space_group_IT_number       1

loop_
  _space_group_symop_operation_xyz
  'x, y, z'

loop_
  _atom_site_type_symbol
  _atom_site_label
  _atom_site_symmetry_multiplicity
  _atom_site_fract_x
  _atom_site_fract_y
  _atom_site_fract_z
  _atom_site_occupancy
  Au  Au1       1.0  1.3813855761544161e-09  0.001666663254916454  0.9987761995325123  1.0000
  Au  Au2       1.0  0.006666663054377673  0.004999999740174961  0.9998545748045858  1.0000
  Au  Au3       1.0  0.0033333344526111927  0.008333329497820854  0.9977229326592569  1.0000
  In  In1       1.0  0.003333333699212436  0.008333329497820854  0.9992797682482722  1.0000
  In  In2       1.0  1.3813855761544161e-09  0.001666663254916454  0.9971962990152966  1.0000
  In  In3       1.0  0.006666667859473903  0.0049999964923619755  0.998249565888552  1.0000
  Pd  Pd1       1.0  0.0033333278560137595  0.008333335993446827  0.0  1.0000
  Pd  Pd2       1.0  1.3813855761544161e-09  0.001666663254916454  0.9979862492739044  1.0000
  Pd  Pd3       1.0  0.006666667859473903  0.0049999964923619755  0.9990395161471598  1.0000
  Pd  Pd4       1.0  0.006666667859473903  0.0049999964923619755  0.9974596156299441  1.0000
  Pd  Pd5       1.0  0.0033333344526111927  0.008333329497820854  0.9985128829178648  1.0000
  Pd  Pd6       1.0  0.009999998543282717  0.0016666655747828725  0.9995890550731785  1.0000
  C   C1        1.0  0.00833333053055848  0.008333332281660557  0.00027836937984541385  1.0000
  O   O1        1.0  0.00833333053055848  0.008333332281660557  0.0006123018370907008  1.0000
