data_image0
_chemical_formula_structural       COCr6Pt2Cr6Pt2
_chemical_formula_sum              "C1 O1 Cr12 Pt4"
_cell_length_a       4.685711860656738
_cell_length_b       4.685711860656738
_cell_length_c       102.79998016357422
_cell_angle_alpha    90.0
_cell_angle_beta     90.0
_cell_angle_gamma    90.0

_space_group_name_H-M_alt    "P 1"
_space_group_IT_number       1

loop_
  _space_group_symop_operation_xyz
  'x, y, z'

loop_
  _atom_site_type_symbol
  _atom_site_label
  _atom_site_symmetry_multiplicity
  _atom_site_fract_x
  _atom_site_fract_y
  _atom_site_fract_z
  _atom_site_occupancy
  C   C1        1.0  0.002083322799160955  0.0012500732423117236  0.00010325289095106877  1.0000
  O   O1        1.0  0.002083322799160955  0.0012500732423117236  0.00021998466754869807  1.0000
  Cr  Cr1       1.0  0.008750227379116992  0.001250198261074476  0.0  1.0000
  Cr  Cr2       1.0  0.008749495949789602  0.0012500795031877598  0.9998044323682989  1.0000
  Cr  Cr3       1.0  0.006249772620883006  0.0062499999999999995  0.9996865079187639  1.0000
  Cr  Cr4       1.0  0.0012497727202619917  0.0062499999999999995  0.9996865079187639  1.0000
  Cr  Cr5       1.0  0.00374987080731989  0.008700204768410394  0.9999021468966356  1.0000
  Cr  Cr6       1.0  0.00374987080731989  0.003799816299934362  0.9999021497956947  1.0000
  Pt  Pt1       1.0  0.0037497726208830066  0.00125  0.9996865079187639  1.0000
  Pt  Pt2       1.0  0.008749586583423648  0.006249691130115553  0.9999274707581876  1.0000
  Cr  Cr7       1.0  0.008749772620883006  0.00125  0.9995725554701804  1.0000
  Cr  Cr8       1.0  0.008749772620883006  0.00125  0.9993446511528254  1.0000
  Cr  Cr9       1.0  0.006249772620883006  0.0062499999999999995  0.999230698994148  1.0000
  Cr  Cr10      1.0  0.0012497727202619917  0.0062499999999999995  0.999230698994148  1.0000
  Cr  Cr11      1.0  0.0037497726208830066  0.008749999999999999  0.9994586033115029  1.0000
  Cr  Cr12      1.0  0.0037497726208830066  0.00375  0.9994586033115029  1.0000
  Pt  Pt3       1.0  0.0037497726208830066  0.00125  0.999230698994148  1.0000
  Pt  Pt4       1.0  0.008749772620883006  0.0062499999999999995  0.9994586033115029  1.0000
