data_image0
_chemical_formula_structural       HRu18
_chemical_formula_sum              "H1 Ru18"
_cell_length_a       5.080595791544903
_cell_length_b       6.383635832692783
_cell_length_c       99.02926635742188
_cell_angle_alpha    85.58076071056222
_cell_angle_beta     85.90017100369094
_cell_angle_gamma    77.28314064678229

_space_group_name_H-M_alt    "P 1"
_space_group_IT_number       1

loop_
  _space_group_symop_operation_xyz
  'x, y, z'

loop_
  _atom_site_type_symbol
  _atom_site_label
  _atom_site_symmetry_multiplicity
  _atom_site_fract_x
  _atom_site_fract_y
  _atom_site_fract_z
  _atom_site_occupancy
  H   H1        1.0  0.002945908757218127  0.009241355793797654  0.9999647875221778  1.0000
  Ru  Ru1       1.0  0.006797575738674356  0.007420161244626278  0.9999521376106038  1.0000
  Ru  Ru2       1.0  0.0006676771814321625  0.004167516246229504  0.9998707707616199  1.0000
  Ru  Ru3       1.0  0.00465256465201563  0.0007927009514082642  0.9997914178665263  1.0000
  Ru  Ru4       1.0  0.0016317893596790457  0.008041281651811031  0.9998877353912858  1.0000
  Ru  Ru5       1.0  0.0056299541115486  0.004598420267076116  0.9998023170382107  1.0000
  Ru  Ru6       1.0  0.007816000885463678  0.0013058942428590095  0.9999648448472277  1.0000
  Ru  Ru7       1.0  0.00853413632145521  0.00739121631528828  0.9997013665927972  1.0000
  Ru  Ru8       1.0  0.002484412849126235  0.00409197751555827  0.9996115178734141  1.0000
  Ru  Ru9       1.0  0.006423806616703946  0.0007586441882192886  0.9995226878804666  1.0000
  Ru  Ru10      1.0  0.0034945140579844994  0.007980866372477278  0.999626322885311  1.0000
  Ru  Ru11      1.0  0.007433907784942178  0.004647533194997108  0.9995374928917682  1.0000
  Ru  Ru12      1.0  0.009636799481367373  0.0012627005880546003  0.9997151050069857  1.0000
  Ru  Ru13      1.0  0.00036320081166165444  0.00742531099275606  0.9994338583487512  1.0000
  Ru  Ru14      1.0  0.004302594803639407  0.00409197751555827  0.9993450283557251  1.0000
  Ru  Ru15      1.0  0.008241988571217117  0.0007586441882192886  0.9992561986637223  1.0000
  Ru  Ru16      1.0  0.005312696012497671  0.007980866372477278  0.999359833367622  1.0000
  Ru  Ru17      1.0  0.00925208973945535  0.004647533194997108  0.9992710036750239  1.0000
  Ru  Ru18      1.0  0.001373301762217529  0.0013141997177993172  0.9994486632809956  1.0000
