data_image0
_chemical_formula_structural       HPb8Pd4
_chemical_formula_sum              "H1 Pb8 Pd4"
_cell_length_a       5.840286661974194
_cell_length_b       5.8402864180949665
_cell_length_c       106.66565704345703
_cell_angle_alpha    86.39357721816019
_cell_angle_beta     86.39357736895673
_cell_angle_gamma    74.86189588241564

_space_group_name_H-M_alt    "P 1"
_space_group_IT_number       1

loop_
  _space_group_symop_operation_xyz
  'x, y, z'

loop_
  _atom_site_type_symbol
  _atom_site_label
  _atom_site_symmetry_multiplicity
  _atom_site_fract_x
  _atom_site_fract_y
  _atom_site_fract_z
  _atom_site_occupancy
  H   H1        1.0  0.005757688048521541  0.0003595125068082581  9.66164131754026e-05  1.0000
  Pb  Pb1       1.0  0.008596719928842072  0.0019745031831888016  0.9992984583460637  1.0000
  Pb  Pb2       1.0  0.002346720336174829  0.005724503189804413  0.9997281380640628  1.0000
  Pb  Pb3       1.0  0.002512704810693852  0.005890487559347857  0.9993729833727409  1.0000
  Pb  Pb4       1.0  0.006262704501913183  0.009640488062134332  0.9998026630216477  1.0000
  Pb  Pb5       1.0  0.007653279317679854  0.00449991248339852  0.999587823199488  1.0000
  Pb  Pb6       1.0  0.0014032795968955995  0.008249912986184995  1.7502916219419235e-05  1.0000
  Pb  Pb7       1.0  0.0037372953433877565  0.0005839281072394646  0.9995132982395348  1.0000
  Pb  Pb8       1.0  0.007487295482287367  0.004333928113855076  0.9999429778886085  1.0000
  Pd  Pd1       1.0  0.009062499485540425  0.009174707995376142  0.9995505606501608  1.0000
  Pd  Pd2       1.0  0.0028125000139239235  0.0029247079292200277  0.9999802404378434  1.0000
  Pd  Pd3       1.0  0.007187499554519419  0.00729970807476348  0.9993357208248623  1.0000
  Pd  Pd4       1.0  0.0009374999658269529  0.001049707843217078  0.9997654006135178  1.0000
