data_image0
_chemical_formula_structural       HNb4Ni12
_chemical_formula_sum              "H1 Nb4 Ni12"
_cell_length_a       4.588041293202258
_cell_length_b       5.200718402862549
_cell_length_c       104.28399658203125
_cell_angle_alpha    90.0
_cell_angle_beta     91.07069711370002
_cell_angle_gamma    90.0

_space_group_name_H-M_alt    "P 1"
_space_group_IT_number       1

loop_
  _space_group_symop_operation_xyz
  'x, y, z'

loop_
  _atom_site_type_symbol
  _atom_site_label
  _atom_site_symmetry_multiplicity
  _atom_site_fract_x
  _atom_site_fract_y
  _atom_site_fract_z
  _atom_site_occupancy
  H   H1        1.0  0.004559759768958663  0.00123762155318425  0.00011976573703883494  1.0000
  Nb  Nb1       1.0  0.007215982076404293  0.006237616839910378  0.9993895808591752  1.0000
  Nb  Nb2       1.0  0.004090981670355109  0.0012376168972146196  0.9995950533334673  1.0000
  Nb  Nb3       1.0  0.007855095371533054  0.0012376194042751898  1.665595483078314e-07  1.0000
  Nb  Nb4       1.0  0.0009090185529719422  0.006237613974698298  0.9998060176882695  1.0000
  Ni  Ni1       1.0  0.009090981589145272  0.008737616811258257  0.9995950532033705  1.0000
  Ni  Ni2       1.0  0.005991107506621525  0.003712852124249899  0.99980026826986  1.0000
  Ni  Ni3       1.0  0.002215981548540354  0.003737616868562499  0.9993895807029909  1.0000
  Ni  Ni4       1.0  0.0028062586991977247  0.008635271435751815  2.3059019456231465e-06  1.0000
  Ni  Ni5       1.0  0.004090981670355109  0.006237616839910378  0.9995950533334673  1.0000
  Ni  Ni6       1.0  0.0009628212880412862  0.0012376178821312722  0.9998049570928461  1.0000
  Ni  Ni7       1.0  0.007215982076404293  0.0012376168972146196  0.9993895808591752  1.0000
  Ni  Ni8       1.0  0.00782483090162929  0.006237622570334539  8.660792675579057e-06  1.0000
  Ni  Ni9       1.0  0.009090981589145272  0.003737616868562499  0.9995950532033705  1.0000
  Ni  Ni10      1.0  0.005991109942916631  0.008762382988176897  0.9998002699865453  1.0000
  Ni  Ni11      1.0  0.002215981548540354  0.008737616811258257  0.9993895807029909  1.0000
  Ni  Ni12      1.0  0.0028062601203698695  0.0038399737049172634  2.3070462355838096e-06  1.0000
