data_image0
_chemical_formula_structural       COSn16Au4
_chemical_formula_sum              "C1 O1 Sn16 Au4"
_cell_length_a       6.6933817863464355
_cell_length_b       6.657924175262451
_cell_length_c       106.32332611083984
_cell_angle_alpha    90.0
_cell_angle_beta     90.0
_cell_angle_gamma    90.0

_space_group_name_H-M_alt    "P 1"
_space_group_IT_number       1

loop_
  _space_group_symop_operation_xyz
  'x, y, z'

loop_
  _atom_site_type_symbol
  _atom_site_label
  _atom_site_symmetry_multiplicity
  _atom_site_fract_x
  _atom_site_fract_y
  _atom_site_fract_z
  _atom_site_occupancy
  C   C1        1.0  0.001718554880056969  0.0007903032075721286  0.00011405310404103441  1.0000
  O   O1        1.0  0.001718554880056969  0.0007903032075721286  0.00022691605851200893  1.0000
  Sn  Sn1       1.0  0.003355010559028866  0.008319650503674832  0.9990679065865763  1.0000
  Sn  Sn2       1.0  0.0016449928026131436  0.008319650503674832  0.9993356456722982  1.0000
  Sn  Sn3       1.0  0.008355010581291396  0.006680353032537667  0.9990679065865763  1.0000
  Sn  Sn4       1.0  0.006644992824875673  0.0016803533458729517  0.9990679065865763  1.0000
  Sn  Sn5       1.0  0.003355010559028866  0.0033196508170101166  0.9993356456722982  1.0000
  Sn  Sn6       1.0  0.008355010581291396  0.0016803533458729517  0.9993356456722982  1.0000
  Sn  Sn7       1.0  0.0016449928026131436  0.0033196508170101166  0.9990679065865763  1.0000
  Sn  Sn8       1.0  0.006644992824875673  0.006680353032537667  0.9993356456722982  1.0000
  Sn  Sn9       1.0  0.008355010581291396  0.008319650503674832  0.9996372914073116  1.0000
  Sn  Sn10      1.0  0.006562878040019693  0.008419396315348939  0.9999022984186436  1.0000
  Sn  Sn11      1.0  0.003355010559028866  0.006680353032537667  0.9996372914073116  1.0000
  Sn  Sn12      1.0  0.0016449928026131436  0.0016803533458729517  0.9996372914073116  1.0000
  Sn  Sn13      1.0  0.008437115904572181  0.003419390473883987  0.9999023001004377  1.0000
  Sn  Sn14      1.0  0.0034371114298036784  0.0015806086532534336  0.9999022989792417  1.0000
  Sn  Sn15      1.0  0.006644992824875673  0.0033196508170101166  0.9996372914073116  1.0000
  Sn  Sn16      1.0  0.0015628817745590789  0.006580602744645207  0.9999022995398397  1.0000
  Au  Au1       1.0  0.009999998931398565  0.009999997135220253  0.999999998878804  1.0000
  Au  Au2       1.0  0.005000001691952269  0.005000001924773892  0.0  1.0000
  Au  Au3       1.0  0.005000001691952269  2.1499998867832447e-09  0.9994864686799544  1.0000
  Au  Au4       1.0  1.5500000277266464e-09  0.005000001924773892  0.9994864686799544  1.0000
