data_image0
_chemical_formula_structural       COFe8Si8W8Fe8Si8W8
_chemical_formula_sum              "C1 O1 Fe16 Si16 W16"
_cell_length_a       9.629587342527095
_cell_length_b       7.862525463104248
_cell_length_c       106.45703125
_cell_angle_alpha    90.0
_cell_angle_beta     84.94884726512943
_cell_angle_gamma    90.0

_space_group_name_H-M_alt    "P 1"
_space_group_IT_number       1

loop_
  _space_group_symop_operation_xyz
  'x, y, z'

loop_
  _atom_site_type_symbol
  _atom_site_label
  _atom_site_symmetry_multiplicity
  _atom_site_fract_x
  _atom_site_fract_y
  _atom_site_fract_z
  _atom_site_occupancy
  C   C1        1.0  0.0015597680712071944  0.0012499999952619671  0.9999804072386196  1.0000
  O   O1        1.0  0.0015597680712071944  0.0012499999952619671  9.31290023001625e-05  1.0000
  Fe  Fe1       1.0  0.00390625  0.0037499998673350835  0.9997100556255004  1.0000
  Fe  Fe2       1.0  0.0007812500194183498  0.0037499998673350835  0.9994960194467428  1.0000
  Fe  Fe3       1.0  0.007656249860187882  0.0037499998673350835  0.9992819834933657  1.0000
  Fe  Fe4       1.0  0.007031250077673399  0.0037499998673350835  0.9999240918034846  1.0000
  Fe  Fe5       1.0  0.007343750357297636  0.0012499999952619671  0.9996030373653851  1.0000
  Fe  Fe6       1.0  0.004218750279624237  0.0012499999952619671  0.9993890011874009  1.0000
  Fe  Fe7       1.0  0.00109375000776734  0.0012499999952619671  0.9991749652909101  1.0000
  Fe  Fe8       1.0  0.0004687500310693597  0.0012499999952619671  0.9998170733226286  1.0000
  Si  Si1       1.0  0.003593750108742759  0.0012499999952619671  0.9991749653460953  1.0000
  Si  Si2       1.0  0.002968750132044779  0.0012499999952619671  0.9998170733778138  1.0000
  Si  Si3       1.0  0.009843750264089558  0.0012499999952619671  0.9996030374221169  1.0000
  Si  Si4       1.0  0.006718750574783154  0.0012499999952619671  0.9993890012410397  1.0000
  Si  Si5       1.0  0.006406250295158917  0.0037499998673350835  0.9997100556791391  1.0000
  Si  Si6       1.0  0.0032812502174855178  0.0037499998673350835  0.9994960195011549  1.0000
  Si  Si7       1.0  0.0001562500063109637  0.0037499998673350835  0.9992819833242338  1.0000
  Si  Si8       1.0  0.00953124998446532  0.0037499998673350835  0.9999240918602164  1.0000
  W   W1        1.0  0.007968750139812119  0.0012499999952619671  0.9998170734897307  1.0000
  W   W2        1.0  0.0048437500621387195  0.0012499999952619671  0.9996030373117465  1.0000
  W   W3        1.0  0.0017187499844653203  0.0012499999952619671  0.9993890016936562  1.0000
  W   W4        1.0  0.008593749922326602  0.0012499999952619671  0.9991749654595588  1.0000
  W   W5        1.0  0.004531250170881478  0.0037499998673350835  0.9999240917467529  1.0000
  W   W6        1.0  0.00140624999611633  0.0037499998673350835  0.999710055569542  1.0000
  W   W7        1.0  0.008281250419436356  0.0037499998673350835  0.9994960196115252  1.0000
  W   W8        1.0  0.005156249953395961  0.0037499998673350835  0.999281983436634  1.0000
  Fe  Fe9       1.0  0.00390625  0.008749999848382952  0.9997100556255004  1.0000
  Fe  Fe10      1.0  0.0007812500194183498  0.008749999848382952  0.9994960194467428  1.0000
  Fe  Fe11      1.0  0.007656249860187882  0.008749999848382952  0.9992819834933657  1.0000
  Fe  Fe12      1.0  0.007031250077673399  0.008749999848382952  0.9999240918034846  1.0000
  Fe  Fe13      1.0  0.007343750357297636  0.0062500000947606545  0.9996030373653851  1.0000
  Fe  Fe14      1.0  0.004218750279624237  0.0062500000947606545  0.9993890011874009  1.0000
  Fe  Fe15      1.0  0.00109375000776734  0.0062500000947606545  0.9991749652909101  1.0000
  Fe  Fe16      1.0  0.0004687500310693597  0.0062500000947606545  0.9998170733226286  1.0000
  Si  Si9       1.0  0.003593750108742759  0.0062500000947606545  0.9991749653460953  1.0000
  Si  Si10      1.0  0.002968750132044779  0.0062500000947606545  0.9998170733778138  1.0000
  Si  Si11      1.0  0.009843750264089558  0.0062500000947606545  0.9996030374221169  1.0000
  Si  Si12      1.0  0.006718750574783154  0.0062500000947606545  0.9993890012410397  1.0000
  Si  Si13      1.0  0.006406250295158917  0.008749999848382952  0.9997100556791391  1.0000
  Si  Si14      1.0  0.0032812502174855178  0.008749999848382952  0.9994960195011549  1.0000
  Si  Si15      1.0  0.0001562500063109637  0.008749999848382952  0.9992819833242338  1.0000
  Si  Si16      1.0  0.00953124998446532  0.008749999848382952  0.9999240918602164  1.0000
  W   W9        1.0  0.007968750139812119  0.0062500000947606545  0.9998170734897307  1.0000
  W   W10       1.0  0.0048437500621387195  0.0062500000947606545  0.9996030373117465  1.0000
  W   W11       1.0  0.0017187499844653203  0.0062500000947606545  0.9993890016936562  1.0000
  W   W12       1.0  0.008593749922326602  0.0062500000947606545  0.9991749654595588  1.0000
  W   W13       1.0  0.004531250170881478  0.008749999848382952  0.9999240917467529  1.0000
  W   W14       1.0  0.00140624999611633  0.008749999848382952  0.999710055569542  1.0000
  W   W15       1.0  0.008281250419436356  0.008749999848382952  0.9994960196115252  1.0000
  W   W16       1.0  0.005156249953395961  0.008749999848382952  0.999281983436634  1.0000
