data_image0
_chemical_formula_structural       COZn5Ag5Zn5Ag5
_chemical_formula_sum              "C1 O1 Zn10 Ag10"
_cell_length_a       4.568461894989014
_cell_length_b       7.223372293757969
_cell_length_c       103.57120513916016
_cell_angle_alpha    75.03678207193279
_cell_angle_beta     90.0
_cell_angle_gamma    71.56505064254281

_space_group_name_H-M_alt    "P 1"
_space_group_IT_number       1

loop_
  _space_group_symop_operation_xyz
  'x, y, z'

loop_
  _atom_site_type_symbol
  _atom_site_label
  _atom_site_symmetry_multiplicity
  _atom_site_fract_x
  _atom_site_fract_y
  _atom_site_fract_z
  _atom_site_occupancy
  C   C1        1.0  0.008447476429363734  0.0031828356677347886  0.9999848386430836  1.0000
  O   O1        1.0  0.008447476429363734  0.0031828356677347886  0.00010070119679795117  1.0000
  Zn  Zn1       1.0  0.008007754789807139  0.004050166453985983  0.9991434475685905  1.0000
  Zn  Zn2       1.0  0.006007754820314491  0.00805016639297128  0.9992514931765587  1.0000
  Zn  Zn3       1.0  7.75459925239815e-06  5.016635169455051e-05  0.9990354022513104  1.0000
  Zn  Zn4       1.0  0.004007754649467587  0.002050166343255596  0.9988193111643323  1.0000
  Zn  Zn5       1.0  0.0020077545387371994  0.006050166564716371  0.9989273567672137  1.0000
  Ag  Ag1       1.0  0.008007754789807139  0.004050166453985983  0.9988733341096466  1.0000
  Ag  Ag2       1.0  0.006007754820314491  0.00805016639297128  0.9989813794298675  1.0000
  Ag  Ag3       1.0  7.75459925239815e-06  5.016635169455051e-05  0.9993055159980015  1.0000
  Ag  Ag4       1.0  0.004007754649467587  0.002050166343255596  0.9990894249110235  1.0000
  Ag  Ag5       1.0  0.0020077545387371994  0.006050166564716371  0.9991974705139048  1.0000
  Zn  Zn6       1.0  0.007990522152422741  0.004076369726756815  0.9996986371000277  1.0000
  Zn  Zn7       1.0  0.006111658759342274  0.007845634938526828  0.9998012634700871  1.0000
  Zn  Zn8       1.0  0.009992245315782673  8.168444913546324e-05  0.9995634725867915  1.0000
  Zn  Zn9       1.0  0.004007754649467587  0.002050166343255596  0.9993595386577145  1.0000
  Zn  Zn10      1.0  0.0020077545387371994  0.006050166564716371  0.9994675839728488  1.0000
  Ag  Ag6       1.0  0.008007754789807139  0.004050166453985983  0.9994135613152817  1.0000
  Ag  Ag7       1.0  0.006007754820314491  0.00805016639297128  0.9995216066355026  1.0000
  Ag  Ag8       1.0  6.839522406393681e-05  0.009949833756175773  0.9998208275722168  1.0000
  Ag  Ag9       1.0  0.003990670190858345  0.002096553760073121  0.9996459826374108  1.0000
  Ag  Ag10      1.0  0.0019979781124239682  0.006048900509623727  0.9997406725164658  1.0000
