data_image0
_chemical_formula_structural       HGa15Ni10Ga15Ni10
_chemical_formula_sum              "H1 Ga30 Ni20"
_cell_length_a       6.445805152040788
_cell_length_b       10.866962897765784
_cell_length_c       108.6748275756836
_cell_angle_alpha    96.91641179890532
_cell_angle_beta     113.01342434683619
_cell_angle_gamma    61.20450256061179

_space_group_name_H-M_alt    "P 1"
_space_group_IT_number       1

loop_
  _space_group_symop_operation_xyz
  'x, y, z'

loop_
  _atom_site_type_symbol
  _atom_site_label
  _atom_site_symmetry_multiplicity
  _atom_site_fract_x
  _atom_site_fract_y
  _atom_site_fract_z
  _atom_site_occupancy
  H   H1        1.0  0.004719148250743941  0.00877474368468691  0.00021508971941737942  1.0000
  Ga  Ga1       1.0  0.007335045110642644  0.005781166972060603  0.9997798850907603  1.0000
  Ga  Ga2       1.0  0.005335045142051332  0.009781167030146401  0.9996612594333509  1.0000
  Ga  Ga3       1.0  0.009335044722317045  0.0017811673526598488  0.9998985107451758  1.0000
  Ga  Ga4       1.0  0.00333504517346002  0.003781167226360891  0.00013576179755641054  1.0000
  Ga  Ga5       1.0  0.0013350452940979352  0.007781166570462409  1.71361336186634e-05  1.0000
  Ga  Ga6       1.0  0.009676834780204056  0.007222792492473461  0.9997531894959646  1.0000
  Ga  Ga7       1.0  0.007676834454695834  0.0012227931273729958  0.9996345639578876  1.0000
  Ga  Ga8       1.0  0.001676834905838809  0.0032227926557523126  0.99987181500611  1.0000
  Ga  Ga9       1.0  0.005676834843021433  0.005222792746773749  0.00010906620276067494  1.0000
  Ga  Ga10      1.0  0.003676834874430121  0.009222792804859548  0.9999904405453514  1.0000
  Ga  Ga11      1.0  0.00850593958850644  0.006501979825630352  6.310151008861312e-05  1.0000
  Ga  Ga12      1.0  0.0065059399768320385  0.0005019801011423837  0.9999444759842366  1.0000
  Ga  Ga13      1.0  0.0005059400710581023  0.0025019800682067462  0.9995885991301766  1.0000
  Ga  Ga14      1.0  0.004505940008240727  0.004501979986567321  0.9998258503247481  1.0000
  Ga  Ga15      1.0  0.0025059400396494143  0.008501980044653119  0.9997072246673389  1.0000
  Ni  Ni1       1.0  0.00032316508505980993  0.004785127275526432  0.9996617295532602  1.0000
  Ni  Ni2       1.0  0.008323164580200841  0.008785127211446107  0.00013623138633643854  1.0000
  Ni  Ni3       1.0  0.002323165031343815  0.0007851273096062717  0.999780355211262  1.0000
  Ni  Ni4       1.0  0.006323164968526439  0.002785127314297277  1.760585840530578e-05  1.0000
  Ni  Ni5       1.0  0.004323164999935127  0.006785127372383077  0.9998989807494638  1.0000
  Ni  Ni6       1.0  0.006688714985137637  0.008218832404537075  0.9998713454351157  1.0000
  Ni  Ni7       1.0  0.0046887150165463255  0.0022188326007515644  0.9997527199000326  1.0000
  Ni  Ni8       1.0  0.00868871459681204  0.004218833130458046  0.9999899710936894  1.0000
  Ni  Ni9       1.0  0.0026887150479550136  0.006218832658837364  0.9996340942426232  1.0000
  Ni  Ni10      1.0  0.0006887151685929292  0.00021883278854580704  0.00010859660809687123  1.0000
  Ga  Ga16      1.0  0.007335045110642644  0.005781166972060603  0.9991867574657056  1.0000
  Ga  Ga17      1.0  0.005335045142051332  0.009781167030146401  0.9990681320825302  1.0000
  Ga  Ga18      1.0  0.009335044722317045  0.0017811673526598488  0.9993053831201211  1.0000
  Ga  Ga19      1.0  0.00333504517346002  0.003781167226360891  0.9995426338982678  1.0000
  Ga  Ga20      1.0  0.0013350452940979352  0.007781166570462409  0.9994240087827979  1.0000
  Ga  Ga21      1.0  0.009676834780204056  0.007222792492473461  0.9991600618709099  1.0000
  Ga  Ga22      1.0  0.007676834454695834  0.0012227931273729958  0.9990414363328329  1.0000
  Ga  Ga23      1.0  0.001676834905838809  0.0032227926557523126  0.9992786873810553  1.0000
  Ga  Ga24      1.0  0.005676834843021433  0.005222792746773749  0.9995159383034721  1.0000
  Ga  Ga25      1.0  0.003676834874430121  0.009222792804859548  0.9993973129202967  1.0000
  Ga  Ga26      1.0  0.00850593958850644  0.006501979825630352  0.9994699736108  1.0000
  Ga  Ga27      1.0  0.0065059399768320385  0.0005019801011423837  0.999351348084948  1.0000
  Ga  Ga28      1.0  0.0005059400710581023  0.0025019800682067462  0.9989954715051219  1.0000
  Ga  Ga29      1.0  0.004505940008240727  0.004501979986567321  0.9992327224254596  1.0000
  Ga  Ga30      1.0  0.0025059400396494143  0.008501980044653119  0.9991140970422842  1.0000
  Ni  Ni11      1.0  0.00032316508505980993  0.004785127275526432  0.9990686016539715  1.0000
  Ni  Ni12      1.0  0.008323164580200841  0.008785127211446107  0.9995431040355156  1.0000
  Ni  Ni13      1.0  0.002323165031343815  0.0007851273096062717  0.9991872273119734  1.0000
  Ni  Ni14      1.0  0.006323164968526439  0.002785127314297277  0.9994244785075845  1.0000
  Ni  Ni15      1.0  0.004323164999935127  0.006785127372383077  0.9993058528501751  1.0000
  Ni  Ni16      1.0  0.006688714985137637  0.008218832404537075  0.999278217810061  1.0000
  Ni  Ni17      1.0  0.0046887150165463255  0.0022188326007515644  0.9991595922749779  1.0000
  Ni  Ni18      1.0  0.00868871459681204  0.004218833130458046  0.9993968431944008  1.0000
  Ni  Ni19      1.0  0.0026887150479550136  0.006218832658837364  0.9990409666175685  1.0000
  Ni  Ni20      1.0  0.0006887151685929292  0.00021883278854580704  0.9995154687088083  1.0000
