data_image0
_chemical_formula_structural       Sb24Pd12CO
_chemical_formula_sum              "Sb24 Pd12 C1 O1"
_cell_length_a       9.34865951538086
_cell_length_b       9.348659096060016
_cell_length_c       104.34916687011719
_cell_angle_alpha    90.0
_cell_angle_beta     90.0
_cell_angle_gamma    59.99999851625546

_space_group_name_H-M_alt    "P 1"
_space_group_IT_number       1

loop_
  _space_group_symop_operation_xyz
  'x, y, z'

loop_
  _atom_site_type_symbol
  _atom_site_label
  _atom_site_symmetry_multiplicity
  _atom_site_fract_x
  _atom_site_fract_y
  _atom_site_fract_z
  _atom_site_occupancy
  Sb  Sb1       1.0  0.006666703832595053  0.006721255718564299  0.9996997781179249  1.0000
  Sb  Sb2       1.0  3.739788454043623e-08  5.4588851980906885e-05  0.9993340277313706  1.0000
  Sb  Sb3       1.0  0.00333337030925187  0.0033879222870699843  0.9989682773448164  1.0000
  Sb  Sb4       1.0  0.007608323398007924  0.009915278471612315  0.999890694433254  1.0000
  Sb  Sb5       1.0  0.0008477430813677248  0.003359177300715735  0.9995200568266481  1.0000
  Sb  Sb6       1.0  0.004181075891952658  0.00669251096227485  0.9991543067256958  1.0000
  Sb  Sb7       1.0  0.0025313842723952732  0.007662448976412623  0.9998907881106837  1.0000
  Sb  Sb8       1.0  0.005847743034796105  0.0009022947066263727  0.9995200568266481  1.0000
  Sb  Sb9       1.0  0.009181075703655289  0.004235628253153088  0.9991543067256958  1.0000
  Sb  Sb10      1.0  0.009860816465880235  0.0025859548137566178  0.9998907881106837  1.0000
  Sb  Sb11      1.0  0.0033046253518014307  0.005902294968900245  0.9995200568266481  1.0000
  Sb  Sb12      1.0  0.006637958875144612  0.00923562840039456  0.9991543067256958  1.0000
  Sb  Sb13      1.0  0.006666674262196468  0.006721271823100326  0.9999800912613745  1.0000
  Sb  Sb14      1.0  3.739788454043623e-08  5.4588851980906885e-05  0.9996130716598888  1.0000
  Sb  Sb15      1.0  0.00333337030925187  0.0033879222870699843  0.9992473212733346  1.0000
  Sb  Sb16      1.0  0.005870586810570069  0.003285665385243766  0.9997921086489656  1.0000
  Sb  Sb17      1.0  0.009152330976269649  0.006750000474853748  0.9994270425646112  1.0000
  Sb  Sb18      1.0  0.002485664853897783  8.333375565561857e-05  0.9990612918924552  1.0000
  Sb  Sb19      1.0  0.0008984302176815781  0.005925145465003882  0.9997921097913733  1.0000
  Sb  Sb20      1.0  0.004152331164567018  0.009206883183975511  0.9994270425646112  1.0000
  Sb  Sb21      1.0  0.0074856645960613335  0.002540216320986881  0.9990612918924552  1.0000
  Sb  Sb22      1.0  0.0032310653890255804  0.0009529707926257289  0.9997921115049848  1.0000
  Sb  Sb23      1.0  0.006695448790045492  0.004206883036734038  0.9994270425646112  1.0000
  Sb  Sb24      1.0  2.878223369189472e-05  0.0075402164682283526  0.9990612918924552  1.0000
  Pd  Pd1       1.0  0.006666703832595053  0.006721255718564299  0.9992906745023525  1.0000
  Pd  Pd2       1.0  0.009999961997557446  5.459115262891072e-05  1.078261488015065e-05  1.0000
  Pd  Pd3       1.0  0.00333337030925187  0.0033879222870699843  0.9996564248889068  1.0000
  Pd  Pd4       1.0  0.003333370155934355  0.008387922434311456  0.9996564248889068  1.0000
  Pd  Pd5       1.0  0.0066667035874286695  0.0017212555713228268  0.9992906745023525  1.0000
  Pd  Pd6       1.0  0.009890863571861268  0.0050955589424693404  0.9999999994287961  1.0000
  Pd  Pd7       1.0  0.00833337054834221  0.0033879222870699843  0.9996564248889068  1.0000
  Pd  Pd8       1.0  0.0016667039919886126  0.006721255718564299  0.9992906745023525  1.0000
  Pd  Pd9       1.0  0.005068367291212725  0.009945411438907275  0.9999999937167577  1.0000
  Pd  Pd10      1.0  0.008333369996540796  0.008387922434311456  0.9996564248889068  1.0000
  Pd  Pd11      1.0  0.0016667039460641789  0.0017212555713228268  0.9992906745023525  1.0000
  Pd  Pd12      1.0  0.00504095857356268  0.00512278435081706  0.0  1.0000
  C   C1        1.0  0.003333360720861276  0.0033879271184307923  0.9999837743837323  1.0000
  O   O1        1.0  0.003333360720861276  0.0033879271184307923  9.877256794382849e-05  1.0000
