data_image0
_chemical_formula_structural       HRh6V6Rh6V6Rh6V6Rh6V6
_chemical_formula_sum              "H1 Rh24 V24"
_cell_length_a       8.906332015991211
_cell_length_b       8.906331471506022
_cell_length_c       100.85198974609375
_cell_angle_alpha    90.0
_cell_angle_beta     90.0
_cell_angle_gamma    97.93525811456266

_space_group_name_H-M_alt    "P 1"
_space_group_IT_number       1

loop_
  _space_group_symop_operation_xyz
  'x, y, z'

loop_
  _atom_site_type_symbol
  _atom_site_label
  _atom_site_symmetry_multiplicity
  _atom_site_fract_x
  _atom_site_fract_y
  _atom_site_fract_z
  _atom_site_occupancy
  H   H1        1.0  0.0005928623984080105  0.0013020192817384904  5.950476996070466e-05  1.0000
  Rh  Rh1       1.0  0.004291005743916711  0.001187332754388001  0.0  1.0000
  Rh  Rh2       1.0  0.0016653505114682576  0.003812984402362841  0.0  1.0000
  Rh  Rh3       1.0  0.004403255712044814  0.0010746745158098099  0.9997309652489638  1.0000
  Rh  Rh4       1.0  0.0015526886643061743  0.0039252420721209765  0.9997309658399749  1.0000
  Rh  Rh5       1.0  0.004407137609808541  0.0010708743909968732  0.9994539678054603  1.0000
  Rh  Rh6       1.0  0.0015488861609228165  0.003929125710359496  0.9994539678054603  1.0000
  V   V1        1.0  0.0040610535287873405  0.0035830397399676654  0.9998746743245187  1.0000
  V   V2        1.0  0.0018947188521276186  0.0014167058090889797  0.9998746808256408  1.0000
  V   V3        1.0  0.003996241998694775  0.003518230154328182  0.9995930194180903  1.0000
  V   V4        1.0  0.001959781786612266  0.0014817700526077399  0.9995930194180903  1.0000
  V   V5        1.0  0.003996241998694775  0.003518230154328182  0.9993149161928302  1.0000
  V   V6        1.0  0.001959781786612266  0.0014817700526077399  0.9993149161928302  1.0000
  Rh  Rh7       1.0  0.004291005755754076  0.006187332961323923  0.0  1.0000
  Rh  Rh8       1.0  0.00166535050872994  0.008812984503719212  0.0  1.0000
  Rh  Rh9       1.0  0.004403255753033547  0.006074674933904835  0.9997309652489638  1.0000
  Rh  Rh10      1.0  0.0015526887982970337  0.008925242595795553  0.9997309658399749  1.0000
  Rh  Rh11      1.0  0.004407137607070222  0.006070874492353243  0.9994539678054603  1.0000
  Rh  Rh12      1.0  0.001548886294913676  0.008929126234034074  0.9994539678054603  1.0000
  V   V7        1.0  0.004061053735186201  0.008583039841324035  0.9998746743245187  1.0000
  V   V8        1.0  0.0018947189393822062  0.006416705804865797  0.9998746808256408  1.0000
  V   V9        1.0  0.003996241966805089  0.008518230044525447  0.9995930194180903  1.0000
  V   V10       1.0  0.0019597819030182217  0.006481770259543661  0.9995930194180903  1.0000
  V   V11       1.0  0.003996241966805089  0.008518230044525447  0.9993149161928302  1.0000
  V   V12       1.0  0.0019597819030182217  0.006481770259543661  0.9993149161928302  1.0000
  Rh  Rh13      1.0  0.00929100554314502  0.001187332754388001  0.0  1.0000
  Rh  Rh14      1.0  0.006665350415265155  0.003812984402362841  0.0  1.0000
  Rh  Rh15      1.0  0.00940325551127312  0.0010746745158098099  0.9997309652489638  1.0000
  Rh  Rh16      1.0  0.0065526887772402505  0.0039252420721209765  0.9997309658399749  1.0000
  Rh  Rh17      1.0  0.009407137827311205  0.0010708743909968732  0.9994539678054603  1.0000
  Rh  Rh18      1.0  0.006548886169288303  0.003929125710359496  0.9994539678054603  1.0000
  V   V13       1.0  0.009061053328015649  0.0035830397399676654  0.9998746743245187  1.0000
  V   V14       1.0  0.006894718860493106  0.0014167058090889797  0.9998746808256408  1.0000
  V   V15       1.0  0.008996241379648726  0.003518230154328182  0.9995930194180903  1.0000
  V   V16       1.0  0.006959781794977754  0.0014817700526077399  0.9995930194180903  1.0000
  V   V17       1.0  0.008996241379648726  0.003518230154328182  0.9993149161928302  1.0000
  V   V18       1.0  0.006959781794977754  0.0014817700526077399  0.9993149161928302  1.0000
  Rh  Rh19      1.0  0.009291005973256742  0.006187332961323923  0.0  1.0000
  Rh  Rh20      1.0  0.006665350412526838  0.008812984503719212  0.0  1.0000
  Rh  Rh21      1.0  0.009403255970536211  0.006074674933904835  0.9997309652489638  1.0000
  Rh  Rh22      1.0  0.006552688832804668  0.008925242595795553  0.9997309658399749  1.0000
  Rh  Rh23      1.0  0.00940713740629853  0.006070874492353243  0.9994539678054603  1.0000
  Rh  Rh24      1.0  0.00654888622485272  0.008929126234034074  0.9994539678054603  1.0000
  V   V19       1.0  0.009061053743551688  0.008583039841324035  0.9998746743245187  1.0000
  V   V20       1.0  0.006894718843179104  0.006416705804865797  0.9998746808256408  1.0000
  V   V21       1.0  0.008996241766033397  0.008518230044525447  0.9995930194180903  1.0000
  V   V22       1.0  0.006959781806815119  0.006481770259543661  0.9995930194180903  1.0000
  V   V23       1.0  0.008996241766033397  0.008518230044525447  0.9993149161928302  1.0000
  V   V24       1.0  0.006959781806815119  0.006481770259543661  0.9993149161928302  1.0000
