data_image0
_chemical_formula_structural       COV3Pt9V3Pt9
_chemical_formula_sum              "C1 O1 V6 Pt18"
_cell_length_a       5.556559085845947
_cell_length_b       5.5565587294655865
_cell_length_c       104.0268325805664
_cell_angle_alpha    90.0
_cell_angle_beta     90.0
_cell_angle_gamma    59.99999787836895

_space_group_name_H-M_alt    "P 1"
_space_group_IT_number       1

loop_
  _space_group_symop_operation_xyz
  'x, y, z'

loop_
  _atom_site_type_symbol
  _atom_site_label
  _atom_site_symmetry_multiplicity
  _atom_site_fract_x
  _atom_site_fract_y
  _atom_site_fract_z
  _atom_site_occupancy
  C   C1        1.0  0.0025166325179730034  0.004966731129187814  0.00016650044316082025  1.0000
  O   O1        1.0  0.0025166325179730034  0.004966731129187814  0.0002818555301226512  1.0000
  V   V1        1.0  0.006666667065491154  0.006666667585321434  0.9989061335144358  1.0000
  V   V2        1.0  9.499999861486872e-10  3.500000191479994e-10  0.9993422625142968  1.0000
  V   V3        1.0  0.0033333338679611526  0.003333333792660717  0.9991241981576098  1.0000
  Pt  Pt1       1.0  0.008333333961821513  0.003333333792660717  0.9991241981576098  1.0000
  Pt  Pt2       1.0  0.001666667306846369  0.006666667585321434  0.9989061335144358  1.0000
  Pt  Pt3       1.0  0.005000000589291501  3.500000191479994e-10  0.9993422625142968  1.0000
  Pt  Pt4       1.0  0.003333333693093236  0.008333333901041335  0.9991241981576098  1.0000
  Pt  Pt5       1.0  0.006666667098680315  0.0016666670898671774  0.9989061335144358  1.0000
  Pt  Pt6       1.0  8.048497773759076e-10  0.005000000495454257  0.9993422625142968  1.0000
  Pt  Pt7       1.0  0.008333334122169172  0.008333333901041335  0.9991241981576098  1.0000
  Pt  Pt8       1.0  0.0016666675076433169  0.0016666670898671774  0.9989061335144358  1.0000
  Pt  Pt9       1.0  0.005000000395886776  0.005000000495454257  0.9993422625142968  1.0000
  V   V4        1.0  0.006666667065491154  0.006666667585321434  0.999560326870984  1.0000
  V   V5        1.0  0.00999999849712259  0.010000000216761236  0.9999862503488264  1.0000
  V   V6        1.0  0.003333332527098852  0.003333333792660717  0.9998024581307451  1.0000
  Pt  Pt10      1.0  0.008333402992436083  0.003333189027120076  0.9997776099779575  1.0000
  Pt  Pt11      1.0  0.001666667306846369  0.006666667585321434  0.999560326870984  1.0000
  Pt  Pt12      1.0  0.004966728451536878  6.653725076661327e-05  0.0  1.0000
  Pt  Pt13      1.0  0.003333188235326044  0.00833340357429619  0.9997776099779575  1.0000
  Pt  Pt14      1.0  0.006666667098680315  0.0016666670898671774  0.999560326870984  1.0000
  Pt  Pt15      1.0  6.653567848413258e-05  0.004966731129187814  0.0  1.0000
  Pt  Pt16      1.0  0.008333400624361534  0.008333402026001637  0.9997776094049837  1.0000
  Pt  Pt17      1.0  0.0016666675076433169  0.0016666670898671774  0.999560326870984  1.0000
  Pt  Pt18      1.0  0.0049667290481753305  0.0049667307421141765  0.0  1.0000
