data_image0
_chemical_formula_structural       CORh8Sn4V4
_chemical_formula_sum              "C1 O1 Rh8 Sn4 V4"
_cell_length_a       4.6988420486450195
_cell_length_b       4.698842186539837
_cell_length_c       104.8130874633789
_cell_angle_alpha    90.0
_cell_angle_beta     90.0
_cell_angle_gamma    103.74617616886569

_space_group_name_H-M_alt    "P 1"
_space_group_IT_number       1

loop_
  _space_group_symop_operation_xyz
  'x, y, z'

loop_
  _atom_site_type_symbol
  _atom_site_label
  _atom_site_symmetry_multiplicity
  _atom_site_fract_x
  _atom_site_fract_y
  _atom_site_fract_z
  _atom_site_occupancy
  C   C1        1.0  0.004999997483011166  0.004999981733722373  0.00012139006097730967  1.0000
  O   O1        1.0  0.004999997483011166  0.004999981733722373  0.00023587924362106121  1.0000
  Rh  Rh1       1.0  0.005000020772451839  1.4149999256496493e-08  0.999012677375832  1.0000
  Rh  Rh2       1.0  2.0536185707190933e-08  0.005000013973131053  0.9992894642983097  1.0000
  Rh  Rh3       1.0  2.0536185707190933e-08  0.005000013973131053  0.999012677375832  1.0000
  Rh  Rh4       1.0  0.005000020772451839  1.4149999256496493e-08  0.9992894642983097  1.0000
  Rh  Rh5       1.0  0.005000020772451839  1.4149999256496493e-08  0.9995662512207872  1.0000
  Rh  Rh6       1.0  4.222020079712739e-08  0.0050000176459750805  0.9998455414532298  1.0000
  Rh  Rh7       1.0  2.0536185707190933e-08  0.005000013973131053  0.9995662512207872  1.0000
  Rh  Rh8       1.0  0.00500001598849781  2.904999911168888e-08  0.9998455420219055  1.0000
  Sn  Sn1       1.0  2.060000072244568e-08  1.4149999256496493e-08  0.9994278577595485  1.0000
  Sn  Sn2       1.0  0.005000020603574582  0.005000013973131053  0.9991510708370708  1.0000
  Sn  Sn3       1.0  0.009999979589425778  0.009999985504508908  0.0  1.0000
  Sn  Sn4       1.0  0.005000038487667168  0.005000024175475573  0.9996980156306264  1.0000
  V   V1        1.0  2.060000072244568e-08  1.4149999256496493e-08  0.9991510708370708  1.0000
  V   V2        1.0  0.005000020603574582  0.005000013973131053  0.9994278577595485  1.0000
  V   V3        1.0  2.1000001066557202e-08  1.805000019025922e-08  0.9997118998452548  1.0000
  V   V4        1.0  0.004999997483011166  0.004999981733722373  0.999956138620108  1.0000
