data_image0
_chemical_formula_structural       HAl10As10
_chemical_formula_sum              "H1 Al10 As10"
_cell_length_a       7.055587724457376
_cell_length_b       7.837133529181518
_cell_length_c       108.90670013427734
_cell_angle_alpha    74.83913811633889
_cell_angle_beta     68.73434483540048
_cell_angle_gamma    90.00000022127492

_space_group_name_H-M_alt    "P 1"
_space_group_IT_number       1

loop_
  _space_group_symop_operation_xyz
  'x, y, z'

loop_
  _atom_site_type_symbol
  _atom_site_label
  _atom_site_symmetry_multiplicity
  _atom_site_fract_x
  _atom_site_fract_y
  _atom_site_fract_z
  _atom_site_occupancy
  H   H1        1.0  0.006102384842087597  0.00046857470594645687  0.9998744115370345  1.0000
  Al  Al1       1.0  0.0050273261047346605  0.0005472759887224966  0.9997856817378583  1.0000
  Al  Al2       1.0  0.005458853236853604  0.003778305385768658  0.9995174377814198  1.0000
  Al  Al3       1.0  0.00916828253402418  0.0016822662638056383  0.9996993515881786  1.0000
  Al  Al4       1.0  0.007458853288157709  0.007778305136167497  0.9991601895940845  1.0000
  Al  Al5       1.0  0.0014588533123772328  0.0057783055085882775  0.999338813583406  1.0000
  Al  Al6       1.0  0.003792186849350488  0.008778305445197506  0.9995174380072565  1.0000
  Al  Al7       1.0  0.0057921866216598845  0.0027783053243588484  0.9991601900210814  1.0000
  Al  Al8       1.0  0.009792187056905748  0.0007783053253493292  0.9993388136574634  1.0000
  Al  Al9       1.0  0.008039808428725786  0.006685195670194807  0.9996990612107389  1.0000
  Al  Al10      1.0  0.0012160896281764243  0.005546241800483  0.9997856570779103  1.0000
  As  As1       1.0  0.004314403553026522  0.007532238505779369  0.9997568651283956  1.0000
  As  As2       1.0  0.00620781305200005  0.0015314253240155873  0.999383655795692  1.0000
  As  As3       1.0  0.00020781334019346782  0.009531425443863765  0.9995622795865363  1.0000
  As  As4       1.0  0.00820781311832497  0.005531425198224527  0.9990264076056736  1.0000
  As  As5       1.0  0.0022078133249665826  0.0035314253230251066  0.999205031595369  1.0000
  As  As6       1.0  0.00454114667951775  0.006531425507254536  0.9993836554715455  1.0000
  As  As7       1.0  0.006541146444316737  0.0005314253245108277  0.999026407486712  1.0000
  As  As8       1.0  0.0005411466949581186  0.008531425134833756  0.9992050318315642  1.0000
  As  As9       1.0  0.00854114653317288  0.004531425384434917  0.9995622796712235  1.0000
  As  As10      1.0  0.0022495583068380684  0.0025301403603999882  0.9997574512663769  1.0000
