data_image0
_chemical_formula_structural       COGe12
_chemical_formula_sum              "C1 O1 Ge12"
_cell_length_a       5.836548805236816
_cell_length_b       7.148283007012525
_cell_length_c       101.43077850341797
_cell_angle_alpha    94.34775312588371
_cell_angle_beta     90.0
_cell_angle_gamma    114.09484330066716

_space_group_name_H-M_alt    "P 1"
_space_group_IT_number       1

loop_
  _space_group_symop_operation_xyz
  'x, y, z'

loop_
  _atom_site_type_symbol
  _atom_site_label
  _atom_site_symmetry_multiplicity
  _atom_site_fract_x
  _atom_site_fract_y
  _atom_site_fract_z
  _atom_site_occupancy
  C   C1        1.0  0.008017107636549782  0.002964792195076703  0.00013285752768839662  1.0000
  O   O1        1.0  0.008017107636549782  0.002964792195076703  0.00025116446460741006  1.0000
  Ge  Ge1       1.0  0.004771851360754845  0.0039509357073930105  0.9993040850500501  1.0000
  Ge  Ge2       1.0  0.0032204718414880354  0.0006323975829754993  0.9998286842935387  1.0000
  Ge  Ge3       1.0  0.00893851823322393  0.0022842690693695594  0.9995623135072765  1.0000
  Ge  Ge4       1.0  0.0008135181981388406  0.0010342690550479519  0.9993686421056311  1.0000
  Ge  Ge5       1.0  0.00888396712077067  0.00805177224510013  0.9998972493973834  1.0000
  Ge  Ge6       1.0  0.004980184872487976  0.0093676026032054  0.9996268705050884  1.0000
  Ge  Ge7       1.0  0.009186481752380094  0.004485889286594205  0.9999176574522867  1.0000
  Ge  Ge8       1.0  0.006021851303468414  0.006450935592820149  0.9996914275587565  1.0000
  Ge  Ge9       1.0  0.0018551848217420515  0.008117602374059677  0.9994331991022952  1.0000
  Ge  Ge10      1.0  0.007896851411500769  0.005200935936538733  0.9994977561590239  1.0000
  Ge  Ge11      1.0  0.006626542585534068  0.0010013119566496622  5.3496670678926184e-06  1.0000
  Ge  Ge12      1.0  0.002102243962477515  0.003577016003445618  0.9997608277235072  1.0000
