data_image0
_chemical_formula_structural       HSi20V24
_chemical_formula_sum              "H1 Si20 V24"
_cell_length_a       8.941843504707407
_cell_length_b       9.158750161836027
_cell_length_c       99.30103302001953
_cell_angle_alpha    84.81875618903403
_cell_angle_beta     85.98648515475826
_cell_angle_gamma    101.53927287964706

_space_group_name_H-M_alt    "P 1"
_space_group_IT_number       1

loop_
  _space_group_symop_operation_xyz
  'x, y, z'

loop_
  _atom_site_type_symbol
  _atom_site_label
  _atom_site_symmetry_multiplicity
  _atom_site_fract_x
  _atom_site_fract_y
  _atom_site_fract_z
  _atom_site_occupancy
  H   H1        1.0  0.007658237991836609  0.003781313673757564  0.999945211584936  1.0000
  Si  Si1       1.0  0.006484156437288719  0.009278500337811947  0.9996169165002867  1.0000
  Si  Si2       1.0  0.00029089939297703  0.00189984169206803  0.9992534878881737  1.0000
  Si  Si3       1.0  0.004719192811492729  0.007969818071084697  0.9998202256836474  1.0000
  Si  Si4       1.0  0.008415899919093275  0.0006498417087689055  0.9994379083355636  1.0000
  Si  Si5       1.0  0.005679804542487348  0.007321874208044488  0.9992977430263098  1.0000
  Si  Si6       1.0  0.001836070056737463  0.004785034197914939  0.9996657073873636  1.0000
  Si  Si7       1.0  0.0030269941779154253  0.005227809059185444  0.9993936531662548  1.0000
  Si  Si8       1.0  0.009208876612314967  0.002751326847808904  0.9997645739248341  1.0000
  Si  Si9       1.0  0.008624306690740659  0.004988884248049632  0.9994289032696978  1.0000
  Si  Si10      1.0  0.004909883191915494  0.002579636420873604  0.9998090064468514  1.0000
  Si  Si11      1.0  0.006381900331099278  0.0050917027699510795  0.9996264352535625  1.0000
  Si  Si12      1.0  8.249253598398186e-05  0.007560799436702186  0.9992624929161981  1.0000
  Si  Si13      1.0  0.008590426485138608  0.00909711045996402  0.9999118405501186  1.0000
  Si  Si14      1.0  0.0020742238967458465  0.0012080372593791314  0.999543944432545  1.0000
  Si  Si15      1.0  0.0028825749599106056  0.008841646354393965  0.9995162931141482  1.0000
  Si  Si16      1.0  0.00939336594373163  0.006634493315347692  0.9998855374663679  1.0000
  Si  Si17      1.0  0.009917507484953805  0.008080306887537213  0.9996348805320272  1.0000
  Si  Si18      1.0  0.0036299973115114167  0.0005426772015655107  0.9992653289162554  1.0000
  Si  Si19      1.0  0.00507680180479133  0.002007006199271425  0.9994260676088367  1.0000
  Si  Si20      1.0  0.0012740721042600312  0.009482251017737985  0.9998048961639856  1.0000
  V   V1        1.0  0.0010664252620645937  0.006552996801074243  0.9994823244581422  1.0000
  V   V2        1.0  0.007318520739690937  0.004296568246671021  0.999851565567039  1.0000
  V   V3        1.0  0.005765373503585752  0.00474668690037845  0.999393492259397  1.0000
  V   V4        1.0  0.002021713640197328  0.0022379830638025815  0.9997613652501796  1.0000
  V   V5        1.0  0.0038903735906606197  0.003496686917079325  0.9995779130877064  1.0000
  V   V6        1.0  0.0076403738341483405  0.005996686883677574  0.9992090720286972  1.0000
  V   V7        1.0  0.002941425216817021  0.007802996366851482  0.9992979039331676  1.0000
  V   V8        1.0  0.009124435722091793  0.005333746052046662  0.9996705130539327  1.0000
  V   V9        1.0  0.006763614867696455  0.000613833525403421  0.9998176894199564  1.0000
  V   V10       1.0  0.00042222591277463753  0.0031427166643980195  0.9994934384942179  1.0000
  V   V11       1.0  0.0045345730522224174  0.006906966844994606  0.999566798752541  1.0000
  V   V12       1.0  0.008284573086891409  0.009406966811592855  0.9991979579949688  1.0000
  V   V13       1.0  0.007829911927843162  0.00758883102102365  0.9994661989712154  1.0000
  V   V14       1.0  0.0042076345138940706  0.005217878301148475  0.9997902527919353  1.0000
  V   V15       1.0  0.0071268871395386195  0.0024608520708470907  0.9995940385004654  1.0000
  V   V16       1.0  0.0008768871318900449  0.004960852246206283  0.9992251972192107  1.0000
  V   V17       1.0  0.005733511340133521  0.009679920073885741  0.9993886793733994  1.0000
  V   V18       1.0  0.0020996989377313185  0.0072073304190439355  0.9997460174914724  1.0000
  V   V19       1.0  0.0029732879309333246  0.002869763819627018  0.9993027171105991  1.0000
  V   V20       1.0  0.009230683726691656  0.0004238716101130935  0.9996649329345131  1.0000
  V   V21       1.0  0.00793441042240546  0.002885314839759242  0.999300422902913  1.0000
  V   V22       1.0  0.004133964731716994  0.00032008041879008273  0.9996866168960491  1.0000
  V   V23       1.0  0.007157887211244973  0.007188113556760583  0.9997611730672057  1.0000
  V   V24       1.0  0.0007723886398426576  0.009664369053753518  0.9993909735824017  1.0000
