data_image0
_chemical_formula_structural       COAl3Pd2Al3Pd2Al3Pd2Al3Pd2
_chemical_formula_sum              "C1 O1 Al12 Pd8"
_cell_length_a       8.53459950329381
_cell_length_b       5.2529497146606445
_cell_length_c       35.861602783203125
_cell_angle_alpha    90.0
_cell_angle_beta     60.00000077168191
_cell_angle_gamma    90.0

_space_group_name_H-M_alt    "P 1"
_space_group_IT_number       1

loop_
  _space_group_symop_operation_xyz
  'x, y, z'

loop_
  _atom_site_type_symbol
  _atom_site_label
  _atom_site_symmetry_multiplicity
  _atom_site_fract_x
  _atom_site_fract_y
  _atom_site_fract_z
  _atom_site_occupancy
  C   C1        1.0  0.0012136367248617266  0.004228824365023473  0.9995209654684426  1.0000
  O   O1        1.0  0.0012136367248617266  0.004228824365023473  0.9998555850499743  1.0000
  Al  Al1       1.0  0.0007833560784378019  0.0008298690142202862  0.9985358333269517  1.0000
  Al  Al2       1.0  0.004260637391754602  0.007219303716905432  0.9992606075085838  1.0000
  Al  Al3       1.0  0.0023853378637351177  0.004228824365023473  0.9989632658982579  1.0000
  Pd  Pd1       1.0  0.004187964247261431  0.0023692307189553162  0.9992952142504001  1.0000
  Pd  Pd2       1.0  0.002415676239714155  0.009128073367677193  0.9989488245049596  1.0000
  Al  Al4       1.0  0.0007393626485668654  0.0007900636794014633  0.9973668369390346  1.0000
  Al  Al5       1.0  0.004072696008781177  0.007240379147492692  0.9981601271786325  1.0000
  Al  Al6       1.0  0.0024060293286740212  0.00433974872901211  0.9977634820588336  1.0000
  Pd  Pd3       1.0  0.004072696008781177  0.0023701909495568085  0.9981601271786325  1.0000
  Pd  Pd4       1.0  0.0024060293286740212  0.009209936926947992  0.9977634820588336  1.0000
  Al  Al7       1.0  0.005783355929752392  0.0008298690142202862  0.9985358332781613  1.0000
  Al  Al8       1.0  0.00926063743207607  0.007219303716905432  0.9992606074373028  1.0000
  Al  Al9       1.0  0.007385337904056585  0.004228824365023473  0.9989632658269769  1.0000
  Pd  Pd5       1.0  0.009187964035573728  0.0023692307189553162  0.9992952142091066  1.0000
  Pd  Pd6       1.0  0.007415676280035623  0.009128073367677193  0.9989488248491971  1.0000
  Al  Al10      1.0  0.005739362688888333  0.0007900636794014633  0.9973668368677537  1.0000
  Al  Al11      1.0  0.009072696049102645  0.007240379147492692  0.9981601271073516  1.0000
  Al  Al12      1.0  0.007406029368995488  0.00433974872901211  0.9977634819875526  1.0000
  Pd  Pd7       1.0  0.009072696049102645  0.0023701909495568085  0.9981601271073516  1.0000
  Pd  Pd8       1.0  0.007406029368995488  0.009209936926947992  0.9977634819875526  1.0000
