data_image0
_chemical_formula_structural       HAl6Co3Ru3Al6Co3Ru3Al6Co3Ru3Al6Co3Ru3
_chemical_formula_sum              "H1 Al24 Co12 Ru12"
_cell_length_a       8.353854179382324
_cell_length_b       8.353854349282987
_cell_length_c       100.69402313232422
_cell_angle_alpha    90.0
_cell_angle_beta     90.0
_cell_angle_gamma    119.99999932722449

_space_group_name_H-M_alt    "P 1"
_space_group_IT_number       1

loop_
  _space_group_symop_operation_xyz
  'x, y, z'

loop_
  _atom_site_type_symbol
  _atom_site_label
  _atom_site_symmetry_multiplicity
  _atom_site_fract_x
  _atom_site_fract_y
  _atom_site_fract_z
  _atom_site_occupancy
  H   H1        1.0  0.001666672400738717  0.003333329543497462  9.166223139167735e-05  1.0000
  Al  Al1       1.0  0.00999999940860407  0.00999999995880613  0.99976356742853  1.0000
  Al  Al2       1.0  0.0033333342451633613  0.0016666668314421391  0.9994301105529465  1.0000
  Al  Al3       1.0  0.0016666675317014753  0.0033333334054226026  0.9990914165036138  1.0000
  Al  Al4       1.0  0.003333339012493965  0.001666664771748731  0.9999386124508804  1.0000
  Al  Al5       1.0  0.0016666675317014753  0.0033333334054226026  0.999599457873582  1.0000
  Al  Al6       1.0  8.500000165692454e-10  1.4999999546225996e-10  0.9992607635282801  1.0000
  Co  Co1       1.0  0.0033333342451633613  0.0016666668314421391  0.999684131089946  1.0000
  Co  Co2       1.0  0.0016666675317014753  0.0033333334054226026  0.9993454370406133  1.0000
  Co  Co3       1.0  5.487522836800128e-09  0.009999993779725906  0.0  1.0000
  Ru  Ru1       1.0  0.0016666661402790482  0.0033333357225776867  0.9998594738572409  1.0000
  Ru  Ru2       1.0  8.500000165692454e-10  1.4999999546225996e-10  0.9995147840652797  1.0000
  Ru  Ru3       1.0  0.0033333342451633613  0.0016666668314421391  0.9991760900159469  1.0000
  Al  Al7       1.0  0.009999999133503037  0.004999999979403065  0.99976356742853  1.0000
  Al  Al8       1.0  0.003333334138402937  0.006666666810845205  0.9994301105529465  1.0000
  Al  Al9       1.0  0.001666667295018211  0.008333333127363993  0.9990914165036138  1.0000
  Al  Al10      1.0  0.0033333389085562722  0.006666664751151796  0.9999386124508804  1.0000
  Al  Al11      1.0  0.001666667295018211  0.008333333127363993  0.999599457873582  1.0000
  Al  Al12      1.0  7.210377468258702e-10  0.004999999979403065  0.9992607635282801  1.0000
  Co  Co4       1.0  0.003333334138402937  0.006666666810845205  0.999684131089946  1.0000
  Co  Co5       1.0  0.001666667295018211  0.008333333127363993  0.9993454370406133  1.0000
  Co  Co6       1.0  5.915820197813133e-09  0.004999994315246193  0.0  1.0000
  Ru  Ru4       1.0  0.0016666661296746526  0.008333335701980752  0.9998594738572409  1.0000
  Ru  Ru5       1.0  7.210377468258702e-10  0.004999999979403065  0.9995147840652797  1.0000
  Ru  Ru6       1.0  0.003333334138402937  0.006666666810845205  0.9991760900159469  1.0000
  Al  Al13      1.0  0.00499999921637357  0.00999999995880613  0.99976356742853  1.0000
  Al  Al14      1.0  0.008333334343269438  0.0016666668314421391  0.9994301105529465  1.0000
  Al  Al15      1.0  0.006666667469722453  0.0033333334054226026  0.9990914165036138  1.0000
  Al  Al16      1.0  0.008333338664663327  0.001666664771748731  0.9999386124508804  1.0000
  Al  Al17      1.0  0.006666667469722453  0.0033333334054226026  0.999599457873582  1.0000
  Al  Al18      1.0  0.005000000842011149  1.4999999546225996e-10  0.9992607635282801  1.0000
  Co  Co7       1.0  0.008333334343269438  0.0016666668314421391  0.999684131089946  1.0000
  Co  Co8       1.0  0.006666667469722453  0.0033333334054226026  0.9993454370406133  1.0000
  Co  Co9       1.0  0.005000005726833249  0.009999993779725906  0.0  1.0000
  Ru  Ru7       1.0  0.0066666659526796995  0.0033333357225776867  0.9998594738572409  1.0000
  Ru  Ru8       1.0  0.005000000842011149  1.4999999546225996e-10  0.9995147840652797  1.0000
  Ru  Ru9       1.0  0.008333334343269438  0.0016666668314421391  0.9991760900159469  1.0000
  Al  Al19      1.0  0.0049999992583653185  0.004999999979403065  0.99976356742853  1.0000
  Al  Al20      1.0  0.008333334172433754  0.006666666810845205  0.9994301105529465  1.0000
  Al  Al21      1.0  0.006666667393124289  0.008333333127363993  0.9990914165036138  1.0000
  Al  Al22      1.0  0.008333338939764358  0.006666664751151796  0.9999386124508804  1.0000
  Al  Al23      1.0  0.006666667393124289  0.008333333127363993  0.999599457873582  1.0000
  Al  Al24      1.0  0.005000000819143825  0.004999999979403065  0.9992607635282801  1.0000
  Co  Co10      1.0  0.008333334172433754  0.006666666810845205  0.999684131089946  1.0000
  Co  Co11      1.0  0.006666667393124289  0.008333333127363993  0.9993454370406133  1.0000
  Co  Co12      1.0  0.005000005790957917  0.004999994315246193  0.0  1.0000
  Ru  Ru10      1.0  0.00666666622778073  0.008333335701980752  0.9998594738572409  1.0000
  Ru  Ru11      1.0  0.005000000819143825  0.004999999979403065  0.9995147840652797  1.0000
  Ru  Ru12      1.0  0.008333334172433754  0.006666666810845205  0.9991760900159469  1.0000
