data_image0
_chemical_formula_structural       COGe4Pd4Ge4Pd4
_chemical_formula_sum              "C1 O1 Ge8 Pd8"
_cell_length_a       5.889735698699951
_cell_length_b       6.359467506408691
_cell_length_c       99.07307434082031
_cell_angle_alpha    90.0
_cell_angle_beta     90.0
_cell_angle_gamma    90.0

_space_group_name_H-M_alt    "P 1"
_space_group_IT_number       1

loop_
  _space_group_symop_operation_xyz
  'x, y, z'

loop_
  _atom_site_type_symbol
  _atom_site_label
  _atom_site_symmetry_multiplicity
  _atom_site_fract_x
  _atom_site_fract_y
  _atom_site_fract_z
  _atom_site_occupancy
  C   C1        1.0  0.004106772590222812  0.006290071898030783  0.00016707854101271044  1.0000
  O   O1        1.0  0.004106772590222812  0.006290071898030783  0.00028820150402296185  1.0000
  Ge  Ge1       1.0  0.008131244828128922  0.000855229344909787  0.9996396268929275  1.0000
  Ge  Ge2       1.0  0.001854205249081278  0.0092653794265778  0.9994562203024425  1.0000
  Ge  Ge3       1.0  0.003131244790178592  0.004265379309420497  0.9996396268929275  1.0000
  Ge  Ge4       1.0  0.006854205445157986  0.005855229095950519  0.9994562203024425  1.0000
  Pd  Pd1       1.0  0.009950059338125181  0.0069636104028561645  0.9996396268929275  1.0000
  Pd  Pd2       1.0  3.5390699553424796e-05  0.003156998295408109  0.9994562203024425  1.0000
  Pd  Pd3       1.0  0.004950059616427607  0.00815699870545867  0.9996396268929275  1.0000
  Pd  Pd4       1.0  0.005035390618908972  0.001963610285698861  0.9994562203024425  1.0000
  Ge  Ge5       1.0  0.008248937026415291  0.0006576860234196511  0.0  1.0000
  Ge  Ge6       1.0  0.001949693973845725  0.00934231428411827  0.999821827830828  1.0000
  Ge  Ge7       1.0  0.0032489363559594486  0.004462928781669025  0.0  1.0000
  Ge  Ge8       1.0  0.006949690374889356  0.005778299510488672  0.9998218281316396  1.0000
  Pd  Pd5       1.0  0.009964609494942019  0.007003402880719995  0.9999845058000697  1.0000
  Pd  Pd6       1.0  0.00013838250119786423  0.003113036482034256  0.9998274478925135  1.0000
  Pd  Pd7       1.0  0.004964609140738933  0.008117215014392542  0.9999845058000697  1.0000
  Pd  Pd8       1.0  0.0051383852865940155  0.0020075786891709914  0.9998274484941365  1.0000
