data_image0
_chemical_formula_structural       COAl4Au4Al4Au4Al4Au4Al4Au4
_chemical_formula_sum              "C1 O1 Al16 Au16"
_cell_length_a       6.858351707458496
_cell_length_b       6.490012236465686
_cell_length_c       108.67284393310547
_cell_angle_alpha    92.49225972829957
_cell_angle_beta     90.0
_cell_angle_gamma    90.0

_space_group_name_H-M_alt    "P 1"
_space_group_IT_number       1

loop_
  _space_group_symop_operation_xyz
  'x, y, z'

loop_
  _atom_site_type_symbol
  _atom_site_label
  _atom_site_symmetry_multiplicity
  _atom_site_fract_x
  _atom_site_fract_y
  _atom_site_fract_z
  _atom_site_occupancy
  C   C1        1.0  0.003750000879944707  0.0013451365854148666  0.00012728520197432877  1.0000
  O   O1        1.0  0.003750000879944707  0.0013451365854148666  0.00023770804801153176  1.0000
  Al  Al1       1.0  0.001249999750139157  0.0017971337530082363  0.9990161709336928  1.0000
  Al  Al2       1.0  0.0037499997935932167  0.008202866224009881  0.9990749596310552  1.0000
  Al  Al3       1.0  0.001249999750139157  0.006806616353259985  0.9993886143932503  1.0000
  Al  Al4       1.0  0.0037499997935932167  0.0031933836237581325  0.9992956244568335  1.0000
  Au  Au1       1.0  0.001249999750139157  0.005221588708262328  0.9991596510948625  1.0000
  Au  Au2       1.0  0.0037499997935932167  0.004778411268755789  0.9989314794698855  1.0000
  Au  Au3       1.0  0.001249999750139157  0.00996817409242526  0.9992302700836914  1.0000
  Au  Au4       1.0  0.0037499997935932167  3.182600129772711e-05  0.9994539682182177  1.0000
  Al  Al5       1.0  0.001249999750139157  0.0017971337530082363  0.9996092792190286  1.0000
  Al  Al6       1.0  0.0037499997935932167  0.008202866224009881  0.9996680676421521  1.0000
  Al  Al7       1.0  0.00125000219443001  0.006430000189186851  0.9999908895574388  1.0000
  Al  Al8       1.0  0.003750000879944707  0.00312099557944421  0.9999112569487545  1.0000
  Au  Au5       1.0  0.001249999750139157  0.005221588708262328  0.9997527593801984  1.0000
  Au  Au6       1.0  0.0037499997935932167  0.004778411268755789  0.9995245874809824  1.0000
  Au  Au7       1.0  0.0012499987995816034  9.534629795987812e-05  0.9998173384799451  1.0000
  Au  Au8       1.0  0.0037500011515325792  0.009336956022532686  2.4247306448010776e-05  1.0000
  Al  Al9       1.0  0.006249999565459403  0.0017971337530082363  0.9990161709336928  1.0000
  Al  Al10      1.0  0.008749999608913463  0.008202866224009881  0.9990749596310552  1.0000
  Al  Al11      1.0  0.006249999565459403  0.006806616353259985  0.9993886143932503  1.0000
  Al  Al12      1.0  0.008749999608913463  0.0031933836237581325  0.9992956244568335  1.0000
  Au  Au9       1.0  0.006249999565459403  0.005221588708262328  0.9991596510948625  1.0000
  Au  Au10      1.0  0.008749999608913463  0.004778411268755789  0.9989314794698855  1.0000
  Au  Au11      1.0  0.006249999565459403  0.00996817409242526  0.9992302700836914  1.0000
  Au  Au12      1.0  0.008749999608913463  3.182600129772711e-05  0.9994539682182177  1.0000
  Al  Al13      1.0  0.006249999565459403  0.0017971337530082363  0.9996092792190286  1.0000
  Al  Al14      1.0  0.008749999608913463  0.008202866224009881  0.9996680676421521  1.0000
  Al  Al15      1.0  0.006250002281338128  0.006430000189186851  0.9999908895574388  1.0000
  Al  Al16      1.0  0.008750000695264952  0.00312099557944421  0.9999112569487545  1.0000
  Au  Au13      1.0  0.006249999565459403  0.005221588708262328  0.9997527593801984  1.0000
  Au  Au14      1.0  0.008749999608913463  0.004778411268755789  0.9995245874809824  1.0000
  Au  Au15      1.0  0.006249999022283658  9.534629795987812e-05  0.9998173384799451  1.0000
  Au  Au16      1.0  0.008750001238440698  0.009336956022532686  2.4247306448010776e-05  1.0000
