data_image0
_chemical_formula_structural       COSr6
_chemical_formula_sum              "C1 O1 Sr6"
_cell_length_a       6.153820991516113
_cell_length_b       7.53686074869371
_cell_length_c       103.13934326171875
_cell_angle_alpha    94.34775345796221
_cell_angle_beta     90.0
_cell_angle_gamma    114.09484238255679

_space_group_name_H-M_alt    "P 1"
_space_group_IT_number       1

loop_
  _space_group_symop_operation_xyz
  'x, y, z'

loop_
  _atom_site_type_symbol
  _atom_site_label
  _atom_site_symmetry_multiplicity
  _atom_site_fract_x
  _atom_site_fract_y
  _atom_site_fract_z
  _atom_site_occupancy
  C   C1        1.0  0.001371120747580017  0.006908908303077868  0.00020381782968120635  1.0000
  O   O1        1.0  0.001371120747580017  0.006908908303077868  0.0003201649416033763  1.0000
  Sr  Sr1       1.0  0.0020833333384029642  0.0033333333152223616  0.9997414776333792  1.0000
  Sr  Sr2       1.0  0.007916666753285563  0.005000000108665831  0.9994737223217717  1.0000
  Sr  Sr3       1.0  0.006250000027758238  0.0016666666576111808  9.232945739167204e-06  1.0000
  Sr  Sr4       1.0  0.005000000196848024  0.009166666956442214  0.9996076001638592  1.0000
  Sr  Sr5       1.0  0.0008333333791526507  0.0008333333967217345  0.9993398444804367  1.0000
  Sr  Sr6       1.0  0.00916666691628431  0.0075000004346633216  0.9998753551880196  1.0000
