data_image0
_chemical_formula_structural       COCs4
_chemical_formula_sum              "C1 O1 Cs4"
_cell_length_a       5.700290203094482
_cell_length_b       8.061427116394043
_cell_length_c       104.20173645019531
_cell_angle_alpha    90.0
_cell_angle_beta     90.0
_cell_angle_gamma    90.0

_space_group_name_H-M_alt    "P 1"
_space_group_IT_number       1

loop_
  _space_group_symop_operation_xyz
  'x, y, z'

loop_
  _atom_site_type_symbol
  _atom_site_label
  _atom_site_symmetry_multiplicity
  _atom_site_fract_x
  _atom_site_fract_y
  _atom_site_fract_z
  _atom_site_occupancy
  C   C1        1.0  0.0024999998366183928  0.002500000157118421  0.00019193519808638644  1.0000
  O   O1        1.0  0.0024999998366183928  0.002500000157118421  0.00030709608813341406  1.0000
  Cs  Cs1       1.0  0.0024999998366183928  0.0075000002402987615  0.999452956027652  1.0000
  Cs  Cs2       1.0  0.0024999998366183928  0.0075000002402987615  0.0  1.0000
  Cs  Cs3       1.0  0.0075  0.002500000157118421  0.9991794341844811  1.0000
  Cs  Cs4       1.0  0.0075  0.002500000157118421  0.999726478156829  1.0000
