data_image0
_chemical_formula_structural       COCa12Zn4
_chemical_formula_sum              "C1 O1 Ca12 Zn4"
_cell_length_a       7.030584340651529
_cell_length_b       10.302430152893066
_cell_length_c       101.84891510009766
_cell_angle_alpha    90.0
_cell_angle_beta     94.99446210484132
_cell_angle_gamma    90.0

_space_group_name_H-M_alt    "P 1"
_space_group_IT_number       1

loop_
  _space_group_symop_operation_xyz
  'x, y, z'

loop_
  _atom_site_type_symbol
  _atom_site_label
  _atom_site_symmetry_multiplicity
  _atom_site_fract_x
  _atom_site_fract_y
  _atom_site_fract_z
  _atom_site_occupancy
  C   C1        1.0  0.007385856610997573  0.007490808470444134  9.164067796609147e-05  1.0000
  O   O1        1.0  0.007385856610997573  0.007490808470444134  0.00020946249577241156  1.0000
  Ca  Ca1       1.0  0.0023864677937193487  0.007490935028118887  1.4341895056705697e-05  1.0000
  Ca  Ca2       1.0  0.006346306648789758  0.002490893329173023  0.9996997515505074  1.0000
  Ca  Ca3       1.0  0.007170329971694328  0.009403413138124914  0.9999209394446025  1.0000
  Ca  Ca4       1.0  0.0017997523532375123  0.0006111758032562101  0.9998045652720854  1.0000
  Ca  Ca5       1.0  0.001799550235513529  0.004370559011642357  0.999804565813102  1.0000
  Ca  Ca6       1.0  0.007170790055460763  0.005578203802763355  0.9999209246527728  1.0000
  Ca  Ca7       1.0  0.0037793876192094593  0.007490893806476253  0.999646238686745  1.0000
  Ca  Ca8       1.0  0.00759630637220761  0.002490893329173023  0.9993088674538825  1.0000
  Ca  Ca9       1.0  0.008353203207644874  0.009385199680761085  0.9995331182338978  1.0000
  Ca  Ca10      1.0  0.003022491049716569  0.0005965870028964959  0.9994219879083279  1.0000
  Ca  Ca11      1.0  0.003022491049716569  0.004385199565051212  0.9994219879083279  1.0000
  Ca  Ca12      1.0  0.008353203207644874  0.005596587209004709  0.9995331182338978  1.0000
  Zn  Zn1       1.0  0.00967806999546984  0.007490905377463659  0.9997677219398077  1.0000
  Zn  Zn2       1.0  0.00889331123178149  0.0024909437714462465  0.9999502284071272  1.0000
  Zn  Zn3       1.0  0.0010537646224939615  0.007490893806476253  0.9993809455267386  1.0000
  Zn  Zn4       1.0  0.0003219298529418673  0.002490893329173023  0.9995741604470821  1.0000
