data_image0
_chemical_formula_structural       COV30Ir10
_chemical_formula_sum              "C1 O1 V30 Ir10"
_cell_length_a       10.710065920481497
_cell_length_b       6.773640155792236
_cell_length_c       103.18392181396484
_cell_angle_alpha    90.0
_cell_angle_beta     104.96321658601133
_cell_angle_gamma    71.56505197800291

_space_group_name_H-M_alt    "P 1"
_space_group_IT_number       1

loop_
  _space_group_symop_operation_xyz
  'x, y, z'

loop_
  _atom_site_type_symbol
  _atom_site_label
  _atom_site_symmetry_multiplicity
  _atom_site_fract_x
  _atom_site_fract_y
  _atom_site_fract_z
  _atom_site_occupancy
  C   C1        1.0  0.0019821611622353116  0.001258919466179655  0.00014764577571388298  1.0000
  O   O1        1.0  0.0019821611622353116  0.001258919466179655  0.0002639431998448486  1.0000
  V   V1        1.0  0.00349999978052701  0.0017500000305409975  0.9996918001272911  1.0000
  V   V2        1.0  0.007499999420835166  0.009750000298381916  0.9995310001720635  1.0000
  V   V3        1.0  0.009499999622018739  0.0037500001537926317  0.9998525999993122  1.0000
  V   V4        1.0  0.0014999999603729323  0.0077499999846155345  0.9993702003102539  1.0000
  V   V5        1.0  0.0054999996006810875  0.005750000164461457  1.3399655500906764e-05  1.0000
  V   V6        1.0  0.0024999998704499714  0.004750000007578265  0.9995310002187725  1.0000
  V   V7        1.0  0.006499999701272875  0.002750000092166815  0.999370200557478  1.0000
  V   V8        1.0  0.00849999990245645  0.00675000058554126  0.9996918000958995  1.0000
  V   V9        1.0  0.0005000000026672064  0.0007500000349643332  1.3399989760581389e-05  1.0000
  V   V10       1.0  0.004499999881118797  0.008750000596210086  0.9998526000409154  1.0000
  V   V11       1.0  0.006499999701272875  0.0002500000701680654  0.9997722000633016  1.0000
  V   V12       1.0  0.0005000000026672064  0.008249999963468398  0.9996114001951097  1.0000
  V   V13       1.0  0.0024999998704499714  0.002249999985579517  0.9999329997245961  1.0000
  V   V14       1.0  0.004499999881118797  0.006250000024242602  0.9994506002462645  1.0000
  V   V15       1.0  0.00849999990245645  0.004250000013573777  0.9992898005900759  1.0000
  V   V16       1.0  0.0054999996006810875  0.00825000073642894  0.9996114001496773  1.0000
  V   V17       1.0  0.009499999622018739  0.006250000725760115  0.9994506004934887  1.0000
  V   V18       1.0  0.0014999999603729323  0.00025000005611147024  0.9997722001049048  1.0000
  V   V19       1.0  0.00349999978052701  0.004250000052539747  0.9992898006214674  1.0000
  V   V20       1.0  0.007499999420835166  0.002250000232385669  0.9999329999667144  1.0000
  V   V21       1.0  0.004999999740899943  0.004750000358337022  0.9997320000952963  1.0000
  V   V22       1.0  0.008999999762237594  0.0027500003476681966  0.9995712001502804  1.0000
  V   V23       1.0  0.0010000000053344128  0.006750000226119787  0.9998927997591437  1.0000
  V   V24       1.0  0.0029999999207458647  0.0007500000869243787  0.9994104002782592  1.0000
  V   V25       1.0  0.00699999956105402  0.008750000492257482  5.359962350620308e-05  1.0000
  V   V26       1.0  0.00699999956105402  0.0037500004482599832  0.9996516001176826  1.0000
  V   V27       1.0  0.0010000000053344128  0.0017500000446301046  0.99949080025332  1.0000
  V   V28       1.0  0.0029999999207458647  0.00575000026841406  0.9998124000729101  1.0000
  V   V29       1.0  0.004999999740899943  0.00975000040233452  0.9993300005894727  1.0000
  V   V30       1.0  0.008999999762237594  0.0077500003916656955  0.9999731999449313  1.0000
  Ir  Ir1       1.0  0.004999999740899943  0.0022500003363382726  0.9995310003423845  1.0000
  Ir  Ir2       1.0  0.008999999762237594  0.0002500003256694472  0.9993702003973687  1.0000
  Ir  Ir3       1.0  0.0010000000053344128  0.004250000204121037  0.9996918002950591  1.0000
  Ir  Ir4       1.0  0.0029999999207458647  0.008249999740444075  1.340011464905556e-05  1.0000
  Ir  Ir5       1.0  0.00699999956105402  0.00624999992029  0.9998526001594216  1.0000
  Ir  Ir6       1.0  0.004999999740899943  0.0022500003363382726  0.9999329998482082  1.0000
  Ir  Ir7       1.0  0.008999999762237594  0.0002500003256694472  0.9997722001920194  1.0000
  Ir  Ir8       1.0  0.0010000000053344128  0.004250000204121037  0.9992898005004083  1.0000
  Ir  Ir9       1.0  0.0029999999207458647  0.008249999740444075  0.9996114003199983  1.0000
  Ir  Ir10      1.0  0.00699999956105402  0.00624999992029  0.9994506003647708  1.0000
