data_image0
_chemical_formula_structural       HSi12Rh12Si12Rh12
_chemical_formula_sum              "H1 Si24 Rh24"
_cell_length_a       8.388374818341518
_cell_length_b       7.1681566856705565
_cell_length_c       108.50785064697266
_cell_angle_alpha    102.20356900190124
_cell_angle_beta     77.10327413451138
_cell_angle_gamma    71.12746658082298

_space_group_name_H-M_alt    "P 1"
_space_group_IT_number       1

loop_
  _space_group_symop_operation_xyz
  'x, y, z'

loop_
  _atom_site_type_symbol
  _atom_site_label
  _atom_site_symmetry_multiplicity
  _atom_site_fract_x
  _atom_site_fract_y
  _atom_site_fract_z
  _atom_site_occupancy
  H   H1        1.0  0.001574394263729173  0.0013494288404480926  2.0701051682171235e-05  1.0000
  Si  Si1       1.0  0.007890780564905957  0.0005842523453900622  0.9992758129697127  1.0000
  Si  Si2       1.0  0.0012241140394735558  0.0005842523453900622  0.9990786546944218  1.0000
  Si  Si3       1.0  0.004557447359139057  0.0005842523453900622  0.9988814958834781  1.0000
  Si  Si4       1.0  0.0020336745248085587  0.009459894794983152  0.9988121807875481  1.0000
  Si  Si5       1.0  0.0053670077305754595  0.009459894794983152  0.9992064975991267  1.0000
  Si  Si6       1.0  0.008700341391936763  0.009459894794983152  0.9990093390569431  1.0000
  Si  Si7       1.0  0.004932233315570492  0.004459894968137714  0.9991550658966116  1.0000
  Si  Si8       1.0  0.008265566976931794  0.004459894968137714  0.998957907354428  1.0000
  Si  Si9       1.0  0.0015988998820063896  0.004459894968137714  0.9993522244348646  1.0000
  Si  Si10      1.0  0.004992222133541449  0.005584252460826436  0.998932927583822  1.0000
  Si  Si11      1.0  0.008325555794902751  0.005584252460826436  0.9993272446621956  1.0000
  Si  Si12      1.0  0.0016588886999773474  0.005584252460826436  0.999130086396731  1.0000
  Rh  Rh1       1.0  0.005129643603244679  0.007048603261437712  0.9993315346654612  1.0000
  Rh  Rh2       1.0  0.00846297726460598  0.007048603261437712  0.9991343761232777  1.0000
  Rh  Rh3       1.0  0.0017963103974777777  0.007048603261437712  0.9989372175792266  1.0000
  Rh  Rh4       1.0  0.0047948119420642395  0.0029955438789355028  0.9993479349791514  1.0000
  Rh  Rh5       1.0  0.008128145603425542  0.0029955438789355028  0.9991507764369679  1.0000
  Rh  Rh6       1.0  0.0014614782807029375  0.0029955438789355028  0.998953617626122  1.0000
  Rh  Rh7       1.0  0.0031473303171803742  0.007995543994371876  0.9991530457280742  1.0000
  Rh  Rh8       1.0  0.006480663978541677  0.007995543994371876  0.9989558871858906  1.0000
  Rh  Rh9       1.0  0.009813996728714174  0.007995543994371876  0.9993502045546421  1.0000
  Rh  Rh10      1.0  0.006777125131931566  0.002048603434592273  0.9989349480270153  1.0000
  Rh  Rh11      1.0  0.00011045849260056352  0.002048603434592273  0.999329265099591  1.0000
  Rh  Rh12      1.0  0.0034437919261646652  0.002048603434592273  0.9991321065613379  1.0000
  Si  Si13      1.0  0.007932415671148418  0.000551804443383815  0.9998709106557929  1.0000
  Si  Si14      1.0  0.0013096021302631178  0.0005251802703469075  0.9996683266667205  1.0000
  Si  Si15      1.0  0.004557447359139057  0.0005842523453900622  0.9994729715040351  1.0000
  Si  Si16      1.0  0.0020336745248085587  0.009459894794983152  0.9994036561334493  1.0000
  Si  Si17      1.0  0.0053406488364265686  0.009474820140895172  0.999805661324225  1.0000
  Si  Si18      1.0  0.008700341391936763  0.009459894794983152  0.9996008149521561  1.0000
  Si  Si19      1.0  0.004964480338992049  0.004529540618181173  0.9997553530799943  1.0000
  Si  Si20      1.0  0.008265566976931794  0.004459894968137714  0.999549383249641  1.0000
  Si  Si21      1.0  0.0016677035388924077  0.004371111410322191  0.9999411426196981  1.0000
  Si  Si22      1.0  0.004992222133541449  0.005584252460826436  0.9995244032043791  1.0000
  Si  Si23      1.0  0.008454446583379932  0.0054034231132802065  0.9999204736564592  1.0000
  Si  Si24      1.0  0.0017381539561959097  0.005613298561127161  0.9997231111324367  1.0000
  Rh  Rh13      1.0  0.005568521752782958  0.006889615052940044  0.9999084942740653  1.0000
  Rh  Rh14      1.0  0.008525403959140846  0.0070470362126674145  0.999724029007169  1.0000
  Rh  Rh15      1.0  0.0017963103974777777  0.007048603261437712  0.9995286931997838  1.0000
  Rh  Rh16      1.0  0.0048489909448407404  0.002921846412182102  0.999924778129451  1.0000
  Rh  Rh17      1.0  0.008185249044022782  0.0029461806883073847  0.9997384172761855  1.0000
  Rh  Rh18      1.0  0.0014614782807029375  0.0029955438789355028  0.999545093521335  1.0000
  Rh  Rh19      1.0  0.0033410256344766757  0.007917900335190289  0.9997377497182303  1.0000
  Rh  Rh20      1.0  0.006480663978541677  0.007995543994371876  0.9995473630811036  1.0000
  Rh  Rh21      1.0  0.00988954234815034  0.007727179244798621  0.9999372671568036  1.0000
  Rh  Rh22      1.0  0.006777125131931566  0.002048603434592273  0.9995264239222283  1.0000
  Rh  Rh23      1.0  0.00025736789454679514  0.0018850223013838696  0.9999031624352294  1.0000
  Rh  Rh24      1.0  0.0034985452371616467  0.001989002191998209  0.9997184771455917  1.0000
