data_image0
_chemical_formula_structural       COIn3Pt9In3Pt9In3Pt9In3Pt9
_chemical_formula_sum              "C1 O1 In12 Pt36"
_cell_length_a       9.110587891103219
_cell_length_b       8.148757934570312
_cell_length_c       104.57225036621094
_cell_angle_alpha    90.0
_cell_angle_beta     108.43494834877139
_cell_angle_gamma    90.0

_space_group_name_H-M_alt    "P 1"
_space_group_IT_number       1

loop_
  _space_group_symop_operation_xyz
  'x, y, z'

loop_
  _atom_site_type_symbol
  _atom_site_label
  _atom_site_symmetry_multiplicity
  _atom_site_fract_x
  _atom_site_fract_y
  _atom_site_fract_z
  _atom_site_occupancy
  C   C1        1.0  0.0007335234417860139  0.004999999652558016  0.00010846491142984589  1.0000
  O   O1        1.0  0.0007335234417860139  0.004999999652558016  0.00022321834053432732  1.0000
  In  In1       1.0  0.0075998095754695955  0.001249999913139504  0.999796121194754  1.0000
  In  In2       1.0  0.004266476454770367  0.001249999913139504  0.999979791346311  1.0000
  In  In3       1.0  0.0009331432263173697  0.001249999913139504  0.9996124510122041  1.0000
  Pt  Pt1       1.0  0.005933143230627521  0.0037499998537086385  0.9998879559914772  1.0000
  Pt  Pt2       1.0  0.0025998098944207534  0.0037499998537086385  7.162613709686483e-05  1.0000
  Pt  Pt3       1.0  0.009266476782341826  0.0037499998537086385  0.9997042858517949  1.0000
  Pt  Pt4       1.0  0.009266476782341826  0.0037499998537086385  0.9999797910931425  1.0000
  Pt  Pt5       1.0  0.005933143230627521  0.0037499998537086385  0.9996124507501296  1.0000
  Pt  Pt6       1.0  0.0025998098944207534  0.0037499998537086385  0.9997961208957492  1.0000
  Pt  Pt7       1.0  0.0075998095754695955  0.001249999913139504  7.162643610165005e-05  1.0000
  Pt  Pt8       1.0  0.004266476454770367  0.001249999913139504  0.9997042861049634  1.0000
  Pt  Pt9       1.0  0.0009331432263173697  0.001249999913139504  0.9998879562535516  1.0000
  In  In4       1.0  0.0075998095754695955  0.001249999913139504  0.9992451104270661  1.0000
  In  In5       1.0  0.004266476454770367  0.001249999913139504  0.999428780578623  1.0000
  In  In6       1.0  0.0009331432263173697  0.001249999913139504  0.9990614402445162  1.0000
  Pt  Pt10      1.0  0.005933143230627521  0.0037499998537086385  0.9993369455087819  1.0000
  Pt  Pt11      1.0  0.0025998098944207534  0.0037499998537086385  0.9995206156544015  1.0000
  Pt  Pt12      1.0  0.009266476782341826  0.0037499998537086385  0.9991532753690996  1.0000
  Pt  Pt13      1.0  0.009266476782341826  0.0037499998537086385  0.9994287806104473  1.0000
  Pt  Pt14      1.0  0.005933143230627521  0.0037499998537086385  0.9990614402674343  1.0000
  Pt  Pt15      1.0  0.0025998098944207534  0.0037499998537086385  0.999245110413054  1.0000
  Pt  Pt16      1.0  0.0075998095754695955  0.001249999913139504  0.9995206156684138  1.0000
  Pt  Pt17      1.0  0.004266476454770367  0.001249999913139504  0.9991532753372755  1.0000
  Pt  Pt18      1.0  0.0009331432263173697  0.001249999913139504  0.9993369454858637  1.0000
  In  In7       1.0  0.0075998095754695955  0.006249999908567899  0.999796121194754  1.0000
  In  In8       1.0  0.004266476454770367  0.006249999908567899  0.999979791346311  1.0000
  In  In9       1.0  0.0009331432263173697  0.006249999908567899  0.9996124510122041  1.0000
  Pt  Pt19      1.0  0.005933143230627521  0.00874999996342716  0.9998879559914772  1.0000
  Pt  Pt20      1.0  0.0025998098944207534  0.00874999996342716  7.162613709686483e-05  1.0000
  Pt  Pt21      1.0  0.009266476782341826  0.00874999996342716  0.9997042858517949  1.0000
  Pt  Pt22      1.0  0.009266476782341826  0.00874999996342716  0.9999797910931425  1.0000
  Pt  Pt23      1.0  0.005933143230627521  0.00874999996342716  0.9996124507501296  1.0000
  Pt  Pt24      1.0  0.0025998098944207534  0.00874999996342716  0.9997961208957492  1.0000
  Pt  Pt25      1.0  0.0075998095754695955  0.006249999908567899  7.162643610165005e-05  1.0000
  Pt  Pt26      1.0  0.004266476454770367  0.006249999908567899  0.9997042861049634  1.0000
  Pt  Pt27      1.0  0.0009331432263173697  0.006249999908567899  0.9998879562535516  1.0000
  In  In10      1.0  0.0075998095754695955  0.006249999908567899  0.9992451104270661  1.0000
  In  In11      1.0  0.004266476454770367  0.006249999908567899  0.999428780578623  1.0000
  In  In12      1.0  0.0009331432263173697  0.006249999908567899  0.9990614402445162  1.0000
  Pt  Pt28      1.0  0.005933143230627521  0.00874999996342716  0.9993369455087819  1.0000
  Pt  Pt29      1.0  0.0025998098944207534  0.00874999996342716  0.9995206156544015  1.0000
  Pt  Pt30      1.0  0.009266476782341826  0.00874999996342716  0.9991532753690996  1.0000
  Pt  Pt31      1.0  0.009266476782341826  0.00874999996342716  0.9994287806104473  1.0000
  Pt  Pt32      1.0  0.005933143230627521  0.00874999996342716  0.9990614402674343  1.0000
  Pt  Pt33      1.0  0.0025998098944207534  0.00874999996342716  0.999245110413054  1.0000
  Pt  Pt34      1.0  0.0075998095754695955  0.006249999908567899  0.9995206156684138  1.0000
  Pt  Pt35      1.0  0.004266476454770367  0.006249999908567899  0.9991532753372755  1.0000
  Pt  Pt36      1.0  0.0009331432263173697  0.006249999908567899  0.9993369454858637  1.0000
