data_image0
_chemical_formula_structural       Co8Sb24H
_chemical_formula_sum              "Co8 Sb24 H1"
_cell_length_a       7.948856830596924
_cell_length_b       7.9488568249566915
_cell_length_c       31.058713912963867
_cell_angle_alpha    90.0
_cell_angle_beta     90.0
_cell_angle_gamma    109.47122004127102

_space_group_name_H-M_alt    "P 1"
_space_group_IT_number       1

loop_
  _space_group_symop_operation_xyz
  'x, y, z'

loop_
  _atom_site_type_symbol
  _atom_site_label
  _atom_site_symmetry_multiplicity
  _atom_site_fract_x
  _atom_site_fract_y
  _atom_site_fract_z
  _atom_site_occupancy
  Co  Co1       1.0  0.0075357537044272276  0.007547561008781167  0.9970531460089165  1.0000
  Co  Co2       1.0  0.002535753744429635  0.002547561058489787  0.9991428056732584  1.0000
  Co  Co3       1.0  0.00013076940449310967  0.004940957791257519  0.00010273830931413608  1.0000
  Co  Co4       1.0  0.005035753775787819  4.7560997907406284e-05  0.9980979760809744  1.0000
  Co  Co5       1.0  0.002535753744429635  0.002547561058489787  0.9970531460089165  1.0000
  Co  Co6       1.0  0.0075357537044272276  0.007547561008781167  0.9991428056732584  1.0000
  Co  Co7       1.0  0.005143224847463466  0.009952439190053314  0.00010224174329794972  1.0000
  Co  Co8       1.0  3.575364316870625e-05  0.0050475609093639275  0.9980979760809744  1.0000
  Sb  Sb1       1.0  0.008297664087284023  0.004976053568235858  0.9974014052678164  1.0000
  Sb  Sb2       1.0  0.003298083692120426  0.009950471722873729  0.9994750193728874  1.0000
  Sb  Sb3       1.0  0.002500063374965399  0.007583251300854702  0.9963715443822204  1.0000
  Sb  Sb4       1.0  0.007500063371983139  0.0025832513505633222  0.9984612042864492  1.0000
  Sb  Sb5       1.0  0.004166772381582628  0.002583378107544321  0.9963416590243158  1.0000
  Sb  Sb6       1.0  0.00916677222441588  0.0075833780578357015  0.9984313186886576  1.0000
  Sb  Sb7       1.0  0.0009048620360973208  0.00917845311069386  0.9970382298374738  1.0000
  Sb  Sb8       1.0  0.0059048618385951004  0.00417845291185938  0.9991278895018156  1.0000
  Sb  Sb9       1.0  0.0009047350756883434  0.002511743760892153  0.9977646329935173  1.0000
  Sb  Sb10      1.0  0.006059474323488308  0.007493881664215966  0.99987636609677  1.0000
  Sb  Sb11      1.0  0.007534881232804161  0.00254988170541447  0.9998293823157081  1.0000
  Sb  Sb12      1.0  0.0025714439816776962  0.007511870716707632  0.9977347478754997  1.0000
  Sb  Sb13      1.0  0.007499936634978917  0.005916542149887476  0.9963416590243158  1.0000
  Sb  Sb14      1.0  0.002499936619952756  0.0009165423860034206  0.9984313186886576  1.0000
  Sb  Sb15      1.0  0.007571570608180143  0.009178579370588658  0.9977646329935173  1.0000
  Sb  Sb16      1.0  0.0025877995761726053  0.0040239341636767265  0.9998763809697617  1.0000
  Sb  Sb17      1.0  0.004166645410249724  0.005916668906868475  0.9970680621803593  1.0000
  Sb  Sb18      1.0  0.009166645847100263  0.0009166692051201946  0.9991577218447011  1.0000
  Sb  Sb19      1.0  0.00996424656240115  0.0033094714227927305  0.9967048872297906  1.0000
  Sb  Sb20      1.0  0.004964246208398306  0.008309471373084111  0.9987945468941324  1.0000
  Sb  Sb21      1.0  0.00013282123189319004  0.006784743462163231  0.9994753705674032  1.0000
  Sb  Sb22      1.0  0.0051072610818703665  0.0017856505699152933  0.9974014052678164  1.0000
  Sb  Sb23      1.0  0.006773843114220032  0.00011906850214188479  0.9967048872297906  1.0000
  Sb  Sb24      1.0  0.001773843212820199  0.005119068250491996  0.9987945468941324  1.0000
  H   H1        1.0  0.007613059878240544  0.009205275882045661  0.0  1.0000
