data_image0
_chemical_formula_structural       CONi12V6Ni12V6
_chemical_formula_sum              "C1 O1 Ni24 V12"
_cell_length_a       5.6927290143011735
_cell_length_b       8.830714735730224
_cell_length_c       100.43404388427734
_cell_angle_alpha    91.4254558961428
_cell_angle_beta     95.23379250377343
_cell_angle_gamma    74.89751924826334

_space_group_name_H-M_alt    "P 1"
_space_group_IT_number       1

loop_
  _space_group_symop_operation_xyz
  'x, y, z'

loop_
  _atom_site_type_symbol
  _atom_site_label
  _atom_site_symmetry_multiplicity
  _atom_site_fract_x
  _atom_site_fract_y
  _atom_site_fract_z
  _atom_site_occupancy
  C   C1        1.0  0.007504056548012014  0.00017581259167832145  0.00011133338058730391  1.0000
  O   O1        1.0  0.007504056548012014  0.00017581259167832145  0.0002308150210211174  1.0000
  Ni  Ni1       1.0  0.008345563064094869  0.001967044536601433  0.9995294878055792  1.0000
  Ni  Ni2       1.0  0.001678896075356821  0.0005384730894475474  0.9993851900694338  1.0000
  Ni  Ni3       1.0  0.005012229399617721  0.004109901855999083  0.9992408924548103  1.0000
  Ni  Ni4       1.0  0.009440368061069177  0.003379892655641966  0.9993367379738402  1.0000
  Ni  Ni5       1.0  0.0027737014125473755  0.0019513210990591532  0.9991924402392145  1.0000
  Ni  Ni6       1.0  0.006107034736808276  0.004808464131732739  0.999481035435434  1.0000
  Ni  Ni7       1.0  0.008345563064094869  0.0012527587499751545  0.9999623809130421  1.0000
  Ni  Ni8       1.0  0.001678896075356821  0.004824187545463578  0.9998180833206023  1.0000
  Ni  Ni9       1.0  0.005012229399617721  0.003395616069372805  0.9996737855622732  1.0000
  Ni  Ni10      1.0  0.009440368061069177  0.002665606869015687  0.9997696307845678  1.0000
  Ni  Ni11      1.0  0.0027737014125473755  0.0012370354179295307  0.9996253333469082  1.0000
  Ni  Ni12      1.0  0.006107034736808276  0.00409417834510646  0.999913928542897  1.0000
  V   V1        1.0  0.007226298560235325  0.001244897241962162  0.999288815141828  1.0000
  V   V2        1.0  0.0005596319967675864  0.004102040179973558  0.9995774103621596  1.0000
  V   V3        1.0  0.003892965576190672  0.0026734684503790236  0.9994331129013306  1.0000
  V   V4        1.0  0.007226298560235325  0.0005306114553358835  0.9997217082492909  1.0000
  V   V5        1.0  0.0005596319967675864  0.003387754393347279  1.0303469622601845e-05  1.0000
  V   V6        1.0  0.003892965576190672  0.001959182874746057  0.9998660057125198  1.0000
  Ni  Ni13      1.0  0.008345563064094869  0.0069670441990121335  0.9995294876512802  1.0000
  Ni  Ni14      1.0  0.001678896075356821  0.005538472910103232  0.9993851899154811  1.0000
  Ni  Ni15      1.0  0.005012229399617721  0.009109901940396408  0.9992408923014343  1.0000
  Ni  Ni16      1.0  0.009440368061069177  0.008379892318052667  0.9993367378195412  1.0000
  Ni  Ni17      1.0  0.0027737014125473755  0.0069513213944497896  0.9991924400863001  1.0000
  Ni  Ni18      1.0  0.006107034736808276  0.009808464216130065  0.9994810355787933  1.0000
  Ni  Ni19      1.0  0.008345563064094869  0.006252758412385855  0.9999623807587432  1.0000
  Ni  Ni20      1.0  0.001678896075356821  0.009824187207874278  0.9998180831663034  1.0000
  Ni  Ni21      1.0  0.005012229399617721  0.00839561615377013  0.9996737854088973  1.0000
  Ni  Ni22      1.0  0.009440368061069177  0.007665606531426389  0.9997696312237394  1.0000
  Ni  Ni23      1.0  0.0027737014125473755  0.006237035607823511  0.9996253331937631  1.0000
  Ni  Ni24      1.0  0.006107034736808276  0.009094178429503786  0.9999139289829916  1.0000
  V   V7        1.0  0.007226298560235325  0.006244897326359486  0.999288814988452  1.0000
  V   V8        1.0  0.0005596319967675864  0.009102040264370882  0.9995774105055191  1.0000
  V   V9        1.0  0.003892965576190672  0.007673468323783037  0.9994331127474932  1.0000
  V   V10       1.0  0.007226298560235325  0.005530611539733208  0.999721708095915  1.0000
  V   V11       1.0  0.0005596319967675864  0.008387754477744603  1.0303316246702692e-05  1.0000
  V   V12       1.0  0.003892965576190672  0.006959182537156758  0.9998660061516914  1.0000
