data_image0
_chemical_formula_structural       CONa8Cu4As4
_chemical_formula_sum              "C1 O1 Na8 Cu4 As4"
_cell_length_a       9.009068489074707
_cell_length_b       5.399256706237793
_cell_length_c       99.13446807861328
_cell_angle_alpha    90.0
_cell_angle_beta     90.0
_cell_angle_gamma    90.0

_space_group_name_H-M_alt    "P 1"
_space_group_IT_number       1

loop_
  _space_group_symop_operation_xyz
  'x, y, z'

loop_
  _atom_site_type_symbol
  _atom_site_label
  _atom_site_symmetry_multiplicity
  _atom_site_fract_x
  _atom_site_fract_y
  _atom_site_fract_z
  _atom_site_occupancy
  C   C1        1.0  0.005873499693225979  0.007598874177099799  7.546114178867337e-05  1.0000
  O   O1        1.0  0.005873499693225979  0.007598874177099799  0.0001965090936390741  1.0000
  Na  Na1       1.0  0.007626279078562202  0.0025993055285089845  0.9994363664721232  1.0000
  Na  Na2       1.0  0.004120719480880769  0.007599305404315546  0.9996514313575339  1.0000
  Na  Na3       1.0  0.007626279078562202  0.007599305404315546  0.9996514313575339  1.0000
  Na  Na4       1.0  0.004120719480880769  0.0025993055285089845  0.9994363664721232  1.0000
  Na  Na5       1.0  0.0026204976820327496  0.0025993126006353226  0.9997745806797504  1.0000
  Na  Na6       1.0  0.008644486753195006  0.007599393719649332  0.0  1.0000
  Na  Na7       1.0  0.0031025128400091967  0.007599393719649332  0.0  1.0000
  Na  Na8       1.0  0.009126501497666962  0.0025993126006353226  0.9997745806797504  1.0000
  Cu  Cu1       1.0  0.0008734991928855421  0.005099305638903152  0.9995438989148285  1.0000
  Cu  Cu2       1.0  0.0008734991928855421  9.930564450910562e-05  0.9995438989148285  1.0000
  Cu  Cu3       1.0  0.005873499693225979  0.005297054710664836  0.9999007660161772  1.0000
  Cu  Cu4       1.0  0.005873499693225979  0.009900693988516533  0.999900721523643  1.0000
  As  As1       1.0  0.0008734991928855421  0.0025993055285089845  0.999345476642218  1.0000
  As  As2       1.0  0.0008734991928855421  0.007599250897195476  0.9997623488403428  1.0000
  As  As3       1.0  0.0058734992797214855  0.0025993055285089845  0.9997128370672622  1.0000
  As  As4       1.0  0.0058734992797214855  0.007599305404315546  0.9993749607623948  1.0000
