data_image0
_chemical_formula_structural       Fe12Si12H
_chemical_formula_sum              "Fe12 Si12 H1"
_cell_length_a       6.32500696182251
_cell_length_b       6.325007030156298
_cell_length_c       100.986083984375
_cell_angle_alpha    90.0
_cell_angle_beta     90.0
_cell_angle_gamma    60.00000035738513

_space_group_name_H-M_alt    "P 1"
_space_group_IT_number       1

loop_
  _space_group_symop_operation_xyz
  'x, y, z'

loop_
  _atom_site_type_symbol
  _atom_site_label
  _atom_site_symmetry_multiplicity
  _atom_site_fract_x
  _atom_site_fract_y
  _atom_site_fract_z
  _atom_site_occupancy
  Fe  Fe1       1.0  0.006873378380420793  0.004122082359077058  0.0  1.0000
  Fe  Fe2       1.0  0.00019704805095328048  0.007403146421577737  0.9997553724382856  1.0000
  Fe  Fe3       1.0  0.0034841660463316238  0.0007580251549633315  0.9994995347080652  1.0000
  Fe  Fe4       1.0  0.00412225651767033  0.009004769466880872  0.9999999929172841  1.0000
  Fe  Fe5       1.0  0.007403130321827416  0.0023999051310697505  0.9997553647653434  1.0000
  Fe  Fe6       1.0  0.0007580752668247438  0.005758025290981985  0.9994995347080652  1.0000
  Fe  Fe7       1.0  0.009004904368255415  0.006873340844464736  7.082715846426473e-09  1.0000
  Fe  Fe8       1.0  0.0024000314875086476  0.0001970718587770552  0.999755367716475  1.0000
  Fe  Fe9       1.0  0.005758075078151619  0.003484116108895881  0.9994995347080652  1.0000
  Fe  Fe10      1.0  0.006666772338617114  0.006666722388975046  0.999638944984523  1.0000
  Fe  Fe11      1.0  1.0550000042783612e-07  5.545000091417552e-08  0.9993832489086196  1.0000
  Fe  Fe12      1.0  0.0033333575500212416  0.003333445526052686  0.9998915258459067  1.0000
  Si  Si1       1.0  0.006245708081141139  0.009393992964679982  0.9998384096086428  1.0000
  Si  Si2       1.0  0.009544125272044474  0.002728045541983191  0.9995750937109412  1.0000
  Si  Si3       1.0  0.0028774589936586513  0.006061378852646748  0.9993193976350377  1.0000
  Si  Si4       1.0  0.00939411856279018  0.004360930434511044  0.9998384113793217  1.0000
  Si  Si5       1.0  0.002728095953690522  0.00772804533795521  0.9995750937109412  1.0000
  Si  Si6       1.0  0.006061429179342421  0.0010613788866514122  0.9993193976350377  1.0000
  Si  Si7       1.0  0.004360726663736455  0.006245156375749245  0.9998384001650216  1.0000
  Si  Si8       1.0  0.007728095711208243  0.009544075266846834  0.9995750937109412  1.0000
  Si  Si9       1.0  0.0010614288922966282  0.0028774086455197194  0.9993193976350377  1.0000
  Si  Si10      1.0  0.006666772338617114  0.006666722388975046  0.999412267975895  1.0000
  Si  Si11      1.0  0.009999894685883118  0.009999944504389376  0.9999345025852102  1.0000
  Si  Si12      1.0  0.0033334389519401107  0.0033333887382648543  0.9996679640517985  1.0000
  H   H1        1.0  0.0038470421918905067  0.004789300780877649  1.3498475950647787e-05  1.0000
