data_image0
_chemical_formula_structural       HCu2Au2Se8Cu2Au2Se8
_chemical_formula_sum              "H1 Cu4 Au4 Se16"
_cell_length_a       9.67583355630331
_cell_length_b       7.614774703979492
_cell_length_c       106.0074462890625
_cell_angle_alpha    90.0
_cell_angle_beta     58.87444063434718
_cell_angle_gamma    90.0

_space_group_name_H-M_alt    "P 1"
_space_group_IT_number       1

loop_
  _space_group_symop_operation_xyz
  'x, y, z'

loop_
  _atom_site_type_symbol
  _atom_site_label
  _atom_site_symmetry_multiplicity
  _atom_site_fract_x
  _atom_site_fract_y
  _atom_site_fract_z
  _atom_site_occupancy
  H   H1        1.0  0.006036926175756596  2.1834500120377157e-05  0.9998078702191834  1.0000
  Cu  Cu1       1.0  0.006924543528911658  0.002514008386539456  0.9995249241531972  1.0000
  Cu  Cu2       1.0  0.0001289684558777093  0.007513816319271805  0.9993519495511092  1.0000
  Au  Au1       1.0  0.00353757056279602  0.005013816221428062  0.9994321543568185  1.0000
  Au  Au2       1.0  0.00353757056279602  1.3816499671205885e-05  0.9994321543568185  1.0000
  Se  Se1       1.0  0.007117860090497461  2.1834500120377157e-05  0.9996641689773418  1.0000
  Se  Se2       1.0  0.0006463060466414997  0.004973732085984769  0.9996522800890392  1.0000
  Se  Se3       1.0  0.0006462316678242371  5.335809920320361e-05  0.999652246488621  1.0000
  Se  Se4       1.0  0.007120972419540285  0.005004375278658981  0.9996641036620456  1.0000
  Se  Se5       1.0  0.007204056313193592  0.007513396080395307  0.9995287786896456  1.0000
  Se  Se6       1.0  0.009871031309123457  0.002513816368193676  0.999345697305251  1.0000
  Se  Se7       1.0  0.0006257082864828866  0.0075137918583360365  0.9997779225850244  1.0000
  Se  Se8       1.0  0.004247466506590049  0.0025139381836538017  0.9995512960788919  1.0000
  Cu  Cu3       1.0  0.006946172416725157  0.002513816368193676  0.9990877728214344  1.0000
  Cu  Cu4       1.0  0.0001289684558777093  0.007513816319271805  0.9989273631980793  1.0000
  Au  Au3       1.0  0.00353757056279602  0.005013816221428062  0.9990075680037886  1.0000
  Au  Au4       1.0  0.00353757056279602  1.3816499671205885e-05  0.9990075680037886  1.0000
  Se  Se9       1.0  0.0066013011723024505  4.1449499013617655e-05  0.9992612866637359  1.0000
  Se  Se10      1.0  0.000473839840849957  0.005041449251346643  0.9991784357021762  1.0000
  Se  Se11      1.0  0.000473839840849957  0.009986183876415682  0.9991784357021762  1.0000
  Se  Se12      1.0  0.0066013011723024505  0.004986183680728195  0.9992612866637359  1.0000
  Se  Se13      1.0  0.0072041093847003915  0.007513816319271805  0.9990940251431998  1.0000
  Se  Se14      1.0  0.009871031309123457  0.002513816368193676  0.9989211109522211  1.0000
  Se  Se15      1.0  0.00286817200163761  0.007513816319271805  0.9993108994925047  1.0000
  Se  Se16      1.0  0.004206969348833696  0.002513816368193676  0.9991288222952238  1.0000
