data_image0
_chemical_formula_structural       COCa8Ge8Pt8
_chemical_formula_sum              "C1 O1 Ca8 Ge8 Pt8"
_cell_length_a       8.805131674768889
_cell_length_b       7.299407482147217
_cell_length_c       105.22052764892578
_cell_angle_alpha    90.0
_cell_angle_beta     118.74412147316394
_cell_angle_gamma    90.0

_space_group_name_H-M_alt    "P 1"
_space_group_IT_number       1

loop_
  _space_group_symop_operation_xyz
  'x, y, z'

loop_
  _atom_site_type_symbol
  _atom_site_label
  _atom_site_symmetry_multiplicity
  _atom_site_fract_x
  _atom_site_fract_y
  _atom_site_fract_z
  _atom_site_occupancy
  C   C1        1.0  0.0043281499300753465  0.0015506492213743996  0.00017417723127587326  1.0000
  O   O1        1.0  0.0043281499300753465  0.0015506492213743996  0.0002882236496585469  1.0000
  Ca  Ca1       1.0  0.009799024178637015  4.232999757934464e-05  0.9996527407325677  1.0000
  Ca  Ca2       1.0  0.004727570135582551  0.009957670244520387  5.4389170996342124e-05  1.0000
  Ca  Ca3       1.0  0.00020097639981079857  0.009881209854646278  9.47856228553795e-06  1.0000
  Ca  Ca4       1.0  0.005337089824983923  0.009904401413982668  0.9996077139805253  1.0000
  Ca  Ca5       1.0  0.00033708949806138364  0.005042329939207473  0.9996077137860975  1.0000
  Ca  Ca6       1.0  0.005200951559126449  0.005065517415702556  9.473778581536798e-06  1.0000
  Ca  Ca7       1.0  0.009727673515486202  0.004989077950390147  5.439237962616291e-05  1.0000
  Ca  Ca8       1.0  0.0047990235802843235  0.004904401352740047  0.9996527405272168  1.0000
  Ge  Ge1       1.0  0.008401759660299967  0.006775281214677299  0.9997696672961207  1.0000
  Ge  Ge2       1.0  0.003401759785761016  0.006775281214677299  0.9993512541852497  1.0000
  Ge  Ge3       1.0  0.0017708866751889592  0.003143628320713652  0.9999184723767726  1.0000
  Ge  Ge4       1.0  0.006734353378235984  0.0031714503324478034  0.9994907870948977  1.0000
  Ge  Ge5       1.0  0.006770851444761562  0.0018031596870031795  0.9999184722732172  1.0000
  Ge  Ge6       1.0  0.0017343535036970321  0.0017752811534346789  0.9994907872019119  1.0000
  Ge  Ge7       1.0  0.003401759785761016  0.008171450138512842  0.9997696671198981  1.0000
  Ge  Ge8       1.0  0.008401759660299967  0.008171450138512842  0.9993512540782357  1.0000
  Pt  Pt1       1.0  0.006762297896534737  0.008072426946863684  0.9999084838417586  1.0000
  Pt  Pt2       1.0  0.001780106252691429  0.007993761822683574  0.9994869583075385  1.0000
  Pt  Pt3       1.0  0.0033560067954953726  0.001952969724441528  0.9997734962877988  1.0000
  Pt  Pt4       1.0  0.008356006911305572  0.001952969724441528  0.9993550829726089  1.0000
  Pt  Pt5       1.0  0.008356006911305572  0.0029937617614409547  0.999773496190494  1.0000
  Pt  Pt6       1.0  0.0033560067954953726  0.0029937617614409547  0.9993550827866768  1.0000
  Pt  Pt7       1.0  0.001762294402927089  0.006874369221432213  0.9999084863522618  1.0000
  Pt  Pt8       1.0  0.006780106609772874  0.0069529695305065664  0.99948695850318  1.0000
