data_image0
_chemical_formula_structural       COAg8In16
_chemical_formula_sum              "C1 O1 Ag8 In16"
_cell_length_a       9.924911499023438
_cell_length_b       5.779553348814922
_cell_length_c       100.53837585449219
_cell_angle_alpha    88.33850249570501
_cell_angle_beta     90.0
_cell_angle_gamma    90.0

_space_group_name_H-M_alt    "P 1"
_space_group_IT_number       1

loop_
  _space_group_symop_operation_xyz
  'x, y, z'

loop_
  _atom_site_type_symbol
  _atom_site_label
  _atom_site_symmetry_multiplicity
  _atom_site_fract_x
  _atom_site_fract_y
  _atom_site_fract_z
  _atom_site_occupancy
  C   C1        1.0  0.005472532526469623  0.002329272136621863  0.00011840692962219852  1.0000
  O   O1        1.0  0.005472532526469623  0.002329272136621863  0.0002377639871841555  1.0000
  Ag  Ag1       1.0  0.006722533021928267  0.0037499997549627724  0.9994791683245979  1.0000
  Ag  Ag2       1.0  0.0017225325414835211  0.001249999945189041  0.999226044654291  1.0000
  Ag  Ag3       1.0  0.0017225325414835211  0.006249999484132153  0.9997322919950392  1.0000
  Ag  Ag4       1.0  0.006722533021928267  0.008749999535718938  0.999985415664943  1.0000
  Ag  Ag5       1.0  0.006722533021928267  0.006249999484132153  0.9997322919950392  1.0000
  Ag  Ag6       1.0  0.0017225325414835211  0.0037499997549627724  0.9994791683245979  1.0000
  Ag  Ag7       1.0  0.0017225325414835211  0.008749999535718938  0.999985415664943  1.0000
  Ag  Ag8       1.0  0.006722533021928267  0.001249999945189041  0.999226044654291  1.0000
  In  In1       1.0  0.009222532511455725  0.003917597158137679  0.999304762819499  1.0000
  In  In2       1.0  0.004222532781705894  0.0014175972677595967  0.9990516391493264  1.0000
  In  In3       1.0  0.004222532781705894  0.006417597209724463  0.9995578864894028  1.0000
  In  In4       1.0  0.009222532511455725  0.008917597261311248  0.9998110101593067  1.0000
  In  In5       1.0  0.0076675978646729365  0.008749999535718938  0.999479168473177  1.0000
  In  In6       1.0  0.0026675973842281903  0.006249999484132153  0.9992260448032732  1.0000
  In  In7       1.0  0.0026675973842281903  0.001249999945189041  0.9997322921424844  1.0000
  In  In8       1.0  0.0076675978646729365  0.0037499997549627724  0.9999854158127913  1.0000
  In  In9       1.0  0.00577746780383614  0.001249999945189041  0.9997322921424844  1.0000
  In  In10      1.0  0.0007774676049019873  0.008749999535718938  0.999479168473177  1.0000
  In  In11      1.0  0.0007774676049019873  0.0037499997549627724  0.9999854158127913  1.0000
  In  In12      1.0  0.00577746780383614  0.006249999484132153  0.9992260448032732  1.0000
  In  In13      1.0  0.009222532511455725  0.0035824026742052703  0.9996535738291594  1.0000
  In  In14      1.0  0.004222532781705894  0.0010824026226184857  0.9994004501592556  1.0000
  In  In15      1.0  0.004222532781705894  0.00608240240337465  0.9999066974996007  1.0000
  In  In16      1.0  0.009222532511455725  0.008582402454961434  0.9991473264895452  1.0000
