data_image0
_chemical_formula_structural       COCa6Al4Ge4Ca6Al4Ge4
_chemical_formula_sum              "C1 O1 Ca12 Al8 Ge8"
_cell_length_a       4.613284587860107
_cell_length_b       18.866931915283203
_cell_length_c       99.1991195678711
_cell_angle_alpha    90.0
_cell_angle_beta     90.0
_cell_angle_gamma    90.0

_space_group_name_H-M_alt    "P 1"
_space_group_IT_number       1

loop_
  _space_group_symop_operation_xyz
  'x, y, z'

loop_
  _atom_site_type_symbol
  _atom_site_label
  _atom_site_symmetry_multiplicity
  _atom_site_fract_x
  _atom_site_fract_y
  _atom_site_fract_z
  _atom_site_occupancy
  C   C1        1.0  0.004999999386289622  0.009771736101436902  0.00015658916064917186  1.0000
  O   O1        1.0  0.004999999386289622  0.009771736101436902  0.0002775576205137781  1.0000
  Ca  Ca1       1.0  5.999999975691394e-10  0.00022826410193739586  0.9995621254920407  1.0000
  Ca  Ca2       1.0  5.999999975691394e-10  0.0020849932888219688  0.9993518763530855  1.0000
  Ca  Ca3       1.0  0.005000000597560104  0.003371534745245158  0.9995621254920407  1.0000
  Ca  Ca4       1.0  0.005000000597560104  0.005228263882767038  0.9993518763530855  1.0000
  Ca  Ca5       1.0  0.005000000597560104  0.007084993415190464  0.9995621254920407  1.0000
  Ca  Ca6       1.0  5.999999975691394e-10  0.008371534476712107  0.9993518763530855  1.0000
  Al  Al1       1.0  5.999999975691394e-10  0.00454712071406085  0.9995621254920407  1.0000
  Al  Al2       1.0  0.005000000597560104  0.0009094075174570494  0.9993518763530855  1.0000
  Al  Al3       1.0  0.005000000597560104  0.009547120840429345  0.9993518763530855  1.0000
  Al  Al4       1.0  5.999999975691394e-10  0.0059094074463747715  0.9995621254920407  1.0000
  Ge  Ge1       1.0  5.999999975691394e-10  0.0037673248205365184  0.9993518763530855  1.0000
  Ge  Ge2       1.0  0.005000000597560104  0.0016892034109813818  0.9995621254920407  1.0000
  Ge  Ge3       1.0  0.005000000597560104  0.008767324552003467  0.9995621254920407  1.0000
  Ge  Ge4       1.0  5.999999975691394e-10  0.006689203339899104  0.9993518763530855  1.0000
  Ca  Ca7       1.0  0.009999999580092898  0.00022888930513003774  0.9999823329543854  1.0000
  Ca  Ca8       1.0  6.900000164571361e-09  0.0020643940394356646  0.9997748510697436  1.0000
  Ca  Ca9       1.0  0.0050000171515900286  0.003286750962751016  0.999980678790641  1.0000
  Ca  Ca10      1.0  0.004999999790046449  0.005227992980305925  0.9997779902555347  1.0000
  Ca  Ca11      1.0  0.004999996963748658  0.007170086800497306  0.9999806661726103  1.0000
  Ca  Ca12      1.0  0.009999998772579243  0.008392393176414666  0.9997747462199168  1.0000
  Al  Al5       1.0  1.4100000905506067e-08  0.004547725703230566  0.0  1.0000
  Al  Al6       1.0  0.005000003020101069  0.0008981725684502755  0.9997719402102232  1.0000
  Al  Al7       1.0  0.0049999985787759675  0.009559025542459512  0.9997719050599947  1.0000
  Al  Al8       1.0  0.009999998772579243  0.0059077559681060075  0.9999997548496884  1.0000
  Ge  Ge5       1.0  1.310000103790834e-08  0.003796310594072448  0.9997834388413808  1.0000
  Ge  Ge6       1.0  0.005000004231371551  0.0015990032575965664  0.99998143827592  1.0000
  Ge  Ge7       1.0  0.0049999985787759675  0.00885742923793934  0.9999812904647027  1.0000
  Ge  Ge8       1.0  0.009999999580092898  0.006660636951805887  0.9997834778971902  1.0000
