data_image0
_chemical_formula_structural       Si4Pd4Si4Pd4Si4Pd4H
_chemical_formula_sum              "Si12 Pd12 H1"
_cell_length_a       5.65421724319458
_cell_length_b       7.122078811759255
_cell_length_c       104.92334747314453
_cell_angle_alpha    119.36380555154946
_cell_angle_beta     90.0
_cell_angle_gamma    90.0

_space_group_name_H-M_alt    "P 1"
_space_group_IT_number       1

loop_
  _space_group_symop_operation_xyz
  'x, y, z'

loop_
  _atom_site_type_symbol
  _atom_site_label
  _atom_site_symmetry_multiplicity
  _atom_site_fract_x
  _atom_site_fract_y
  _atom_site_fract_z
  _atom_site_occupancy
  Si  Si1       1.0  0.006789218412628429  0.0005931230701540852  0.9993483682780445  1.0000
  Si  Si2       1.0  0.0032430015144943565  0.009130393605743192  0.9994661051795658  1.0000
  Si  Si3       1.0  0.0017892183599202984  0.004130393305658305  0.9994661050105158  1.0000
  Si  Si4       1.0  0.008243001567202488  0.005593123182685918  0.999348368440852  1.0000
  Pd  Pd1       1.0  0.005058420098120613  0.006772510807857327  0.9995540469150929  1.0000
  Pd  Pd2       1.0  0.004973799829002173  0.002951005680486896  0.9995932728063529  1.0000
  Pd  Pd3       1.0  5.842005055976087e-05  0.007951005380402007  0.9995932726713875  1.0000
  Pd  Pd4       1.0  0.009973800211136122  0.0017725108078573265  0.99955404704007  1.0000
  Si  Si5       1.0  0.006789218412628429  0.0005931230701540852  0.9996812145481225  1.0000
  Si  Si6       1.0  0.0032430015144943565  0.009130393605743192  0.9997989514496438  1.0000
  Si  Si7       1.0  0.0017892183599202984  0.004130393305658305  0.9997989512805938  1.0000
  Si  Si8       1.0  0.008243001567202488  0.005593123182685918  0.99968121471093  1.0000
  Pd  Pd5       1.0  0.005058420098120613  0.006772510807857327  0.9998868931851709  1.0000
  Pd  Pd6       1.0  0.004973799829002173  0.002951005680486896  0.999926118792392  1.0000
  Pd  Pd7       1.0  5.842005055976087e-05  0.007951005380402007  0.9999261189414657  1.0000
  Pd  Pd8       1.0  0.009973800211136122  0.0017725108078573265  0.999886893026109  1.0000
  Si  Si9       1.0  0.006769050963955818  0.0005918412950655481  1.5422727631144515e-05  1.0000
  Si  Si10      1.0  0.003161725905721767  0.009408158779955673  0.00014673375219481616  1.0000
  Si  Si11      1.0  0.0018704094709701745  0.004408246404742974  0.0001467268523657373  1.0000
  Si  Si12      1.0  0.00826318285175952  0.005591928844831626  1.542750498857234e-05  1.0000
  Pd  Pd9       1.0  0.005168817608192716  0.006925662131303703  0.00019948570784025376  1.0000
  Pd  Pd10      1.0  0.004861564452282823  0.0029018700810085154  0.00023784992374163214  1.0000
  Pd  Pd11      1.0  0.00017048376039617813  0.007901928897646565  0.00023786112974143726  1.0000
  Pd  Pd12      1.0  0.009863346369248878  0.0019257296504035062  0.00019948325150274493  1.0000
  H   H1        1.0  2.620034981428e-05  0.004861160925202521  5.015075965690541e-05  1.0000
