data_image0
_chemical_formula_structural       HPt8V24
_chemical_formula_sum              "H1 Pt8 V24"
_cell_length_a       8.348587746854262
_cell_length_b       6.816593170166016
_cell_length_c       101.60724639892578
_cell_angle_alpha    90.0
_cell_angle_beta     84.94884744756772
_cell_angle_gamma    90.0

_space_group_name_H-M_alt    "P 1"
_space_group_IT_number       1

loop_
  _space_group_symop_operation_xyz
  'x, y, z'

loop_
  _atom_site_type_symbol
  _atom_site_label
  _atom_site_symmetry_multiplicity
  _atom_site_fract_x
  _atom_site_fract_y
  _atom_site_fract_z
  _atom_site_occupancy
  H   H1        1.0  0.009035374263829951  0.00875000008744052  0.9999467160740333  1.0000
  Pt  Pt1       1.0  0.00523437505375492  0.0006250000355227111  0.9996546779056288  1.0000
  Pt  Pt2       1.0  0.0021093750985506873  0.005624999978139871  0.9994602570812398  1.0000
  Pt  Pt3       1.0  0.008984375179183067  0.0006250000355227111  0.9992658366730902  1.0000
  Pt  Pt4       1.0  0.00835937478498032  0.005624999978139871  0.999849097851711  1.0000
  Pt  Pt5       1.0  0.003984375161264761  0.0006250000355227111  0.9992658367582795  1.0000
  Pt  Pt6       1.0  0.0033593749910408467  0.005624999978139871  0.9998490982285889  1.0000
  Pt  Pt7       1.0  0.0002343750078392592  0.0006250000355227111  0.9996546776977114  1.0000
  Pt  Pt8       1.0  0.00710937489249016  0.005624999978139871  0.9994602572909798  1.0000
  V   V1        1.0  0.007578124964163387  0.009374999781398701  0.9998004927177258  1.0000
  V   V2        1.0  0.004453125232937988  0.00437500004372026  0.9996060727716435  1.0000
  V   V3        1.0  0.0013281250537549203  0.009374999781398701  0.9994116519488748  1.0000
  V   V4        1.0  0.0007031249955204233  0.00437500004372026  0.9999949134183741  1.0000
  V   V5        1.0  0.006015624874571853  0.006875000459062727  0.999703283039614  1.0000
  V   V6        1.0  0.00289062491936762  0.0018750000382552273  0.999508862215225  1.0000
  V   V7        1.0  0.009765625  0.006875000459062727  0.9993144418070755  1.0000
  V   V8        1.0  0.009140624605797253  0.0018750000382552273  0.9998977029856962  1.0000
  V   V9        1.0  0.005859375  0.0031250001093006494  0.9998490980393399  1.0000
  V   V10       1.0  0.0027343750447957667  0.008125000393482337  0.9996546775082599  1.0000
  V   V11       1.0  0.00960937467747048  0.0031250001093006494  0.999460257103351  1.0000
  V   V12       1.0  0.00648437494624508  0.008125000393482337  0.9992658368639596  1.0000
  V   V13       1.0  0.007734375286692908  0.0031250001093006494  0.9996546777147592  1.0000
  V   V14       1.0  0.00460937510750984  0.008125000393482337  0.9994602571852996  1.0000
  V   V15       1.0  0.0014843750403161903  0.0031250001093006494  0.9992658366550298  1.0000
  V   V16       1.0  0.0008593749820816933  0.008125000393482337  0.99984909783122  1.0000
  V   V17       1.0  0.004140625035836613  0.009374999781398701  0.9998977033609538  1.0000
  V   V18       1.0  0.0010156249686429633  0.00437500004372026  0.999703282830684  1.0000
  V   V19       1.0  0.007890624713307093  0.009374999781398701  0.999508862131656  1.0000
  V   V20       1.0  0.004765624982081693  0.00437500004372026  0.9993144418922647  1.0000
  V   V21       1.0  0.00257812494624508  0.0018750000382552273  0.999800493096224  1.0000
  V   V22       1.0  0.009453125250856294  0.006875000459062727  0.9996060723931453  1.0000
  V   V23       1.0  0.006328125071673227  0.0018750000382552273  0.9994116521569946  1.0000
  V   V24       1.0  0.005703125125428147  0.006875000459062727  0.9999949136256837  1.0000
