data_image0
_chemical_formula_structural       HV3Os3V3Os3V3Os3V3Os3
_chemical_formula_sum              "H1 V12 Os12"
_cell_length_a       6.049863815307617
_cell_length_b       6.763953393483296
_cell_length_c       40.05470275878906
_cell_angle_alpha    108.43494882292201
_cell_angle_beta     90.0
_cell_angle_gamma    90.0

_space_group_name_H-M_alt    "P 1"
_space_group_IT_number       1

loop_
  _space_group_symop_operation_xyz
  'x, y, z'

loop_
  _atom_site_type_symbol
  _atom_site_label
  _atom_site_symmetry_multiplicity
  _atom_site_fract_x
  _atom_site_fract_y
  _atom_site_fract_z
  _atom_site_occupancy
  H   H1        1.0  0.0012500000369458594  0.00576805201529541  0.0005934197886111401  1.0000
  V   V1        1.0  0.0012499998830047786  0.008444046423715525  0.9999320168304945  1.0000
  V   V2        1.0  0.0012500000369458594  0.0049144824911873716  0.00026243689172206295  1.0000
  V   V3        1.0  0.0012499998060342382  0.0015559537098105544  0.9995398791883405  1.0000
  Os  Os1       1.0  0.0037499998029554165  0.007976518210560678  0.0003702592465389218  1.0000
  Os  Os2       1.0  0.003749999495073255  0.004935366550497584  0.9997217849537345  1.0000
  Os  Os3       1.0  0.00375000041871974  0.0016463874398561383  5.18988965358068e-05  1.0000
  V   V4        1.0  0.0012499998060342382  0.008222620707389678  0.9988278696080871  1.0000
  V   V5        1.0  0.0012499998060342382  0.004889287281168637  0.999183874402089  1.0000
  V   V6        1.0  0.0012499998060342382  0.0015559537098105544  0.9984718648063347  1.0000
  Os  Os4       1.0  0.0037499998029554165  0.008222620707389678  0.99936187679909  1.0000
  Os  Os5       1.0  0.0037499998029554165  0.004889287281168637  0.9986498672110861  1.0000
  Os  Os6       1.0  0.0037499998029554165  0.0015559537098105544  0.9990058719973376  1.0000
  V   V7        1.0  0.006249999876847136  0.008444046423715525  0.9999320168304945  1.0000
  V   V8        1.0  0.006249999876847136  0.0049144824911873716  0.00026243689172206295  1.0000
  V   V9        1.0  0.006249999876847136  0.0015559537098105544  0.9995398791883405  1.0000
  Os  Os7       1.0  0.008749999950738854  0.007976518210560678  0.0003702592465389218  1.0000
  Os  Os8       1.0  0.008749999950738854  0.004935366550497584  0.9997217849537345  1.0000
  Os  Os9       1.0  0.008750000566503179  0.0016463874398561383  5.18988965358068e-05  1.0000
  V   V10       1.0  0.006249999876847136  0.008222620707389678  0.9988278696080871  1.0000
  V   V11       1.0  0.006249999876847136  0.004889287281168637  0.999183874402089  1.0000
  V   V12       1.0  0.006249999876847136  0.0015559537098105544  0.9984718648063347  1.0000
  Os  Os10      1.0  0.008749999950738854  0.008222620707389678  0.99936187679909  1.0000
  Os  Os11      1.0  0.008749999950738854  0.004889287281168637  0.9986498672110861  1.0000
  Os  Os12      1.0  0.008749999950738854  0.0015559537098105544  0.9990058719973376  1.0000
