data_image0
_chemical_formula_structural       CONa20Si4As12
_chemical_formula_sum              "C1 O1 Na20 Si4 As12"
_cell_length_a       8.332425683591856
_cell_length_b       7.640585899353027
_cell_length_c       110.9238510131836
_cell_angle_alpha    90.0
_cell_angle_beta     89.53754903379183
_cell_angle_gamma    90.0

_space_group_name_H-M_alt    "P 1"
_space_group_IT_number       1

loop_
  _space_group_symop_operation_xyz
  'x, y, z'

loop_
  _atom_site_type_symbol
  _atom_site_label
  _atom_site_symmetry_multiplicity
  _atom_site_fract_x
  _atom_site_fract_y
  _atom_site_fract_z
  _atom_site_occupancy
  C   C1        1.0  0.003929286729315912  0.008700305122735586  0.0001191173127037018  1.0000
  O   O1        1.0  0.003929286729315912  0.008700305122735586  0.00022729985603488163  1.0000
  Na  Na1       1.0  0.003174586040100965  0.005059732789620475  0.9989513515098425  1.0000
  Na  Na2       1.0  0.0018254141119123872  5.9732699725484704e-05  0.9989677547321386  1.0000
  Na  Na3       1.0  0.006825414263925739  0.004940267405405945  0.9995826485993922  1.0000
  Na  Na4       1.0  0.00817458596856527  0.009940267502919155  0.9995662453772316  1.0000
  Na  Na5       1.0  0.008352700907427431  0.009673770725067666  0.9991641687410495  1.0000
  Na  Na6       1.0  0.006363995170424923  0.00483727834077138  0.9999678614766626  1.0000
  Na  Na7       1.0  0.001647299731922844  0.0003262291042842156  0.9993698313679819  1.0000
  Na  Na8       1.0  0.0031841293489267416  0.0054598665465407925  0.9997646505928225  1.0000
  Na  Na9       1.0  0.0067467630026427005  0.004820072622378298  0.9991605416465341  1.0000
  Na  Na10      1.0  0.008202556425353303  0.009797203921809695  0.9999775619553949  1.0000
  Na  Na11      1.0  0.003253237301384004  0.005179927572648122  0.9993734584627005  1.0000
  Na  Na12      1.0  0.0016227100073759025  0.00028345971882377845  0.9997711615079498  1.0000
  Na  Na13      1.0  0.001101770980053044  0.003628527013811615  0.9999993320004306  1.0000
  Na  Na14      1.0  0.004232466182644708  0.00837061685920715  0.999167041892244  1.0000
  Na  Na15      1.0  0.00920743353589953  0.006564206578693628  0.9997762679505111  1.0000
  Na  Na16      1.0  0.005767534121381997  0.0016293835796022957  0.9993669582169906  1.0000
  Na  Na17      1.0  0.005752525932547906  0.0015035938542416218  0.9989699809558752  1.0000
  Na  Na18      1.0  0.009247474747041198  0.006503593829863319  0.9989491252145875  1.0000
  Na  Na19      1.0  0.0042474743714787985  0.00849640597511026  0.9995640191533595  1.0000
  Na  Na20      1.0  0.0007525258364218155  0.0034964063651631012  0.9995848748944778  1.0000
  Si  Si1       1.0  0.005709147134131259  0.0014257265085215623  0.9997793722940701  1.0000
  Si  Si2       1.0  0.009296546445494321  0.006403742740336518  0.9993710953453664  1.0000
  Si  Si3       1.0  0.003946064979505882  0.008700305122735586  0.999962964727814  1.0000
  Si  Si4       1.0  0.000703453523208812  0.0035962574546899015  0.9991629047640715  1.0000
  As  As1       1.0  0.0033978800178570264  0.0023831102322093775  0.9991683480089758  1.0000
  As  As2       1.0  0.0014098493989771197  0.0074520663088269885  0.9999742273392527  1.0000
  As  As3       1.0  0.006602120509718725  0.007616889962817042  0.9993656521001233  1.0000
  As  As4       1.0  0.008402518365502078  0.0026581272268116703  0.999795134323869  1.0000
  As  As5       1.0  0.00917261264210852  0.002652926847305858  0.9989913182538359  1.0000
  As  As6       1.0  0.005827388037480584  0.007652926944819068  0.998927787647953  1.0000
  As  As7       1.0  0.0008273879413544934  0.0073470733477205615  0.9995426815865556  1.0000
  As  As8       1.0  0.00417261226654612  0.002347073250207352  0.9996062124612816  1.0000
  As  As9       1.0  0.004213156015945936  0.0017987582970090123  0.9999677904502512  1.0000
  As  As10      1.0  0.000889809430034914  0.006833983700939933  0.9991855785317376  1.0000
  As  As11      1.0  0.005873655983783487  0.00812754177933993  0.9998000297463319  1.0000
  As  As12      1.0  0.009110190594555482  0.003166016250303461  0.9993484215776665  1.0000
