data_image0
_chemical_formula_structural       COZn6Se6Zn6Se6
_chemical_formula_sum              "C1 O1 Zn12 Se12"
_cell_length_a       6.74531888961792
_cell_length_b       10.85807248677152
_cell_length_c       98.7277603149414
_cell_angle_alpha    79.106605044791
_cell_angle_beta     90.0
_cell_angle_gamma    90.0

_space_group_name_H-M_alt    "P 1"
_space_group_IT_number       1

loop_
  _space_group_symop_operation_xyz
  'x, y, z'

loop_
  _atom_site_type_symbol
  _atom_site_label
  _atom_site_symmetry_multiplicity
  _atom_site_fract_x
  _atom_site_fract_y
  _atom_site_fract_z
  _atom_site_occupancy
  C   C1        1.0  0.003944937064270439  0.005402774472438393  3.800285923931912e-05  1.0000
  O   O1        1.0  0.003944937064270439  0.005402774472438393  0.00015954886287366092  1.0000
  Zn  Zn1       1.0  0.009989683714621255  0.005492318408349898  0.9992512063019615  1.0000
  Zn  Zn2       1.0  0.009989683714621255  0.002158985037748808  0.999528329633406  1.0000
  Zn  Zn3       1.0  0.009989683714621255  0.008825652128336199  0.9993897679290737  1.0000
  Zn  Zn4       1.0  0.004989683582074569  0.0077145407718790275  0.9992050190671841  1.0000
  Zn  Zn5       1.0  0.004989683582074569  0.004381207401277939  0.9994821423986285  1.0000
  Zn  Zn6       1.0  0.004989683582074569  0.001047874030676849  0.9993435807642546  1.0000
  Se  Se1       1.0  0.006251356836252671  0.005492318408349898  0.9992512063019615  1.0000
  Se  Se2       1.0  0.006251356836252671  0.002158985037748808  0.999528329633406  1.0000
  Se  Se3       1.0  0.006251356836252671  0.008825652128336199  0.9993897679290737  1.0000
  Se  Se4       1.0  0.0012513572559838466  0.0077145407718790275  0.9992050190671841  1.0000
  Se  Se5       1.0  0.0012513572559838466  0.004381207401277939  0.9994821423986285  1.0000
  Se  Se6       1.0  0.0012513572559838466  0.001047874030676849  0.9993435807642546  1.0000
  Zn  Zn7       1.0  1.0316149207732664e-05  0.005484874407029009  0.9996746354417619  1.0000
  Zn  Zn8       1.0  0.009530490076706711  0.002495585895185957  0.9998868026771178  1.0000
  Zn  Zn9       1.0  0.009513637870009377  0.009083374732219993  0.9997523725847881  1.0000
  Zn  Zn10      1.0  0.004989683582074569  0.0077145407718790275  0.9996207040330025  1.0000
  Zn  Zn11      1.0  0.004553223357815472  0.003995974568065963  0.9998538770677986  1.0000
  Zn  Zn12      1.0  0.005110889795453245  0.0009166254669295773  0.9997670890920659  1.0000
  Se  Se7       1.0  0.006236571805594799  0.005484071519812478  0.9996686510797511  1.0000
  Se  Se8       1.0  0.006137017645816731  0.0020370111664855307  0.9999554024905395  1.0000
  Se  Se9       1.0  0.00612601792762866  0.008693238626946752  0.9998164461903739  1.0000
  Se  Se10      1.0  0.0012513572559838466  0.0077145407718790275  0.9996207040330025  1.0000
  Se  Se11      1.0  0.0011555694931587883  0.004440083700845581  0.9999077161711232  1.0000
  Se  Se12      1.0  0.0012739184970156493  0.0010344437504846672  0.9997640039983153  1.0000
