data_image0
_chemical_formula_structural       HCu12Ge6Se18Cu12Ge6Se18
_chemical_formula_sum              "H1 Cu24 Ge12 Se36"
_cell_length_a       9.971025877305799
_cell_length_b       12.033589363098145
_cell_length_c       104.96644592285156
_cell_angle_alpha    90.0
_cell_angle_beta     88.67765259310559
_cell_angle_gamma    90.0

_space_group_name_H-M_alt    "P 1"
_space_group_IT_number       1

loop_
  _space_group_symop_operation_xyz
  'x, y, z'

loop_
  _atom_site_type_symbol
  _atom_site_label
  _atom_site_symmetry_multiplicity
  _atom_site_fract_x
  _atom_site_fract_y
  _atom_site_fract_z
  _atom_site_occupancy
  H   H1        1.0  0.0005541630066152718  0.009740731973779322  6.570114238264682e-05  1.0000
  Cu  Cu1       1.0  0.0018431001657937733  0.0069319622700917795  0.9994348546194992  1.0000
  Cu  Cu2       1.0  0.008240806510565702  0.007027768093742553  0.9998213749666277  1.0000
  Cu  Cu3       1.0  0.005176433357116903  0.0069319622700917795  0.9996569345261327  1.0000
  Cu  Cu4       1.0  0.0019671167421455383  0.008562758947777773  0.9997848259863749  1.0000
  Cu  Cu5       1.0  0.008509767109006626  0.00858657326226471  0.999545894557858  1.0000
  Cu  Cu6       1.0  0.004614848775815841  0.008598072090974155  0.9999162300401815  1.0000
  Cu  Cu7       1.0  0.0019666309177654847  0.0019551000841903474  0.9997848775895656  1.0000
  Cu  Cu8       1.0  0.008509767109006626  0.00193196249917678  0.999545894557858  1.0000
  Cu  Cu9       1.0  0.004614197023724446  0.001920454847599086  0.9999162184085021  1.0000
  Cu  Cu10      1.0  0.0018431001657937733  0.0035865733365625482  0.9994348546194992  1.0000
  Cu  Cu11      1.0  0.008241346149338623  0.0034939499369676954  0.9998213118885719  1.0000
  Cu  Cu12      1.0  0.005176433357116903  0.0035865733365625482  0.9996569345261327  1.0000
  Ge  Ge1       1.0  0.001940842425394596  0.00025926799371537375  0.9994218303424818  1.0000
  Ge  Ge2       1.0  0.00865784264293629  0.0002601687969544999  0.9999021105816972  1.0000
  Ge  Ge3       1.0  0.005274175616717726  0.00025926799371537375  0.9996439108169599  1.0000
  Ge  Ge4       1.0  0.001960662191545467  0.005259290092678529  0.9997602002166323  1.0000
  Ge  Ge5       1.0  0.008607508994896387  0.005259267803327164  0.9995328708495045  1.0000
  Ge  Ge6       1.0  0.005017370344265739  0.005259853517949129  3.1710816795004984e-06  1.0000
  Se  Se1       1.0  0.002530679189240011  0.009221294738096356  0.9999944523273806  1.0000
  Se  Se2       1.0  0.009445837081206828  0.008655395968642903  0.9997608461087492  1.0000
  Se  Se3       1.0  0.00606175747797628  0.00855144710196033  0.9995389665983746  1.0000
  Se  Se4       1.0  0.009395090856154942  0.00696708843039616  0.9994279266309192  1.0000
  Se  Se5       1.0  0.005910355915598559  0.006954625587240204  0.9998787498385482  1.0000
  Se  Se6       1.0  0.0027284240997976195  0.00696708843039616  0.9996500071336749  1.0000
  Se  Se7       1.0  0.0026886135946852046  0.00025926799371537375  0.9996553117624916  1.0000
  Se  Se8       1.0  0.009355280164186996  0.00025926799371537375  0.9994332312601454  1.0000
  Se  Se9       1.0  0.006004593139152827  0.0002595013934076559  0.9998653312110768  1.0000
  Se  Se10      1.0  0.009395090856154942  0.0035514471762581675  0.9994279266309192  1.0000
  Se  Se11      1.0  0.0059104706448944635  0.0035636422376234263  0.9998787308481657  1.0000
  Se  Se12      1.0  0.0027284240997976195  0.0035514471762581675  0.9996500071336749  1.0000
  Se  Se13      1.0  0.002530387694611979  0.0012966313167130192  0.9999944143529429  1.0000
  Se  Se14      1.0  0.009445211488889743  0.00186746779664234  0.9997609513957407  1.0000
  Se  Se15      1.0  0.00606175747797628  0.0019670886594811607  0.9995389665983746  1.0000
  Se  Se16      1.0  0.002505061295968733  0.005258220822961685  0.999980128385757  1.0000
  Se  Se17      1.0  0.009305664788807448  0.005260310449652099  0.9997637484403772  1.0000
  Se  Se18      1.0  0.006021946786008335  0.005259267803327164  0.9995442717954457  1.0000
  Cu  Cu13      1.0  0.0018431001657937733  0.0069319622700917795  0.9987686140203734  1.0000
  Cu  Cu14      1.0  0.008509767109006626  0.0069319622700917795  0.9992127741163339  1.0000
  Cu  Cu15      1.0  0.005176433357116903  0.0069319622700917795  0.9989906942109292  1.0000
  Cu  Cu16      1.0  0.0018431001657937733  0.00858657326226471  0.9991017341779752  1.0000
  Cu  Cu17      1.0  0.008509767109006626  0.00858657326226471  0.9988796539587321  1.0000
  Cu  Cu18      1.0  0.005176433357116903  0.00858657326226471  0.9993238146524533  1.0000
  Cu  Cu19      1.0  0.0018431001657937733  0.00193196249917678  0.9991017341779752  1.0000
  Cu  Cu20      1.0  0.008509767109006626  0.00193196249917678  0.9988796539587321  1.0000
  Cu  Cu21      1.0  0.005176433357116903  0.00193196249917678  0.9993238146524533  1.0000
  Cu  Cu22      1.0  0.0018431001657937733  0.0035865733365625482  0.9987686140203734  1.0000
  Cu  Cu23      1.0  0.008509767109006626  0.0035865733365625482  0.9992127741163339  1.0000
  Cu  Cu24      1.0  0.005176433357116903  0.0035865733365625482  0.9989906942109292  1.0000
  Ge  Ge7       1.0  0.001940842425394596  0.00025926799371537375  0.9987555900272783  1.0000
  Ge  Ge8       1.0  0.008607508994896387  0.00025926799371537375  0.9991997504079804  1.0000
  Ge  Ge9       1.0  0.005274175616717726  0.00025926799371537375  0.9989776702178341  1.0000
  Ge  Ge10      1.0  0.001940842425394596  0.005259267803327164  0.99908871018488  1.0000
  Ge  Ge11      1.0  0.008607508994896387  0.005259267803327164  0.9988666302503786  1.0000
  Ge  Ge12      1.0  0.005274175616717726  0.005259267803327164  0.9993107903754359  1.0000
  Se  Se19      1.0  0.0027284240997976195  0.00855144710196033  0.9993168866921508  1.0000
  Se  Se20      1.0  0.009395090856154942  0.00855144710196033  0.9990948064733174  1.0000
  Se  Se21      1.0  0.00606175747797628  0.00855144710196033  0.9988727265670936  1.0000
  Se  Se22      1.0  0.009395090856154942  0.00696708843039616  0.9987616863157157  1.0000
  Se  Se23      1.0  0.00606175747797628  0.00696708843039616  0.9992058467246953  1.0000
  Se  Se24      1.0  0.0027284240997976195  0.00696708843039616  0.9989837665345491  1.0000
  Se  Se25      1.0  0.0026886135946852046  0.00025926799371537375  0.9989890711633658  1.0000
  Se  Se26      1.0  0.009355280164186996  0.00025926799371537375  0.998766990944942  1.0000
  Se  Se27      1.0  0.006021946786008335  0.00025926799371537375  0.9992111513539216  1.0000
  Se  Se28      1.0  0.009395090856154942  0.0035514471762581675  0.9987616863157157  1.0000
  Se  Se29      1.0  0.00606175747797628  0.0035514471762581675  0.9992058467246953  1.0000
  Se  Se30      1.0  0.0027284240997976195  0.0035514471762581675  0.9989837665345491  1.0000
  Se  Se31      1.0  0.0027284240997976195  0.0019670886594811607  0.9993168866921508  1.0000
  Se  Se32      1.0  0.009395090856154942  0.0019670886594811607  0.9990948064733174  1.0000
  Se  Se33      1.0  0.00606175747797628  0.0019670886594811607  0.9988727265670936  1.0000
  Se  Se34      1.0  0.0026886135946852046  0.005259267803327164  0.9993221913209674  1.0000
  Se  Se35      1.0  0.009355280164186996  0.005259267803327164  0.999100111386466  1.0000
  Se  Se36      1.0  0.006021946786008335  0.005259267803327164  0.9988780311963199  1.0000
