data_image0
_chemical_formula_structural       COPt4W2Pt4W2
_chemical_formula_sum              "C1 O1 Pt8 W4"
_cell_length_a       5.6199568445872625
_cell_length_b       4.845183764595786
_cell_length_c       41.2436637878418
_cell_angle_alpha    91.37187584836752
_cell_angle_beta     92.80049616482765
_cell_angle_gamma    73.14345366593939

_space_group_name_H-M_alt    "P 1"
_space_group_IT_number       1

loop_
  _space_group_symop_operation_xyz
  'x, y, z'

loop_
  _atom_site_type_symbol
  _atom_site_label
  _atom_site_symmetry_multiplicity
  _atom_site_fract_x
  _atom_site_fract_y
  _atom_site_fract_z
  _atom_site_occupancy
  C   C1        1.0  0.002331279953148462  0.008652638235365197  0.0003013117434811261  1.0000
  O   O1        1.0  0.002331279953148462  0.008652638235365197  0.000592265754726639  1.0000
  Pt  Pt1       1.0  0.0004228281141746457  0.005881528438157362  1.9357227940849885e-05  1.0000
  Pt  Pt2       1.0  0.003957293069889502  0.0013473611821517286  0.9997423070291642  1.0000
  Pt  Pt3       1.0  0.0010033416281102696  0.0023302731493717345  0.9991739055027962  1.0000
  Pt  Pt4       1.0  0.004577172170364382  0.0076274752557976425  0.9988898000864554  1.0000
  W   W1        1.0  0.002514562813379028  0.006806872297599906  0.9994869231305181  1.0000
  W   W2        1.0  0.003102756841273996  0.0031038741423278188  0.9985960837177923  1.0000
  Pt  Pt5       1.0  0.005422827835437139  0.005881528438157362  1.93570454372538e-05  1.0000
  Pt  Pt6       1.0  0.008957292791151993  0.0013473611821517286  0.9997423072079564  1.0000
  Pt  Pt7       1.0  0.006003341349372762  0.0023302731493717345  0.9991739056815884  1.0000
  Pt  Pt8       1.0  0.009577171559796508  0.0076274752557976425  0.9988898002630384  1.0000
  W   W3        1.0  0.007514562866471887  0.006806872297599906  0.9994869233115194  1.0000
  W   W4        1.0  0.008102756894366854  0.0031038741423278188  0.9985960838987936  1.0000
