data_image0
_chemical_formula_structural       COAl3CuAl3CuAl3CuAl3CuAl3CuAl3Cu
_chemical_formula_sum              "C1 O1 Al18 Cu6"
_cell_length_a       5.634096622467041
_cell_length_b       8.266853649410496
_cell_length_c       39.01247024536133
_cell_angle_alpha    70.0765559187193
_cell_angle_beta     90.0
_cell_angle_gamma    90.0

_space_group_name_H-M_alt    "P 1"
_space_group_IT_number       1

loop_
  _space_group_symop_operation_xyz
  'x, y, z'

loop_
  _atom_site_type_symbol
  _atom_site_label
  _atom_site_symmetry_multiplicity
  _atom_site_fract_x
  _atom_site_fract_y
  _atom_site_fract_z
  _atom_site_occupancy
  C   C1        1.0  0.0025000006678165916  0.0011708201180384921  0.9998137353355797  1.0000
  O   O1        1.0  0.0025000006678165916  0.0011708201180384921  0.00012132914958079532  1.0000
  Al  Al1       1.0  5.000000108476046e-10  0.0062122467485708046  0.9995514203765626  1.0000
  Al  Al2       1.0  0.002499998353600681  0.009030052256497965  0.999108368624405  1.0000
  Al  Al3       1.0  0.0024999988495040906  0.0034842154917625796  0.9994267437662885  1.0000
  Cu  Cu1       1.0  1.5999999716549555e-09  0.001153241508089008  0.9992988742675948  1.0000
  Al  Al4       1.0  0.010000000026448182  0.006105660915337221  0.9988729577904963  1.0000
  Al  Al5       1.0  0.0025000000066120456  0.008727714113506188  0.9983483707032503  1.0000
  Al  Al6       1.0  0.0025000000066120456  0.003212181239288979  0.998746641370838  1.0000
  Cu  Cu2       1.0  0.0  0.0009699474990501076  0.9985475058817883  1.0000
  Al  Al7       1.0  0.0  0.0059699474367388315  0.9981864612903526  1.0000
  Al  Al8       1.0  0.0025000000066120456  0.008727714113506188  0.9976262815572151  1.0000
  Al  Al9       1.0  0.0025000000066120456  0.003212181239288979  0.9980245522248029  1.0000
  Cu  Cu3       1.0  0.0  0.0009699474990501076  0.9978254167357532  1.0000
  Al  Al10      1.0  0.005000000343826364  0.0062122467485708046  0.9995514203765626  1.0000
  Al  Al11      1.0  0.007499998201523635  0.009030052256497965  0.999108368624405  1.0000
  Al  Al12      1.0  0.007499998862728181  0.0034842154917625796  0.9994267437662885  1.0000
  Cu  Cu4       1.0  0.005000001666235456  0.001153241508089008  0.9992988742675948  1.0000
  Al  Al13      1.0  0.005000000013224091  0.006105660915337221  0.9988729577904963  1.0000
  Al  Al14      1.0  0.007500000185137273  0.008727714113506188  0.9983483707032503  1.0000
  Al  Al15      1.0  0.007500000185137273  0.003212181239288979  0.998746641370838  1.0000
  Cu  Cu5       1.0  0.005000000013224091  0.0009699474990501076  0.9985475058817883  1.0000
  Al  Al16      1.0  0.005000000013224091  0.0059699474367388315  0.9981864612903526  1.0000
  Al  Al17      1.0  0.007500000185137273  0.008727714113506188  0.9976262815572151  1.0000
  Al  Al18      1.0  0.007500000185137273  0.003212181239288979  0.9980245522248029  1.0000
  Cu  Cu6       1.0  0.005000000013224091  0.0009699474990501076  0.9978254167357532  1.0000
