data_image0
_chemical_formula_structural       COAu2Na6
_chemical_formula_sum              "C1 O1 Au2 Na6"
_cell_length_a       5.369505979039432
_cell_length_b       5.369505882263184
_cell_length_c       99.439697265625
_cell_angle_alpha    90.0
_cell_angle_beta     90.0
_cell_angle_gamma    93.47455243925823

_space_group_name_H-M_alt    "P 1"
_space_group_IT_number       1

loop_
  _space_group_symop_operation_xyz
  'x, y, z'

loop_
  _atom_site_type_symbol
  _atom_site_label
  _atom_site_symmetry_multiplicity
  _atom_site_fract_x
  _atom_site_fract_y
  _atom_site_fract_z
  _atom_site_occupancy
  C   C1        1.0  0.005000064682662437  0.0012499782430712958  0.0001741804791940315  1.0000
  O   O1        1.0  0.005000064682662437  0.0012499782430712958  0.00029485627612446446  1.0000
  Au  Au1       1.0  0.002504955653911385  0.0037512637441998093  0.9998107348963384  1.0000
  Au  Au2       1.0  0.007499945673792219  0.008749624671514885  0.999440954202778  1.0000
  Na  Na1       1.0  0.007500054103787278  0.003750018583900464  0.9999999988011902  1.0000
  Na  Na2       1.0  0.0024999456320883746  0.008749624363721386  0.9996259893058488  1.0000
  Na  Na3       1.0  0.0025000752615375963  0.008749937485970274  0.0  1.0000
  Na  Na4       1.0  0.007499945673792219  0.003749624532757598  0.9996259893058488  1.0000
  Na  Na5       1.0  0.0024999456320883746  0.003749624571857313  0.999440954202778  1.0000
  Na  Na6       1.0  0.007500053408723208  0.008750021802572158  0.999799770281657  1.0000
