data_image0
_chemical_formula_structural       CORe2Ir6Re2Ir6Re2Ir6Re2Ir6
_chemical_formula_sum              "C1 O1 Re8 Ir24"
_cell_length_a       5.5508267536939675
_cell_length_b       8.814868927001953
_cell_length_c       108.85578918457031
_cell_angle_alpha    90.0
_cell_angle_beta     119.9999987833004
_cell_angle_gamma    90.0

_space_group_name_H-M_alt    "P 1"
_space_group_IT_number       1

loop_
  _space_group_symop_operation_xyz
  'x, y, z'

loop_
  _atom_site_type_symbol
  _atom_site_label
  _atom_site_symmetry_multiplicity
  _atom_site_fract_x
  _atom_site_fract_y
  _atom_site_fract_z
  _atom_site_occupancy
  C   C1        1.0  0.007714349130606559  0.001250019144431065  0.0001578958331710474  1.0000
  O   O1        1.0  0.007714349130606559  0.001250019144431065  0.00026813310032919335  1.0000
  Re  Re1       1.0  0.006716038043160735  0.003749998901202632  0.999291160581623  1.0000
  Re  Re2       1.0  0.0033827041725310496  0.0012499990702483808  0.9994611354542882  1.0000
  Ir  Ir1       1.0  0.003397892739620203  0.0012499990702483808  0.9992065603541843  1.0000
  Ir  Ir2       1.0  0.008375109726247673  0.0012499990702483808  0.9994603608894113  1.0000
  Ir  Ir3       1.0  0.008375109726247673  0.0012499990702483808  0.9992065601781001  1.0000
  Ir  Ir4       1.0  0.006700849088598251  0.003749998901202632  0.9995457356718479  1.0000
  Ir  Ir5       1.0  0.0017236319082341146  0.003749998901202632  0.9992919348579034  1.0000
  Ir  Ir6       1.0  0.0017236319082341146  0.003749998901202632  0.9995457358429926  1.0000
  Re  Re3       1.0  0.006773716548218446  0.0037500001690457486  0.9998068771817622  1.0000
  Re  Re4       1.0  0.0034178394792100534  0.0012500175596271688  0.9999746959458005  1.0000
  Ir  Ir7       1.0  0.003397892739620203  0.0012499990702483808  0.9997164850570812  1.0000
  Ir  Ir8       1.0  0.00840779155179684  0.001250020623581368  0.9999736367924071  1.0000
  Ir  Ir9       1.0  0.008375109726247673  0.0012499990702483808  0.9997164848809971  1.0000
  Ir  Ir10      1.0  0.006535907891302931  0.003749949032706701  4.056793774262723e-05  1.0000
  Ir  Ir11      1.0  0.0016254469411875745  0.003750000591660121  0.9997917665391026  1.0000
  Ir  Ir12      1.0  0.0015922085101988932  0.0037499929846014197  4.059532955024691e-05  1.0000
  Re  Re5       1.0  0.006716038043160735  0.008749998985725507  0.999291160581623  1.0000
  Re  Re6       1.0  0.0033827041725310496  0.0062499987321568825  0.9994611354542882  1.0000
  Ir  Ir13      1.0  0.003397892739620203  0.0062499987321568825  0.9992065603541843  1.0000
  Ir  Ir14      1.0  0.008375109726247673  0.0062499987321568825  0.9994603608894113  1.0000
  Ir  Ir15      1.0  0.008375109726247673  0.0062499987321568825  0.9992065601781001  1.0000
  Ir  Ir16      1.0  0.006700849088598251  0.008749998985725507  0.9995457356718479  1.0000
  Ir  Ir17      1.0  0.0017236319082341146  0.008749998985725507  0.9992919348579034  1.0000
  Ir  Ir18      1.0  0.0017236319082341146  0.008749998985725507  0.9995457358429926  1.0000
  Re  Re7       1.0  0.006773716548218446  0.008749999830954251  0.9998068771817622  1.0000
  Re  Re8       1.0  0.0034178394792100534  0.006250017327189264  0.9999746959458005  1.0000
  Ir  Ir19      1.0  0.003397892739620203  0.0062499987321568825  0.9997164850570812  1.0000
  Ir  Ir20      1.0  0.00840779155179684  0.00625002028548987  0.9999736367924071  1.0000
  Ir  Ir21      1.0  0.008375109726247673  0.0062499987321568825  0.9997164848809971  1.0000
  Ir  Ir22      1.0  0.006535907891302931  0.008749949117229575  4.056793774262723e-05  1.0000
  Ir  Ir23      1.0  0.0016254469411875745  0.008750000676182996  0.9997917665391026  1.0000
  Ir  Ir24      1.0  0.0015922085101988932  0.008749993069124294  4.059532955024691e-05  1.0000
