data_image0
_chemical_formula_structural       COAu24
_chemical_formula_sum              "C1 O1 Au24"
_cell_length_a       8.392173767089844
_cell_length_b       5.139135700344858
_cell_length_c       103.8299331665039
_cell_angle_alpha    92.90252610849687
_cell_angle_beta     90.0
_cell_angle_gamma    65.90515649961078

_space_group_name_H-M_alt    "P 1"
_space_group_IT_number       1

loop_
  _space_group_symop_operation_xyz
  'x, y, z'

loop_
  _atom_site_type_symbol
  _atom_site_label
  _atom_site_symmetry_multiplicity
  _atom_site_fract_x
  _atom_site_fract_y
  _atom_site_fract_z
  _atom_site_occupancy
  C   C1        1.0  0.005010233957004453  0.005514619522357059  0.00019361590502004004  1.0000
  O   O1        1.0  0.005010233957004453  0.005514619522357059  0.00030918974729008726  1.0000
  Au  Au1       1.0  0.0021527778047001054  0.0019444445222069062  0.9997291791944684  1.0000
  Au  Au2       1.0  0.00409722226420821  0.004166666719686527  0.9999101907971308  1.0000
  Au  Au3       1.0  0.0002083330605429392  0.009722222611034531  0.9995481678192772  1.0000
  Au  Au4       1.0  0.0006249999942267474  0.00805555576410034  0.9998196848225052  1.0000
  Au  Au5       1.0  0.002569444485367329  0.00027777779953801207  6.961980076931664e-07  1.0000
  Au  Au6       1.0  0.0036805555524746627  0.005833333566620719  0.9996386732198426  1.0000
  Au  Au7       1.0  0.0013194444806452477  0.005277777818426337  0.9991861448999857  1.0000
  Au  Au8       1.0  0.0032638888407411147  0.0075000004135549105  0.9993671562166146  1.0000
  Au  Au9       1.0  0.004375000038893163  0.0030555556209467165  0.9990051332973232  1.0000
  Au  Au10      1.0  0.004791666700920592  0.001388888972837001  0.9992766505880796  1.0000
  Au  Au11      1.0  0.0017361110929665577  0.0036111113691410976  0.9994576619042103  1.0000
  Au  Au12      1.0  0.0028472221290075667  0.009166667260489102  0.9990956389263567  1.0000
  Au  Au13      1.0  0.0071527776005058654  0.0019444445222069062  0.9997291791944684  1.0000
  Au  Au14      1.0  0.009097221838063711  0.004166666719686527  0.9999101907971308  1.0000
  Au  Au15      1.0  0.005208333078298959  0.009722222611034531  0.9995481678192772  1.0000
  Au  Au16      1.0  0.005624999790032508  0.00805555576410034  0.9998196848225052  1.0000
  Au  Au17      1.0  0.00756944428117309  0.00027777779953801207  6.961980076931664e-07  1.0000
  Au  Au18      1.0  0.008680555126330163  0.005833333566620719  0.9996386732198426  1.0000
  Au  Au19      1.0  0.006319444276451008  0.005277777818426337  0.9991861448999857  1.0000
  Au  Au20      1.0  0.008263888414596616  0.0075000004135549105  0.9993671562166146  1.0000
  Au  Au21      1.0  0.009374999612748664  0.0030555556209467165  0.9990051332973232  1.0000
  Au  Au22      1.0  0.009791666274776093  0.001388888972837001  0.9992766505880796  1.0000
  Au  Au23      1.0  0.006736110888772318  0.0036111113691410976  0.9994576619042103  1.0000
  Au  Au24      1.0  0.007847221702863068  0.009166667260489102  0.9990956389263567  1.0000
