data_image0
_chemical_formula_structural       COGa2Sb2Ga2Sb2Ga2Sb2Ga2Sb2
_chemical_formula_sum              "C1 O1 Ga8 Sb8"
_cell_length_a       8.873205149708909
_cell_length_b       7.293602466583252
_cell_length_c       105.4928207397461
_cell_angle_alpha    90.0
_cell_angle_beta     120.00000013133024
_cell_angle_gamma    90.0

_space_group_name_H-M_alt    "P 1"
_space_group_IT_number       1

loop_
  _space_group_symop_operation_xyz
  'x, y, z'

loop_
  _atom_site_type_symbol
  _atom_site_label
  _atom_site_symmetry_multiplicity
  _atom_site_fract_x
  _atom_site_fract_y
  _atom_site_fract_z
  _atom_site_occupancy
  C   C1        1.0  0.002583749148097419  0.005579638793490471  0.00018826708809676704  1.0000
  O   O1        1.0  0.002583749148097419  0.005579638793490471  0.0003020191352460179  1.0000
  Ga  Ga1       1.0  0.001802562606423831  0.0050191767803408425  0.9996351603718352  1.0000
  Ga  Ga2       1.0  0.0034692293765112487  1.917695016899418e-05  0.9994949736498661  1.0000
  Sb  Sb1       1.0  0.001802562606423831  0.008765633301915108  0.9996351603718352  1.0000
  Sb  Sb2       1.0  0.0034692293765112487  0.0037656338228916927  0.9994949736498661  1.0000
  Ga  Ga3       1.0  0.0014567606608359496  0.005579638793490471  0.9999986808622389  1.0000
  Ga  Ga4       1.0  0.003543239528230111  0.009980822422871438  0.9999263518530915  1.0000
  Sb  Sb3       1.0  0.001973344645585567  0.009033873930236896  8.299091738230223e-05  1.0000
  Sb  Sb4       1.0  0.0034997725137770404  0.003764203691090092  0.99992128346547  1.0000
  Ga  Ga5       1.0  0.0068025629166860845  0.0050191767803408425  0.9996351602153801  1.0000
  Ga  Ga6       1.0  0.008469229686773503  1.917695016899418e-05  0.9994949737759167  1.0000
  Sb  Sb5       1.0  0.0068025629166860845  0.008765633301915108  0.9996351602153801  1.0000
  Sb  Sb6       1.0  0.008469229686773503  0.0037656338228916927  0.9994949737759167  1.0000
  Ga  Ga7       1.0  0.006456760607509625  0.005579638793490471  0.9999986809729985  1.0000
  Ga  Ga8       1.0  0.008543239838492363  0.009980822422871438  0.9999263516966365  1.0000
  Sb  Sb7       1.0  0.006973344834651628  0.009033873930236896  8.299103833593528e-05  1.0000
  Sb  Sb8       1.0  0.008499773066431678  0.003764203691090092  0.9999212836017147  1.0000
