data_image0
_chemical_formula_structural       COIn10Pt10
_chemical_formula_sum              "C1 O1 In10 Pt10"
_cell_length_a       4.5098042488098145
_cell_length_b       11.283913368433076
_cell_length_c       101.1614990234375
_cell_angle_alpha    87.9459252244657
_cell_angle_beta     90.0
_cell_angle_gamma    90.0

_space_group_name_H-M_alt    "P 1"
_space_group_IT_number       1

loop_
  _space_group_symop_operation_xyz
  'x, y, z'

loop_
  _atom_site_type_symbol
  _atom_site_label
  _atom_site_symmetry_multiplicity
  _atom_site_fract_x
  _atom_site_fract_y
  _atom_site_fract_z
  _atom_site_occupancy
  C   C1        1.0  0.0025000000826042573  0.004279803033767863  0.00010444946772906788  1.0000
  O   O1        1.0  0.0025000000826042573  0.004279803033767863  0.00022307191237982236  1.0000
  In  In1       1.0  0.007499999008748914  0.0005443720913390344  0.9995380182186803  1.0000
  In  In2       1.0  0.0024999994630723285  0.009055303516327795  0.9993866512915163  1.0000
  In  In3       1.0  0.0024999994630723285  0.0020334408216166385  0.9996893852954701  1.0000
  In  In4       1.0  0.0024999994630723285  0.006823460526200061  0.9996271062250023  1.0000
  In  In5       1.0  0.0024999994630723285  0.004265283976921355  0.9994489303613238  1.0000
  In  In6       1.0  0.0025000000826042573  0.0055191232978683636  0.9999435367660701  1.0000
  In  In7       1.0  0.007499999834791486  0.00407276128313667  0.9997775979451766  1.0000
  In  In8       1.0  0.007499999008748914  0.007033440775367083  0.9993043389434784  1.0000
  In  In9       1.0  0.007499999834791486  0.0017466415475729164  0.9999930168904182  1.0000
  In  In10      1.0  0.007499999834791486  0.009122864866812274  0.999866224455628  1.0000
  Pt  Pt1       1.0  0.002500000702136186  0.0005595585870814748  0.9999112460923336  1.0000
  Pt  Pt2       1.0  0.007499999008748914  0.002955232616023696  0.9995345446718306  1.0000
  Pt  Pt3       1.0  0.007499999008748914  0.008133511556743755  0.9995414922104178  1.0000
  Pt  Pt4       1.0  0.0024999994630723285  0.009455627774867609  0.999665100674767  1.0000
  Pt  Pt5       1.0  0.0024999994630723285  0.0016331162327228575  0.9994109359135402  1.0000
  Pt  Pt6       1.0  0.007499999008748914  0.0055443722515607086  0.999538018293163  1.0000
  Pt  Pt7       1.0  0.002500000702136186  0.007827438606384506  0.9998836354484381  1.0000
  Pt  Pt8       1.0  0.0025000002891149  0.0031505884254287605  0.9999227094070451  1.0000
  Pt  Pt9       1.0  0.007499999008748914  0.004455627986294148  0.9992800541714982  1.0000
  Pt  Pt10      1.0  0.007499999834791486  0.0065004569350357285  0.9997962791716865  1.0000
