data_image0
_chemical_formula_structural       HSi16
_chemical_formula_sum              "H1 Si16"
_cell_length_a       7.775730133056641
_cell_length_b       5.498271465301514
_cell_length_c       101.10292053222656
_cell_angle_alpha    90.0
_cell_angle_beta     90.0
_cell_angle_gamma    90.0

_space_group_name_H-M_alt    "P 1"
_space_group_IT_number       1

loop_
  _space_group_symop_operation_xyz
  'x, y, z'

loop_
  _atom_site_type_symbol
  _atom_site_label
  _atom_site_symmetry_multiplicity
  _atom_site_fract_x
  _atom_site_fract_y
  _atom_site_fract_z
  _atom_site_occupancy
  H   H1        1.0  0.004999999846690552  0.007662791782744359  0.00012186115325644997  1.0000
  Si  Si1       1.0  9.999999905831252e-11  0.007554264352172212  0.9996220770844474  1.0000
  Si  Si2       1.0  0.009999999693381103  0.007662791782744359  0.0  1.0000
  Si  Si3       1.0  0.0025000004024373014  0.009945736569280073  0.0  1.0000
  Si  Si4       1.0  0.0025000001628912886  5.426410169471824e-05  0.9996220770844474  1.0000
  Si  Si5       1.0  0.0025000001628912886  0.0025542642098891387  0.9994298045988148  1.0000
  Si  Si6       1.0  0.002499999923345276  0.002574030716481837  0.9998184227312564  1.0000
  Si  Si7       1.0  9.999999905831252e-11  0.005054264365722981  0.9994298045988148  1.0000
  Si  Si8       1.0  3.999999962332501e-10  0.005034497859130282  0.9998184227312564  1.0000
  Si  Si9       1.0  0.005000000325782577  0.007554264352172212  0.9996220770844474  1.0000
  Si  Si10      1.0  0.004999999846690552  0.007662791782744359  0.0  1.0000
  Si  Si11      1.0  0.007500000728219878  0.009945736569280073  0.0  1.0000
  Si  Si12      1.0  0.0075000002491278535  5.426410169471824e-05  0.9996220770844474  1.0000
  Si  Si13      1.0  0.0075000002491278535  0.0025542642098891387  0.9994298045988148  1.0000
  Si  Si14      1.0  0.0075000002491278535  0.002574030716481837  0.9998184227312564  1.0000
  Si  Si15      1.0  0.005000000325782577  0.005054264365722981  0.9994298045988148  1.0000
  Si  Si16      1.0  0.005000000325782577  0.005034497859130282  0.9998184227312564  1.0000
