data_image0
_chemical_formula_structural       HAl8Mn24Al8Mn24
_chemical_formula_sum              "H1 Al16 Mn48"
_cell_length_a       8.062705993652344
_cell_length_b       9.874758289266989
_cell_length_c       107.3852310180664
_cell_angle_alpha    95.05115251012454
_cell_angle_beta     90.0
_cell_angle_gamma    90.0

_space_group_name_H-M_alt    "P 1"
_space_group_IT_number       1

loop_
  _space_group_symop_operation_xyz
  'x, y, z'

loop_
  _atom_site_type_symbol
  _atom_site_label
  _atom_site_symmetry_multiplicity
  _atom_site_fract_x
  _atom_site_fract_y
  _atom_site_fract_z
  _atom_site_occupancy
  H   H1        1.0  0.0012499957492347145  0.00014264430163268236  9.65309996542507e-05  1.0000
  Al  Al1       1.0  3.50000030348386e-10  0.005169855923708455  0.9995917281698444  1.0000
  Al  Al2       1.0  3.915000053448789e-08  0.0020713120716291476  0.9998016963937361  1.0000
  Al  Al3       1.0  0.010000000184815882  0.009546857195399014  5.140989663895138e-05  1.0000
  Al  Al4       1.0  3.50000030348386e-10  0.008294855772218614  0.9993741398265651  1.0000
  Al  Al5       1.0  0.0025000005082436755  0.00485735586311252  0.9992653454786571  1.0000
  Al  Al6       1.0  0.0025000005082436755  0.0017323556358777583  0.9994829340963974  1.0000
  Al  Al7       1.0  0.0025000005082436755  0.00860735583281455  0.9997005222402251  1.0000
  Al  Al8       1.0  0.002500134499758113  0.005571040030717777  0.9999353761561709  1.0000
  Mn  Mn1       1.0  0.0025000005082436755  0.006107355726771663  0.999700522081176  1.0000
  Mn  Mn2       1.0  0.0025000554909685654  0.002878230851102405  0.9999317740203103  1.0000
  Mn  Mn3       1.0  0.0025000005082436755  0.0023573557570696307  0.9992653455971353  1.0000
  Mn  Mn4       1.0  0.0025000005082436755  0.009232355954006424  0.9994829340184902  1.0000
  Mn  Mn5       1.0  3.50000030348386e-10  0.007669855651026742  0.9995917277707728  1.0000
  Mn  Mn6       1.0  0.009999842167236787  0.004593416249701989  0.9998149836788441  1.0000
  Mn  Mn7       1.0  0.009999825533807408  0.0020177217830053703  1.6336098526228e-05  1.0000
  Mn  Mn8       1.0  3.50000030348386e-10  0.0007948557381334008  0.9993741396292448  1.0000
  Mn  Mn9       1.0  0.0025000005082436755  0.006732355469238933  0.9994829338563749  1.0000
  Mn  Mn10      1.0  0.0025000005082436755  0.003607355620728774  0.999700521922127  1.0000
  Mn  Mn11      1.0  0.002499991729489281  0.00042836181050974465  0.9999109305903199  1.0000
  Mn  Mn12      1.0  0.0025000005082436755  0.009857356075198297  0.9992653455192281  1.0000
  Mn  Mn13      1.0  3.50000030348386e-10  0.005794855666175726  0.999374139667516  1.0000
  Mn  Mn14      1.0  3.50000030348386e-10  0.0026698556283032662  0.9995917280092622  1.0000
  Mn  Mn15      1.0  0.009999986323624734  0.009594574222895898  0.9998151859744099  1.0000
  Mn  Mn16      1.0  0.009999869889619085  0.007066694305281163  0.9999909334280863  1.0000
  Mn  Mn17      1.0  0.0025000005082436755  0.004232355741920647  0.9994829337003921  1.0000
  Mn  Mn18      1.0  0.0025000005082436755  0.0011073557040481867  0.9997005223196654  1.0000
  Mn  Mn19      1.0  0.002499987802151789  0.008138345558119113  0.9999331204361986  1.0000
  Mn  Mn20      1.0  0.0025000005082436755  0.007357355590430806  0.9992653456346399  1.0000
  Mn  Mn21      1.0  3.50000030348386e-10  0.003294855560132838  0.9993741397859941  1.0000
  Mn  Mn22      1.0  3.50000030348386e-10  0.0001698556997875349  0.9995917278516504  1.0000
  Mn  Mn23      1.0  1.0250000743207109e-08  0.007018056977001564  0.9997925117775149  1.0000
  Mn  Mn24      1.0  0.009999820913410359  0.0043337978839995996  5.722630317195407e-07  1.0000
  Al  Al9       1.0  0.005000000554447646  0.005169855923708455  0.9995917281698444  1.0000
  Al  Al10      1.0  0.005000039365782863  0.0020713120716291476  0.9998016963937361  1.0000
  Al  Al11      1.0  0.005000000092407941  0.009546857195399014  5.140989663895138e-05  1.0000
  Al  Al12      1.0  0.005000000554447646  0.008294855772218614  0.9993741398265651  1.0000
  Al  Al13      1.0  0.007500000831671469  0.00485735586311252  0.9992653454786571  1.0000
  Al  Al14      1.0  0.007500000831671469  0.0017323556358777583  0.9994829340963974  1.0000
  Al  Al15      1.0  0.007500000831671469  0.00860735583281455  0.9997005222402251  1.0000
  Al  Al16      1.0  0.007500134823185906  0.005571040030717777  0.9999353761561709  1.0000
  Mn  Mn25      1.0  0.007500000831671469  0.006107355726771663  0.999700522081176  1.0000
  Mn  Mn26      1.0  0.007500055814396359  0.002878230851102405  0.9999317740203103  1.0000
  Mn  Mn27      1.0  0.007500000831671469  0.0023573557570696307  0.9992653455971353  1.0000
  Mn  Mn28      1.0  0.007500000831671469  0.009232355954006424  0.9994829340184902  1.0000
  Mn  Mn29      1.0  0.005000000554447646  0.007669855651026742  0.9995917277707728  1.0000
  Mn  Mn30      1.0  0.004999841612789141  0.004593416249701989  0.9998149836788441  1.0000
  Mn  Mn31      1.0  0.0049998249793597625  0.0020177217830053703  1.6336098526228e-05  1.0000
  Mn  Mn32      1.0  0.005000000554447646  0.0007948557381334008  0.9993741396292448  1.0000
  Mn  Mn33      1.0  0.007500000831671469  0.006732355469238933  0.9994829338563749  1.0000
  Mn  Mn34      1.0  0.007500000831671469  0.003607355620728774  0.999700521922127  1.0000
  Mn  Mn35      1.0  0.007499992052917075  0.00042836181050974465  0.9999109305903199  1.0000
  Mn  Mn36      1.0  0.007500000831671469  0.009857356075198297  0.9992653455192281  1.0000
  Mn  Mn37      1.0  0.005000000554447646  0.005794855666175726  0.999374139667516  1.0000
  Mn  Mn38      1.0  0.005000000554447646  0.0026698556283032662  0.9995917280092622  1.0000
  Mn  Mn39      1.0  0.004999985769177088  0.009594574222895898  0.9998151859744099  1.0000
  Mn  Mn40      1.0  0.004999869797211143  0.007066694305281163  0.9999909334280863  1.0000
  Mn  Mn41      1.0  0.007500000831671469  0.004232355741920647  0.9994829337003921  1.0000
  Mn  Mn42      1.0  0.007500000831671469  0.0011073557040481867  0.9997005223196654  1.0000
  Mn  Mn43      1.0  0.00749998789455973  0.008138345558119113  0.9999331204361986  1.0000
  Mn  Mn44      1.0  0.007500000831671469  0.007357355590430806  0.9992653456346399  1.0000
  Mn  Mn45      1.0  0.005000000554447646  0.003294855560132838  0.9993741397859941  1.0000
  Mn  Mn46      1.0  0.005000000554447646  0.0001698556997875349  0.9995917278516504  1.0000
  Mn  Mn47      1.0  0.005000010719321155  0.007018056977001564  0.9997925117775149  1.0000
  Mn  Mn48      1.0  0.004999820821002417  0.0043337978839995996  5.722630317195407e-07  1.0000
