data_image0
_chemical_formula_structural       COAl6Sb6Al6Sb6
_chemical_formula_sum              "C1 O1 Al12 Sb12"
_cell_length_a       7.276486873626709
_cell_length_b       11.732488763227538
_cell_length_c       101.04124450683594
_cell_angle_alpha    79.10660523814384
_cell_angle_beta     90.0
_cell_angle_gamma    90.0

_space_group_name_H-M_alt    "P 1"
_space_group_IT_number       1

loop_
  _space_group_symop_operation_xyz
  'x, y, z'

loop_
  _atom_site_type_symbol
  _atom_site_label
  _atom_site_symmetry_multiplicity
  _atom_site_fract_x
  _atom_site_fract_y
  _atom_site_fract_z
  _atom_site_occupancy
  C   C1        1.0  0.009683686512276392  0.008798668211952215  0.9999024543523928  1.0000
  O   O1        1.0  0.009683686512276392  0.008798668211952215  2.1217975874126632e-05  1.0000
  Al  Al1       1.0  0.005242459234985762  0.007689477303014066  0.9991526521817115  1.0000
  Al  Al2       1.0  0.005242459234985762  0.004356144172310714  0.9994452364130226  1.0000
  Al  Al3       1.0  0.005242459234985762  0.0010228108799345038  0.9992989443827306  1.0000
  Al  Al4       1.0  0.00024245933929817456  0.005467255431442307  0.999201416242805  1.0000
  Al  Al5       1.0  0.00024245933929817456  0.0021339219773932406  0.9994940004812115  1.0000
  Al  Al6       1.0  0.00024245933929817456  0.008800588238799945  0.9993477082837401  1.0000
  Sb  Sb1       1.0  0.0014898769050666718  0.007689477303014066  0.9991526521817115  1.0000
  Sb  Sb2       1.0  0.0014898769050666718  0.004356144172310714  0.9994452364130226  1.0000
  Sb  Sb3       1.0  0.0014898769050666718  0.0010228108799345038  0.9992989443827306  1.0000
  Sb  Sb4       1.0  0.006489876976741458  0.005467255431442307  0.999201416242805  1.0000
  Sb  Sb5       1.0  0.006489876976741458  0.0021339219773932406  0.9994940004812115  1.0000
  Sb  Sb6       1.0  0.006489876976741458  0.008800588238799945  0.9993477082837401  1.0000
  Al  Al7       1.0  0.005242459234985762  0.007689477303014066  0.9995915287418143  1.0000
  Al  Al8       1.0  0.0047673798086737005  0.003953254443049476  0.9998325969940137  1.0000
  Al  Al9       1.0  0.005331794688647677  0.0009172201545542845  0.9997411951160154  1.0000
  Al  Al10      1.0  0.00026355884450193605  0.005449885946395758  0.9996482200092457  1.0000
  Al  Al11      1.0  0.009757540212094457  0.0025343958291548442  0.9998636360332166  1.0000
  Al  Al12      1.0  0.009683686512276392  0.009082779803410773  0.9997278889499606  1.0000
  Sb  Sb7       1.0  0.0014898769050666718  0.007689477303014066  0.9995915287418143  1.0000
  Sb  Sb8       1.0  0.001374255363477504  0.004476721729009927  0.9999017635751475  1.0000
  Sb  Sb9       1.0  0.001544472485736963  0.0010255332891706895  0.9997422279566185  1.0000
  Sb  Sb10      1.0  0.006501896838406335  0.005466681169454841  0.9996409631474914  1.0000
  Sb  Sb11      1.0  0.006354418798086409  0.001978533182833925  0.9999490668442086  1.0000
  Sb  Sb12      1.0  0.006274964225680655  0.00864116845490125  0.9998069234120314  1.0000
