data_image0
_chemical_formula_structural       COSb12
_chemical_formula_sum              "C1 O1 Sb12"
_cell_length_a       4.616842947985738
_cell_length_b       9.974283660575244
_cell_length_c       100.33616638183594
_cell_angle_alpha    84.10313998574803
_cell_angle_beta     86.72595394785381
_cell_angle_gamma    79.9968708054537

_space_group_name_H-M_alt    "P 1"
_space_group_IT_number       1

loop_
  _space_group_symop_operation_xyz
  'x, y, z'

loop_
  _atom_site_type_symbol
  _atom_site_label
  _atom_site_symmetry_multiplicity
  _atom_site_fract_x
  _atom_site_fract_y
  _atom_site_fract_z
  _atom_site_occupancy
  C   C1        1.0  0.0013701242397990974  0.0005597566363761572  8.91355948643796e-05  1.0000
  O   O1        1.0  0.0013701242397990974  0.0005597566363761572  0.00020873378912893004  1.0000
  Sb  Sb1       1.0  0.007229661438699949  0.009317600107735637  0.99988583986692  1.0000
  Sb  Sb2       1.0  0.0005237889603806344  0.0029715520167858697  0.9997642409066498  1.0000
  Sb  Sb3       1.0  0.003773867629008457  0.006688264679699815  0.9996005076834165  1.0000
  Sb  Sb4       1.0  0.0025445260965835893  0.009502212252371144  0.9996902175867386  1.0000
  Sb  Sb5       1.0  0.0058162344358164576  0.0021363378924507325  0.9999450664397296  1.0000
  Sb  Sb6       1.0  0.009163355094775802  0.005866379832438755  0.9997902793339297  1.0000
  Sb  Sb7       1.0  0.007107200546938252  0.0004977882981105888  0.9994565335039868  1.0000
  Sb  Sb8       1.0  0.000440534270272014  0.004307312324144515  0.9993125596034212  1.0000
  Sb  Sb9       1.0  0.003773867678432709  0.00811683601684175  0.9991685856952074  1.0000
  Sb  Sb10      1.0  0.0028927991794779973  0.0010036499156093597  0.9992357253608817  1.0000
  Sb  Sb11      1.0  0.006226132266870073  0.0033846024616427683  0.9995236731426199  1.0000
  Sb  Sb12      1.0  0.009559465536447254  0.007194126535296222  0.9993796992308794  1.0000
