data_image0
_chemical_formula_structural       Cu3Au9CO
_chemical_formula_sum              "Cu3 Au9 C1 O1"
_cell_length_a       5.781246185302734
_cell_length_b       5.7812463375404075
_cell_length_c       98.32220458984375
_cell_angle_alpha    90.0
_cell_angle_beta     90.0
_cell_angle_gamma    60.00000087108927

_space_group_name_H-M_alt    "P 1"
_space_group_IT_number       1

loop_
  _space_group_symop_operation_xyz
  'x, y, z'

loop_
  _atom_site_type_symbol
  _atom_site_label
  _atom_site_symmetry_multiplicity
  _atom_site_fract_x
  _atom_site_fract_y
  _atom_site_fract_z
  _atom_site_occupancy
  Cu  Cu1       1.0  0.00750536579635812  0.007495729065315761  0.9995131948897045  1.0000
  Cu  Cu2       1.0  0.0008387013958710198  0.0008290655150207755  0.9999791291426093  1.0000
  Cu  Cu3       1.0  0.0041720822273103595  0.00416244477050282  0.9997532730994294  1.0000
  Au  Au1       1.0  0.009161298645852165  0.004183907183825176  0.9997548380500032  1.0000
  Au  Au2       1.0  0.0025053659767831095  0.007495729065315761  0.9995131948897045  1.0000
  Au  Au3       1.0  0.005813099606988504  0.0008802553611553393  0.0  1.0000
  Au  Au4       1.0  0.004193542731409506  0.009151663071923872  0.9997548380500032  1.0000
  Au  Au5       1.0  0.0075053661678347915  0.0024957291471623716  0.9995131948897045  1.0000
  Au  Au6       1.0  0.0008898930045274704  0.005803461488378282  0.0  1.0000
  Au  Au7       1.0  0.009161293271561967  0.009151657119443145  0.9997548386562207  1.0000
  Au  Au8       1.0  0.002505366026072299  0.0024957291471623716  0.9995131948897045  1.0000
  Au  Au9       1.0  0.005813120087181057  0.005803482694090872  0.0  1.0000
  C   C1        1.0  0.004154974073005224  0.009170934228278492  0.00019645600814151125  1.0000
  O   O1        1.0  0.004154974073005224  0.009170934228278492  0.0003185033601522679  1.0000
