data_image0
_chemical_formula_structural       COSn8
_chemical_formula_sum              "C1 O1 Sn8"
_cell_length_a       4.75570821762085
_cell_length_b       4.75570821762085
_cell_length_c       103.62793731689453
_cell_angle_alpha    90.0
_cell_angle_beta     90.0
_cell_angle_gamma    90.0

_space_group_name_H-M_alt    "P 1"
_space_group_IT_number       1

loop_
  _space_group_symop_operation_xyz
  'x, y, z'

loop_
  _atom_site_type_symbol
  _atom_site_label
  _atom_site_symmetry_multiplicity
  _atom_site_fract_x
  _atom_site_fract_y
  _atom_site_fract_z
  _atom_site_occupancy
  C   C1        1.0  0.0025000064546415917  0.009999999185336499  0.00016714135370961386  1.0000
  O   O1        1.0  0.0025000064546415917  0.009999999185336499  0.0002829404772799206  1.0000
  Sn  Sn1       1.0  0.0024999937255243752  0.00500000194265912  0.9996710630090245  1.0000
  Sn  Sn2       1.0  0.007499994297355487  0.004999995676016798  0.9998344783512081  1.0000
  Sn  Sn3       1.0  0.007500006830640131  0.009999999185336499  0.0  1.0000
  Sn  Sn4       1.0  0.0024999937255243752  1.6500000234079018e-09  0.9995088101042126  1.0000
  Sn  Sn5       1.0  0.0024999937255243752  0.00500000194265912  0.9990220502394181  1.0000
  Sn  Sn6       1.0  0.007499994297355487  0.00500000194265912  0.9991843034318197  1.0000
  Sn  Sn7       1.0  0.007499994297355487  1.6500000234079018e-09  0.9993465566242213  1.0000
  Sn  Sn8       1.0  0.0024999937255243752  1.6500000234079018e-09  0.9988597967594269  1.0000
