data_image0
_chemical_formula_structural       HSi4Se8
_chemical_formula_sum              "H1 Si4 Se8"
_cell_length_a       5.974043369293213
_cell_length_b       6.6566243171691895
_cell_length_c       102.95650482177734
_cell_angle_alpha    90.0
_cell_angle_beta     90.0
_cell_angle_gamma    90.0

_space_group_name_H-M_alt    "P 1"
_space_group_IT_number       1

loop_
  _space_group_symop_operation_xyz
  'x, y, z'

loop_
  _atom_site_type_symbol
  _atom_site_label
  _atom_site_symmetry_multiplicity
  _atom_site_fract_x
  _atom_site_fract_y
  _atom_site_fract_z
  _atom_site_occupancy
  H   H1        1.0  0.007502427644437548  0.0006413414629467233  0.00011967242824320484  1.0000
  Si  Si1       1.0  0.007502427644437548  0.0006413414629467233  5.210373097912776e-09  1.0000
  Si  Si2       1.0  0.007500022498744261  0.005637212299353729  0.9993371082563618  1.0000
  Si  Si3       1.0  0.0025000225174516425  0.005637212299353729  0.9993371082563618  1.0000
  Si  Si4       1.0  0.0024974051988721374  0.000641343281765526  0.0  1.0000
  Se  Se1       1.0  0.005000022586045375  0.0075638467631302195  0.9994563618285011  1.0000
  Se  Se2       1.0  0.00999997782551702  0.009358658276822278  0.9998460114756036  1.0000
  Se  Se3       1.0  0.005001150017575959  0.0019266665029692434  0.9998460456324939  1.0000
  Se  Se4       1.0  2.24000004230745e-08  0.00371057783557724  0.9994563618285011  1.0000
  Se  Se5       1.0  2.24000004230745e-08  0.002563846718359295  0.9989228595694685  1.0000
  Se  Se6       1.0  0.005000022586045375  0.00371057783557724  0.9992178549736879  1.0000
  Se  Se7       1.0  2.24000004230745e-08  0.0075638467631302195  0.9992178549736879  1.0000
  Se  Se8       1.0  0.005000022586045375  0.008710577320711609  0.9989228595694685  1.0000
