data_image0
_chemical_formula_structural       HPt12Ti12
_chemical_formula_sum              "H1 Pt12 Ti12"
_cell_length_a       7.299961137944867
_cell_length_b       6.740757444279434
_cell_length_c       98.59602355957031
_cell_angle_alpha    91.45994673607575
_cell_angle_beta     95.55604618929497
_cell_angle_gamma    87.13960821797961

_space_group_name_H-M_alt    "P 1"
_space_group_IT_number       1

loop_
  _space_group_symop_operation_xyz
  'x, y, z'

loop_
  _atom_site_type_symbol
  _atom_site_label
  _atom_site_symmetry_multiplicity
  _atom_site_fract_x
  _atom_site_fract_y
  _atom_site_fract_z
  _atom_site_occupancy
  H   H1        1.0  0.0020258761481448044  0.009527921692979365  0.00013617589122501435  1.0000
  Pt  Pt1       1.0  0.0038739903295223308  0.0035204531399781014  0.9993809360760568  1.0000
  Pt  Pt2       1.0  0.009783081225547195  0.00852045280995627  0.9995127688242464  1.0000
  Pt  Pt3       1.0  0.003380667070349245  0.007917501875028992  0.9993968336413718  1.0000
  Pt  Pt4       1.0  0.009289757453065166  0.0029175021905642304  0.9995286663885177  1.0000
  Pt  Pt5       1.0  0.005692172183169131  0.003520452919032924  0.999644601490519  1.0000
  Pt  Pt6       1.0  0.0016727706696945488  0.008537790827238375  0.9997761170020525  1.0000
  Pt  Pt7       1.0  0.0051988489239960444  0.007917502206914864  0.999660499359064  1.0000
  Pt  Pt8       1.0  0.0012860194582936565  0.002853481711052323  0.9997916426509811  1.0000
  Pt  Pt9       1.0  0.007714191071262787  0.0034873110100197297  0.9999038496107783  1.0000
  Pt  Pt10      1.0  0.00337804714150487  0.008384524483028033  3.882004760886376e-05  1.0000
  Pt  Pt11      1.0  0.0074669840509244524  0.007976912886169038  0.9999213289792536  1.0000
  Pt  Pt12      1.0  0.003198548907238356  0.002982834946749752  4.6613938545025805e-05  1.0000
  Ti  Ti1       1.0  0.0008747923290610589  0.0009658775269345514  0.99931645865521  1.0000
  Ti  Ti2       1.0  0.00678388328924954  0.005965877331822196  0.9994482914040946  1.0000
  Ti  Ti3       1.0  0.006379865006646899  0.00047207776502219864  0.9994613110637524  1.0000
  Ti  Ti4       1.0  0.00047077423894927153  0.005472077400172801  0.999329478313761  1.0000
  Ti  Ti5       1.0  0.002692973990217005  0.0009658775231958772  0.9995801240686708  1.0000
  Ti  Ti6       1.0  0.008602064629587397  0.005965877690094361  0.9997119568158862  1.0000
  Ti  Ti7       1.0  0.008198046860293698  0.0004720777513886642  0.9997249767808427  1.0000
  Ti  Ti8       1.0  0.002288956220923307  0.005472077725462097  0.9995931440323615  1.0000
  Ti  Ti9       1.0  0.004630742198246123  0.000789151540500018  0.9998598116389971  1.0000
  Ti  Ti10      1.0  0.0006754561157524642  0.005831837681316361  0.9999642091490927  1.0000
  Ti  Ti11      1.0  0.0002169186486921151  0.000564426138660324  0.9999818781751435  1.0000
  Ti  Ti12      1.0  0.0044397548265659665  0.005523190074510805  0.9998682398928472  1.0000
