data_image0
_chemical_formula_structural       COBi12
_chemical_formula_sum              "C1 O1 Bi12"
_cell_length_a       4.8566099999601
_cell_length_b       10.52053864000409
_cell_length_c       102.0184326171875
_cell_angle_alpha    84.12603244643101
_cell_angle_beta     86.65470249522515
_cell_angle_gamma    79.77037179398987

_space_group_name_H-M_alt    "P 1"
_space_group_IT_number       1

loop_
  _space_group_symop_operation_xyz
  'x, y, z'

loop_
  _atom_site_type_symbol
  _atom_site_label
  _atom_site_symmetry_multiplicity
  _atom_site_fract_x
  _atom_site_fract_y
  _atom_site_fract_z
  _atom_site_occupancy
  C   C1        1.0  0.009626294733932604  0.0041082195250062405  0.00012871860329654613  1.0000
  O   O1        1.0  0.009626294733932604  0.0041082195250062405  0.0002463446441094234  1.0000
  Bi  Bi1       1.0  0.000373704743246034  0.0028446677579177654  0.9997356357574683  1.0000
  Bi  Bi2       1.0  0.003707037974209348  0.006654191599107446  0.9995861832143017  1.0000
  Bi  Bi3       1.0  0.007040371071070728  0.00903514409020199  0.9998850876631931  1.0000
  Bi  Bi4       1.0  0.0028437630413040158  0.009536284906650684  0.9996557639807948  1.0000
  Bi  Bi5       1.0  0.00617709652559184  0.0019172372242713216  0.9999546681967393  1.0000
  Bi  Bi6       1.0  0.009510429276327042  0.005726761065461002  0.9998052156549068  1.0000
  Bi  Bi7       1.0  0.00037370468525672315  0.004273239108012903  0.9992872790580707  1.0000
  Bi  Bi8       1.0  0.003707037628083169  0.008082762949202585  0.9991378270999582  1.0000
  Bi  Bi9       1.0  0.007040371129223377  0.00046371522164772547  0.9994367313163327  1.0000
  Bi  Bi10      1.0  0.0028437632072859926  0.0009648562639739014  0.9992074073391242  1.0000
  Bi  Bi11      1.0  0.0061770965636481516  0.0033458085743664594  0.999506311497075  1.0000
  Bi  Bi12      1.0  0.009510429314383353  0.00715533241555614  0.9993568595394962  1.0000
