data_image0
_chemical_formula_structural       COCa8Al8Au8
_chemical_formula_sum              "C1 O1 Ca8 Al8 Au8"
_cell_length_a       4.598198413848877
_cell_length_b       10.808200836471528
_cell_length_c       102.42459869384766
_cell_angle_alpha    86.44126003419966
_cell_angle_beta     90.0
_cell_angle_gamma    90.0

_space_group_name_H-M_alt    "P 1"
_space_group_IT_number       1

loop_
  _space_group_symop_operation_xyz
  'x, y, z'

loop_
  _atom_site_type_symbol
  _atom_site_label
  _atom_site_symmetry_multiplicity
  _atom_site_fract_x
  _atom_site_fract_y
  _atom_site_fract_z
  _atom_site_occupancy
  C   C1        1.0  0.007500000680536934  0.007452575107860536  5.6508386337370876e-05  1.0000
  O   O1        1.0  0.007500000680536934  0.007452575107860536  0.00017366739762057637  1.0000
  Ca  Ca1       1.0  0.007500000680536934  0.005992405255253875  0.9990703291912348  1.0000
  Ca  Ca2       1.0  0.007500000680536934  0.0009924051620124837  0.9995979467853076  1.0000
  Ca  Ca3       1.0  0.007500000680536934  0.004164187803997324  0.9994050270295348  1.0000
  Ca  Ca4       1.0  0.007500000680536934  0.00915007399968315  0.999940066714372  1.0000
  Ca  Ca5       1.0  0.0024999998217641365  0.004061297310377898  0.9999463371432614  1.0000
  Ca  Ca6       1.0  0.002500000631927153  0.009021708231348893  0.9994200618439825  1.0000
  Ca  Ca7       1.0  0.002500000631927153  0.00584992550302943  0.9996129816003207  1.0000
  Ca  Ca8       1.0  0.002500000631927153  0.0008499256687919037  0.9990853641454378  1.0000
  Al  Al1       1.0  0.002500000631927153  0.006391699425383282  0.9992908443795485  1.0000
  Al  Al2       1.0  0.002499992935378494  0.0013603513174823448  0.9998256095193867  1.0000
  Al  Al3       1.0  0.00750000149069995  0.003735154464876302  0.9997235274594702  1.0000
  Al  Al4       1.0  0.007500000680536934  0.008622414061219484  0.9991995469466372  1.0000
  Al  Al5       1.0  0.007500000680536934  0.0029396503426288214  0.999127499251044  1.0000
  Al  Al6       1.0  0.007500000680536934  0.007929951000170979  0.9996576994403269  1.0000
  Al  Al7       1.0  0.0025000000243048906  0.007102229905300562  0.9998836826589095  1.0000
  Al  Al8       1.0  0.002500000631927153  0.0020744633028296493  0.9993628919227975  1.0000
  Au  Au1       1.0  0.007500007161841068  0.002020134306999261  0.9999143198300259  1.0000
  Au  Au2       1.0  0.007500000680536934  0.007027218242252969  0.9994144808544115  1.0000
  Au  Au3       1.0  0.002500000631927153  0.007986894553672828  0.9990759101853296  1.0000
  Au  Au4       1.0  0.002500000631927153  0.002986895064773786  0.9996035274844756  1.0000
  Au  Au5       1.0  0.002500000631927153  0.004111300596342652  0.9991945613027311  1.0000
  Au  Au6       1.0  0.002500000429386399  0.00913077786648403  0.9997273788113127  1.0000
  Au  Au7       1.0  0.007499999870373917  0.005954404208342299  0.999834086766234  1.0000
  Au  Au8       1.0  0.007500000680536934  0.0009028130491158185  0.9992958298711104  1.0000
