data_image0
_chemical_formula_structural       HPt6W2Pt6W2Pt6W2Pt6W2
_chemical_formula_sum              "H1 Pt24 W8"
_cell_length_a       7.869143009185791
_cell_length_b       7.869143009185791
_cell_length_c       102.33505249023438
_cell_angle_alpha    90.0
_cell_angle_beta     90.0
_cell_angle_gamma    90.0

_space_group_name_H-M_alt    "P 1"
_space_group_IT_number       1

loop_
  _space_group_symop_operation_xyz
  'x, y, z'

loop_
  _atom_site_type_symbol
  _atom_site_label
  _atom_site_symmetry_multiplicity
  _atom_site_fract_x
  _atom_site_fract_y
  _atom_site_fract_z
  _atom_site_occupancy
  H   H1        1.0  0.003749999895850938  0.003749999895850938  0.00012039392362483095  1.0000
  Pt  Pt1       1.0  0.003749999895850938  0.003749999895850938  0.0  1.0000
  Pt  Pt2       1.0  0.0012500000047340482  0.0012500000047340482  0.0  1.0000
  Pt  Pt3       1.0  0.0012500000047340482  0.003749999895850938  0.999407551627084  1.0000
  Pt  Pt4       1.0  0.0012500000047340482  0.0012500000047340482  0.9996050346122046  1.0000
  Pt  Pt5       1.0  0.003749999895850938  0.003749999895850938  0.9996050346122046  1.0000
  Pt  Pt6       1.0  0.003749999895850938  0.0012500000047340482  0.9998025170148793  1.0000
  W   W1        1.0  0.003749999895850938  0.0012500000047340482  0.999407551627084  1.0000
  W   W2        1.0  0.0012500000047340482  0.003749999895850938  0.9998025170148793  1.0000
  Pt  Pt7       1.0  0.003749999895850938  0.008750000151489546  0.0  1.0000
  Pt  Pt8       1.0  0.0012500000047340482  0.006249999905319035  0.0  1.0000
  Pt  Pt9       1.0  0.0012500000047340482  0.008750000151489546  0.999407551627084  1.0000
  Pt  Pt10      1.0  0.0012500000047340482  0.006249999905319035  0.9996050346122046  1.0000
  Pt  Pt11      1.0  0.003749999895850938  0.008750000151489546  0.9996050346122046  1.0000
  Pt  Pt12      1.0  0.003749999895850938  0.006249999905319035  0.9998025170148793  1.0000
  W   W3        1.0  0.003749999895850938  0.006249999905319035  0.999407551627084  1.0000
  W   W4        1.0  0.0012500000047340482  0.008750000151489546  0.9998025170148793  1.0000
  Pt  Pt13      1.0  0.008750000151489546  0.003749999895850938  0.0  1.0000
  Pt  Pt14      1.0  0.006249999905319035  0.0012500000047340482  0.0  1.0000
  Pt  Pt15      1.0  0.006249999905319035  0.003749999895850938  0.999407551627084  1.0000
  Pt  Pt16      1.0  0.006249999905319035  0.0012500000047340482  0.9996050346122046  1.0000
  Pt  Pt17      1.0  0.008750000151489546  0.003749999895850938  0.9996050346122046  1.0000
  Pt  Pt18      1.0  0.008750000151489546  0.0012500000047340482  0.9998025170148793  1.0000
  W   W5        1.0  0.008750000151489546  0.0012500000047340482  0.999407551627084  1.0000
  W   W6        1.0  0.006249999905319035  0.003749999895850938  0.9998025170148793  1.0000
  Pt  Pt19      1.0  0.008750000151489546  0.008750000151489546  0.0  1.0000
  Pt  Pt20      1.0  0.006249999905319035  0.006249999905319035  0.0  1.0000
  Pt  Pt21      1.0  0.006249999905319035  0.008750000151489546  0.999407551627084  1.0000
  Pt  Pt22      1.0  0.006249999905319035  0.006249999905319035  0.9996050346122046  1.0000
  Pt  Pt23      1.0  0.008750000151489546  0.008750000151489546  0.9996050346122046  1.0000
  Pt  Pt24      1.0  0.008750000151489546  0.006249999905319035  0.9998025170148793  1.0000
  W   W7        1.0  0.008750000151489546  0.006249999905319035  0.999407551627084  1.0000
  W   W8        1.0  0.006249999905319035  0.008750000151489546  0.9998025170148793  1.0000
