data_image0
_chemical_formula_structural       Re6Pt2Re6Pt2CO
_chemical_formula_sum              "Re12 Pt4 C1 O1"
_cell_length_a       5.599315643310547
_cell_length_b       5.5993157412276675
_cell_length_c       101.08624267578125
_cell_angle_alpha    90.0
_cell_angle_beta     90.0
_cell_angle_gamma    119.99999942152355

_space_group_name_H-M_alt    "P 1"
_space_group_IT_number       1

loop_
  _space_group_symop_operation_xyz
  'x, y, z'

loop_
  _atom_site_type_symbol
  _atom_site_label
  _atom_site_symmetry_multiplicity
  _atom_site_fract_x
  _atom_site_fract_y
  _atom_site_fract_z
  _atom_site_occupancy
  Re  Re1       1.0  0.0023185519110335683  0.0032130691284243404  0.9993408297320231  1.0000
  Re  Re2       1.0  0.007540289218541768  0.008434806319524724  0.9993408297320231  1.0000
  Re  Re3       1.0  0.0023185517946257518  0.008434806319524724  0.9993408297320231  1.0000
  Re  Re4       1.0  0.00913304324032257  0.006842052272679894  0.9995604879992952  1.0000
  Re  Re5       1.0  0.00391130608627679  0.0016203148895205658  0.9995604879992952  1.0000
  Re  Re6       1.0  0.009133043343864878  0.0016203148895205658  0.9995604879992952  1.0000
  Pt  Pt1       1.0  0.0040591311347828165  0.006694227575922837  0.9995604879992952  1.0000
  Pt  Pt2       1.0  0.007392464112602793  0.003360894017240342  0.9993408297320231  1.0000
  Re  Re7       1.0  0.002322211173785763  0.003220376010973701  0.9997871671280273  1.0000
  Re  Re8       1.0  0.00753298960260937  0.008431154126633185  0.9997871671280273  1.0000
  Re  Re9       1.0  0.0023222096724424663  0.008431158736047856  0.9997871671280273  1.0000
  Re  Re10      1.0  0.009188172936992992  0.006952301021033288  0.9999946077283907  1.0000
  Re  Re11      1.0  0.003801061730203121  0.0015651933962280385  0.9999946077283907  1.0000
  Re  Re12      1.0  0.009188172578569352  0.0015651941644638174  0.9999946077283907  1.0000
  Pt  Pt3       1.0  0.004059133950415775  0.006694229880630173  0.0  1.0000
  Pt  Pt4       1.0  0.007392469359750819  0.003360897858419235  0.9997756879871099  1.0000
  C   C1        1.0  0.0008118266504049816  0.005070575086062074  0.00019425621619891835  1.0000
  O   O1        1.0  0.0008118266504049816  0.005070575086062074  0.00031296638284877945  1.0000
