data_image0
_chemical_formula_structural       COCr2Rh4Sn2Cr2Rh4Sn2
_chemical_formula_sum              "C1 O1 Cr4 Rh8 Sn4"
_cell_length_a       8.205611228942871
_cell_length_b       4.638840167258747
_cell_length_c       98.55916595458984
_cell_angle_alpha    89.17380721164726
_cell_angle_beta     90.0
_cell_angle_gamma    116.24581718485094

_space_group_name_H-M_alt    "P 1"
_space_group_IT_number       1

loop_
  _space_group_symop_operation_xyz
  'x, y, z'

loop_
  _atom_site_type_symbol
  _atom_site_label
  _atom_site_symmetry_multiplicity
  _atom_site_fract_x
  _atom_site_fract_y
  _atom_site_fract_z
  _atom_site_occupancy
  C   C1        1.0  0.005172337467481836  0.004771506206356719  6.592633193163469e-05  1.0000
  O   O1        1.0  0.005172337467481836  0.004771506206356719  0.0001876802509895451  1.0000
  Cr  Cr1       1.0  0.0006810988049446884  0.0018025125482045454  0.9995724211728043  1.0000
  Cr  Cr2       1.0  0.004318901124865802  0.006357910217758919  0.9999284859814189  1.0000
  Rh  Rh1       1.0  0.00224359880754783  0.00805251261536624  0.9994818690648903  1.0000
  Rh  Rh2       1.0  0.004118598841279752  0.005552512543727099  0.9996629732375867  1.0000
  Rh  Rh3       1.0  0.0010592412418832776  0.003318973810707152  0.9998518467474629  1.0000
  Rh  Rh4       1.0  0.0028978861694369516  0.0006672638651755371  0.9999995471506873  1.0000
  Sn  Sn1       1.0  0.003806098832324859  0.004302512507907528  0.999391317000184  1.0000
  Sn  Sn2       1.0  0.0025649689273888336  0.00933273630944487  0.9997454769034219  1.0000
  Cr  Cr3       1.0  0.0056810986244824595  0.0018025125482045454  0.9995724211728043  1.0000
  Cr  Cr4       1.0  0.009318901370022038  0.006357910217758919  0.9999284859814189  1.0000
  Rh  Rh5       1.0  0.007243598641272883  0.00805251261536624  0.9994818690648903  1.0000
  Rh  Rh6       1.0  0.009118598859439473  0.005552512543727099  0.9996629732375867  1.0000
  Rh  Rh7       1.0  0.006059241033046484  0.003318973810707152  0.9998518467474629  1.0000
  Rh  Rh8       1.0  0.007897885960600159  0.0006672638651755371  0.9999995471506873  1.0000
  Sn  Sn3       1.0  0.00880609885048458  0.004302512507907528  0.999391317000184  1.0000
  Sn  Sn4       1.0  0.007564968874612144  0.00933273630944487  0.9997454769034219  1.0000
