data_image0
_chemical_formula_structural       COAs12Mo6As12Mo6
_chemical_formula_sum              "C1 O1 As24 Mo12"
_cell_length_a       6.680267810821533
_cell_length_b       10.939552684648252
_cell_length_c       104.71664428710938
_cell_angle_alpha    90.76036076858104
_cell_angle_beta     90.0
_cell_angle_gamma    98.78129369283799

_space_group_name_H-M_alt    "P 1"
_space_group_IT_number       1

loop_
  _space_group_symop_operation_xyz
  'x, y, z'

loop_
  _atom_site_type_symbol
  _atom_site_label
  _atom_site_symmetry_multiplicity
  _atom_site_fract_x
  _atom_site_fract_y
  _atom_site_fract_z
  _atom_site_occupancy
  C   C1        1.0  0.0030919271785216163  0.0024218589690163735  0.00011589333994262784  1.0000
  O   O1        1.0  0.0030919271785216163  0.0024218589690163735  0.00023048853539019886  1.0000
  As  As1       1.0  0.003173575909620413  0.0027218258274733357  0.9998268872678641  1.0000
  As  As2       1.0  0.001476910064742956  0.00595547044317788  0.9992650896969688  1.0000
  As  As3       1.0  0.004810243390216981  0.009288803344607384  0.9995413646128625  1.0000
  As  As4       1.0  0.0018564233717509612  0.007473523266038086  0.9994447158320771  1.0000
  As  As5       1.0  0.0001897566116377304  0.0008068563432156899  0.9997209905333416  1.0000
  As  As6       1.0  0.0036162223583109513  0.004527714582283348  6.276928918719842e-06  1.0000
  As  As7       1.0  0.002021162073103119  0.00811872486926216  0.9997897052437861  1.0000
  As  As8       1.0  0.0003397106057781511  0.0014066721193698084  0.9992412920432161  1.0000
  As  As9       1.0  0.0036730439384915076  0.0047400055377054915  0.9995175663906269  1.0000
  As  As10      1.0  0.002993622801623882  0.002022320990234989  0.9994685138393251  1.0000
  As  As11      1.0  0.0013291280187287414  0.005367767760267747  0.9997447998571046  1.0000
  As  As12      1.0  0.004679886544600244  0.008763782427964396  2.5442989205973186e-06  1.0000
  Mo  Mo1       1.0  0.0007531321366289399  0.003060358539027624  0.9996334372029737  1.0000
  Mo  Mo2       1.0  0.004111330884955508  0.006492141735883758  0.9998947750670398  1.0000
  Mo  Mo3       1.0  0.0024197988762935845  0.00972702537569899  0.9993571625015898  1.0000
  Mo  Mo4       1.0  0.004246867862801754  0.00703530123494648  0.9996289179433497  1.0000
  Mo  Mo5       1.0  0.002556875163834301  0.00027297490084581623  0.9998946729944811  1.0000
  Mo  Mo6       1.0  0.0009135344751384741  0.003701967988912856  0.999352643311578  1.0000
  As  As13      1.0  0.008173575809242363  0.0027218258274733357  0.9998268872678641  1.0000
  As  As14      1.0  0.006476909975256621  0.00595547044317788  0.9992650896969688  1.0000
  As  As15      1.0  0.00981024328983893  0.009288803344607384  0.9995413646128625  1.0000
  As  As16      1.0  0.006856423738627504  0.007473523266038086  0.9994447158320771  1.0000
  As  As17      1.0  0.005189757007921906  0.0008068563432156899  0.9997209905333416  1.0000
  As  As18      1.0  0.008616222536760818  0.004527714582283348  6.276928918719842e-06  1.0000
  As  As19      1.0  0.007021162087632668  0.00811872486926216  0.9997897052437861  1.0000
  As  As20      1.0  0.005339710951960435  0.0014066721193698084  0.9992412920432161  1.0000
  As  As21      1.0  0.008673043838113459  0.0047400055377054915  0.9995175663906269  1.0000
  As  As22      1.0  0.007993623258901664  0.002022320990234989  0.9994685138393251  1.0000
  As  As23      1.0  0.006329128302828247  0.005367767760267747  0.9997447998571046  1.0000
  As  As24      1.0  0.009679886444222196  0.008763782427964396  2.5442989205973186e-06  1.0000
  Mo  Mo7       1.0  0.005753131999219058  0.003060358539027624  0.9996334372029737  1.0000
  Mo  Mo8       1.0  0.009111331063405375  0.006492141735883758  0.9998947750670398  1.0000
  Mo  Mo9       1.0  0.00741979926604273  0.00972702537569899  0.9993571625015898  1.0000
  Mo  Mo10      1.0  0.009246868320079536  0.00703530123494648  0.9996289179433497  1.0000
  Mo  Mo11      1.0  0.007556875063456252  0.00027297490084581623  0.9998946729944811  1.0000
  Mo  Mo12      1.0  0.005913534361690366  0.003701967988912856  0.999352643311578  1.0000
