data_image0
_chemical_formula_structural       COSi5Sn5Pt25
_chemical_formula_sum              "C1 O1 Si5 Sn5 Pt25"
_cell_length_a       9.01282792044586
_cell_length_b       8.195989146670613
_cell_length_c       106.53392028808594
_cell_angle_alpha    62.399620619268106
_cell_angle_beta     78.61749284088135
_cell_angle_gamma    77.29492239684188

_space_group_name_H-M_alt    "P 1"
_space_group_IT_number       1

loop_
  _space_group_symop_operation_xyz
  'x, y, z'

loop_
  _atom_site_type_symbol
  _atom_site_label
  _atom_site_symmetry_multiplicity
  _atom_site_fract_x
  _atom_site_fract_y
  _atom_site_fract_z
  _atom_site_occupancy
  C   C1        1.0  0.007989652187389914  0.00013345245071784997  0.999798979024714  1.0000
  O   O1        1.0  0.007989652187389914  0.00013345245071784997  0.9999116188738963  1.0000
  Si  Si1       1.0  0.0031814164235837157  0.0010904875853319914  0.999196146858257  1.0000
  Si  Si2       1.0  0.007181416613466954  0.009090487424566984  0.9993676131176898  1.0000
  Si  Si3       1.0  0.009181416870315968  0.003090487642377639  0.9990246807149795  1.0000
  Si  Si4       1.0  0.0011766187451852778  0.007017346419840036  0.9995437474976759  1.0000
  Si  Si5       1.0  0.0052151699460311575  0.005264391227101255  0.999693952288327  1.0000
  Sn  Sn1       1.0  0.0051814166160497315  0.005090487569774088  0.9992818802637794  1.0000
  Sn  Sn2       1.0  0.009147789571052008  0.002971470973680839  0.9994528032758181  1.0000
  Sn  Sn3       1.0  0.001181416330256333  0.007090487756468935  0.9991104138036074  1.0000
  Sn  Sn4       1.0  0.0031991983832906964  0.0009927857636383489  0.999632554857917  1.0000
  Sn  Sn5       1.0  0.007181416613466954  0.009090487424566984  0.9989389476769236  1.0000
  Pt  Pt1       1.0  0.00558939656854097  0.008866546955164693  0.9992119252491043  1.0000
  Pt  Pt2       1.0  0.009589396791280048  0.006866547287066644  0.9993833911323549  1.0000
  Pt  Pt3       1.0  0.0015893964288913897  0.0008665475697018989  0.9990404589726588  1.0000
  Pt  Pt4       1.0  0.003579316989903954  0.0046449735067565275  0.9995718559933895  1.0000
  Pt  Pt5       1.0  0.007608626788303353  0.003153370097144382  0.9997020035872444  1.0000
  Pt  Pt6       1.0  0.004773436710849233  0.0013144277954358833  0.9993518347320385  1.0000
  Pt  Pt7       1.0  0.008808428919083839  0.009230898544875467  0.9995267771660572  1.0000
  Pt  Pt8       1.0  0.0007734364723465742  0.003314427593183132  0.9991803688444301  1.0000
  Pt  Pt9       1.0  0.002804961098134354  0.007387417613638249  0.9996812170002755  1.0000
  Pt  Pt10      1.0  0.006773436724030034  0.00531442752057958  0.9990089027090303  1.0000
  Pt  Pt11      1.0  0.0025893963638813403  0.007866547639712467  0.9992976582950146  1.0000
  Pt  Pt12      1.0  0.006522034359397317  0.005940320440546735  0.9994579503030401  1.0000
  Pt  Pt13      1.0  0.00858939658403764  0.009866547826407314  0.999126192150899  1.0000
  Pt  Pt14      1.0  0.0005373513678424218  0.0038999760159352764  0.9996343277018394  1.0000
  Pt  Pt15      1.0  0.004589396668021097  0.001866547468575523  0.998954725905378  1.0000
  Pt  Pt16      1.0  0.001773436386017813  0.0003144277345007597  0.9994375678065266  1.0000
  Pt  Pt17      1.0  0.005825488060084888  0.00835046898160533  0.9996050961364933  1.0000
  Pt  Pt18      1.0  0.007773436836690962  0.0023144277591341075  0.9992661016643386  1.0000
  Pt  Pt19      1.0  0.009773436802581024  0.006314427873225403  0.9989231696282567  1.0000
  Pt  Pt20      1.0  0.0037734365824247237  0.0043144276865305555  0.9990946357723722  1.0000
  Pt  Pt21      1.0  0.004181416471861643  0.00809048759051796  0.9990246807402655  1.0000
  Pt  Pt22      1.0  0.008181416757655042  0.0060904874038231116  0.9991961472004375  1.0000
  Pt  Pt23      1.0  0.0002265636130100958  0.00029221305722811086  0.9996972845739528  1.0000
  Pt  Pt24      1.0  0.0021814164744444215  0.004090487735725063  0.9993676133271213  1.0000
  Pt  Pt25      1.0  0.006149058727154278  0.0020047974663766725  0.9995481528556057  1.0000
