data_image0
_chemical_formula_structural       HV16Si4Sb8
_chemical_formula_sum              "H1 V16 Si4 Sb8"
_cell_length_a       9.911582946777344
_cell_length_b       4.713490009307861
_cell_length_c       109.64633178710938
_cell_angle_alpha    90.0
_cell_angle_beta     90.0
_cell_angle_gamma    90.0

_space_group_name_H-M_alt    "P 1"
_space_group_IT_number       1

loop_
  _space_group_symop_operation_xyz
  'x, y, z'

loop_
  _atom_site_type_symbol
  _atom_site_label
  _atom_site_symmetry_multiplicity
  _atom_site_fract_x
  _atom_site_fract_y
  _atom_site_fract_z
  _atom_site_occupancy
  H   H1        1.0  0.002262470720511923  0.006249680304843597  2.0882708903498604e-05  1.0000
  V   V1        1.0  0.006176850591616627  0.0062496799096703505  0.9995594289311518  1.0000
  V   V2        1.0  0.002415898100525948  0.0012496801665329612  0.9997517841481971  1.0000
  V   V3        1.0  0.006176850591616627  0.001249679968946338  0.9991880956075831  1.0000
  V   V4        1.0  0.004485366083174061  0.001249679968946338  0.9995594289311518  1.0000
  V   V5        1.0  0.008246425128364654  0.0062496799096703505  0.9997517912151037  1.0000
  V   V6        1.0  0.002262470720511923  0.006249680304843597  0.9999085167200661  1.0000
  V   V7        1.0  0.008400023145279422  0.0012496800677396496  0.9999085080223349  1.0000
  V   V8        1.0  0.004485366083174061  0.0062496799096703505  0.9991880956075831  1.0000
  V   V9        1.0  0.0009934788560102869  0.001249680462912896  0.0  1.0000
  V   V10       1.0  0.007385037274435758  0.0062496799096703505  0.9992973108433083  1.0000
  V   V11       1.0  0.0011768506630285456  0.0062496799096703505  0.9996400753816703  1.0000
  V   V12       1.0  0.009668807727290396  0.0062496799096703505  1.195938034301625e-08  1.0000
  V   V13       1.0  0.003277179776207134  0.001249679968946338  0.9992973108433083  1.0000
  V   V14       1.0  0.007385037274435758  0.001249679968946338  0.9994502142390348  1.0000
  V   V15       1.0  0.003277179776207134  0.0062496799096703505  0.9994502142390348  1.0000
  V   V16       1.0  0.009485366293651295  0.001249679968946338  0.9996400753816703  1.0000
  Si  Si1       1.0  0.005331108337395344  0.008749680225808949  0.9993737622693675  1.0000
  Si  Si2       1.0  0.005331108337395344  0.0037496799887050004  0.9993737622693675  1.0000
  Si  Si3       1.0  0.00033119269366407237  0.0037490402032189485  0.9998179744259219  1.0000
  Si  Si4       1.0  0.00033119259970102133  0.008750320406468247  0.9998179744259219  1.0000
  Sb  Sb1       1.0  0.0036675068005795797  0.0012496802653262726  0.9999787324164927  1.0000
  Sb  Sb2       1.0  0.003921300249816031  0.0062496799096703505  0.9996983012556949  1.0000
  Sb  Sb3       1.0  0.006994596742697619  0.0062496799096703505  0.9999787389397911  1.0000
  Sb  Sb4       1.0  0.006740916800826861  0.001249679968946338  0.9996983012556949  1.0000
  Sb  Sb5       1.0  0.008921300084441062  0.0062496799096703505  0.9995012030571273  1.0000
  Sb  Sb6       1.0  0.008921300084441062  0.001249679968946338  0.9992463214816077  1.0000
  Sb  Sb7       1.0  0.0017409167782757283  0.001249679968946338  0.9995012030571273  1.0000
  Sb  Sb8       1.0  0.0017409167782757283  0.0062496799096703505  0.9992463214816077  1.0000
