data_image0
_chemical_formula_structural       COCu3Au3Cu3Au3Cu3Au3Cu3Au3
_chemical_formula_sum              "C1 O1 Cu12 Au12"
_cell_length_a       5.785843849182129
_cell_length_b       6.867034973994599
_cell_length_c       102.86959075927734
_cell_angle_alpha    95.44152606247278
_cell_angle_beta     90.0
_cell_angle_gamma    90.0

_space_group_name_H-M_alt    "P 1"
_space_group_IT_number       1

loop_
  _space_group_symop_operation_xyz
  'x, y, z'

loop_
  _atom_site_type_symbol
  _atom_site_label
  _atom_site_symmetry_multiplicity
  _atom_site_fract_x
  _atom_site_fract_y
  _atom_site_fract_z
  _atom_site_occupancy
  C   C1        1.0  0.0012500023082485578  0.005893349168757917  0.0001488648731684679  1.0000
  O   O1        1.0  0.0012500023082485578  0.005893349168757917  0.00026551765879853845  1.0000
  Cu  Cu1       1.0  0.0037499976692162403  0.006758882114737  0.9995451356893031  1.0000
  Cu  Cu2       1.0  0.0037499976692162403  9.221525302554172e-05  0.9993929801519603  1.0000
  Cu  Cu3       1.0  0.0037499976692162403  0.0034255485561598565  0.9992408244418353  1.0000
  Au  Au1       1.0  0.0012499978012081383  0.006758882114737  0.99931690235617  1.0000
  Au  Au2       1.0  0.0012499978012081383  9.221525302554172e-05  0.9996212134850934  1.0000
  Au  Au3       1.0  0.0012499978012081383  0.0034255485561598565  0.9994690577749683  1.0000
  Cu  Cu4       1.0  0.0037500015323937426  0.0067406891358498845  1.937686414128178e-06  1.0000
  Cu  Cu5       1.0  0.0037500018543252015  0.00020569315844639528  0.999847371211585  1.0000
  Cu  Cu6       1.0  0.0037499976692162403  0.0034255485561598565  0.9996972911081015  1.0000
  Au  Au4       1.0  0.0012499978012081383  0.006758882114737  0.9997733693121459  1.0000
  Au  Au5       1.0  0.0012500060104603309  0.009907784588259314  6.271967711392973e-05  1.0000
  Au  Au6       1.0  0.0012500036764572565  0.003477861067804235  0.999935313461559  1.0000
  Cu  Cu7       1.0  0.008749997244266715  0.006758882114737  0.9995451356893031  1.0000
  Cu  Cu8       1.0  0.008749997244266715  9.221525302554172e-05  0.9993929801519603  1.0000
  Cu  Cu9       1.0  0.008749997244266715  0.0034255485561598565  0.9992408244418353  1.0000
  Au  Au7       1.0  0.006249997939638666  0.006758882114737  0.99931690235617  1.0000
  Au  Au8       1.0  0.006249997939638666  9.221525302554172e-05  0.9996212134850934  1.0000
  Au  Au9       1.0  0.006249997939638666  0.0034255485561598565  0.9994690577749683  1.0000
  Cu  Cu10      1.0  0.008750001107444217  0.0067406891358498845  1.937686414128178e-06  1.0000
  Cu  Cu11      1.0  0.008750001751307135  0.00020569315844639528  0.999847371211585  1.0000
  Cu  Cu12      1.0  0.008749997244266715  0.0034255485561598565  0.9996972911081015  1.0000
  Au  Au10      1.0  0.006249997939638666  0.006758882114737  0.9997733693121459  1.0000
  Au  Au11      1.0  0.00625000566599367  0.009907784588259314  6.271967711392973e-05  1.0000
  Au  Au12      1.0  0.006250003734404919  0.003477861067804235  0.999935313461559  1.0000
