data_image0
_chemical_formula_structural       HIn18Ni26
_chemical_formula_sum              "H1 In18 Ni26"
_cell_length_a       9.18212075266203
_cell_length_b       8.551216125488281
_cell_length_c       106.80419921875
_cell_angle_alpha    90.0
_cell_angle_beta     109.2480698557865
_cell_angle_gamma    90.0

_space_group_name_H-M_alt    "P 1"
_space_group_IT_number       1

loop_
  _space_group_symop_operation_xyz
  'x, y, z'

loop_
  _atom_site_type_symbol
  _atom_site_label
  _atom_site_symmetry_multiplicity
  _atom_site_fract_x
  _atom_site_fract_y
  _atom_site_fract_z
  _atom_site_occupancy
  H   H1        1.0  0.0037566538022147343  0.005087516624194232  0.00016368322301620348  1.0000
  In  In1       1.0  0.009082189316671983  0.0031575300106785184  3.863359314377859e-06  1.0000
  In  In2       1.0  0.005819398839612675  0.0010525100398632147  0.9998912937955815  1.0000
  In  In3       1.0  0.006869218951854353  0.006052510148774341  0.9993632130267199  1.0000
  In  In4       1.0  0.004082189282293314  0.00394748985122566  0.9995731198595894  1.0000
  In  In5       1.0  0.0009278178453329005  0.0010525100398632147  0.9994238273321968  1.0000
  In  In6       1.0  0.001398518542554301  0.006052510148774341  3.9635799993157564e-05  1.0000
  In  In7       1.0  0.008714848086439304  0.00394748985122566  0.9996446642933132  1.0000
  In  In8       1.0  0.0037148476223272785  0.0031575300106785184  7.540814723917497e-05  1.0000
  In  In9       1.0  0.001977638065007917  0.006052510148774341  0.9997572336531731  1.0000
  In  In10      1.0  0.004082189282293314  0.008157530446323022  0.9995731198595894  1.0000
  In  In11      1.0  0.0008193989126673457  0.006052510148774341  0.9994605500198643  1.0000
  In  In12      1.0  0.0018692191323423624  0.0010525100398632147  0.9997939566198777  1.0000
  In  In13      1.0  0.009082189316671983  0.00894748985122566  3.863359314377859e-06  1.0000
  In  In14      1.0  0.0059278179871449085  0.006052510148774341  0.9998545708349665  1.0000
  In  In15      1.0  0.006398518684366309  0.0010525100398632147  0.9996088919369328  1.0000
  In  In16      1.0  0.0037148476223272785  0.00894748985122566  7.540814723917497e-05  1.0000
  In  In17      1.0  0.008714848086439304  0.008157530446323022  0.9996446642933132  1.0000
  In  In18      1.0  0.006977638099386586  0.0010525100398632147  0.00018797771097208313  1.0000
  Ni  Ni1       1.0  0.006751812360897031  0.003457965271814289  0.9997764610142955  1.0000
  Ni  Ni2       1.0  0.008898518701555643  0.008552510148774341  0.9993935201433988  1.0000
  Ni  Ni3       1.0  0.004180601229144662  0.006052510148774341  1.1312181894402315e-06  1.0000
  Ni  Ni4       1.0  0.0017518125413850413  0.0036470548079121407  0.9993457175206601  1.0000
  Ni  Ni5       1.0  0.0036164356754759303  0.0010525100398632147  0.9996473967886391  1.0000
  Ni  Ni6       1.0  0.001398518542554301  0.008716654898456494  0.9996088919775596  1.0000
  Ni  Ni7       1.0  0.004016943296456665  0.006052510148774341  0.9993860797138759  1.0000
  Ni  Ni8       1.0  0.006045224578102229  0.003457965271814289  0.999441322568354  1.0000
  Ni  Ni9       1.0  0.003780093608163927  0.0010525100398632147  0.9994009603690486  1.0000
  Ni  Ni10      1.0  0.0010452245437235607  0.0036470548079121407  0.9998720664344591  1.0000
  Ni  Ni11      1.0  0.006398518684366309  0.008388365399092186  3.963603840336336e-05  1.0000
  Ni  Ni12      1.0  0.006398518684366309  0.006052510148774341  0.9996088919369328  1.0000
  Ni  Ni13      1.0  0.008898518701555643  0.003552509930952089  0.9993935201433988  1.0000
  Ni  Ni14      1.0  0.0017518125413850413  0.008457964836169786  0.9993457175206601  1.0000
  Ni  Ni15      1.0  0.003898518667176975  0.003552509930952089  0.9998242640095039  1.0000
  Ni  Ni16      1.0  0.009180600833789973  0.0010525100398632147  0.9995703873399051  1.0000
  Ni  Ni17      1.0  0.006751812360897031  0.00864705459008989  0.9997764610142955  1.0000
  Ni  Ni18      1.0  0.008616435709854599  0.006052510148774341  7.814028836411258e-05  1.0000
  Ni  Ni19      1.0  0.006398518684366309  0.0037166548984564943  3.963603840336336e-05  1.0000
  Ni  Ni20      1.0  0.00901694376056869  0.0010525100398632147  0.9998168235048172  1.0000
  Ni  Ni21      1.0  0.0010452245437235607  0.008457964836169786  0.9998720664344591  1.0000
  Ni  Ni22      1.0  0.008780093642542596  0.006052510148774341  0.9998317044268475  1.0000
  Ni  Ni23      1.0  0.006045224578102229  0.00864705459008989  0.999441322568354  1.0000
  Ni  Ni24      1.0  0.001398518542554301  0.003388365181269935  0.9996088919775596  1.0000
  Ni  Ni25      1.0  0.001398518542554301  0.0010525100398632147  3.9635799993157564e-05  1.0000
  Ni  Ni26      1.0  0.003898518667176975  0.008552510148774341  0.9998242640095039  1.0000
