data_image0
_chemical_formula_structural       HGa5Cu5Pt10Ga5Cu5Pt10
_chemical_formula_sum              "H1 Ga10 Cu10 Pt20"
_cell_length_a       5.714162349700928
_cell_length_b       8.241597422616984
_cell_length_c       110.49496459960938
_cell_angle_alpha    80.19423388679304
_cell_angle_beta     90.0
_cell_angle_gamma    69.71647542129399

_space_group_name_H-M_alt    "P 1"
_space_group_IT_number       1

loop_
  _space_group_symop_operation_xyz
  'x, y, z'

loop_
  _atom_site_type_symbol
  _atom_site_label
  _atom_site_symmetry_multiplicity
  _atom_site_fract_x
  _atom_site_fract_y
  _atom_site_fract_z
  _atom_site_occupancy
  H   H1        1.0  0.005821128024509131  0.008883046123549993  0.9999468185168024  1.0000
  Ga  Ga1       1.0  0.009015237934711515  0.002500000098007761  0.9991540016781442  1.0000
  Ga  Ga2       1.0  0.007015237905309188  0.006500000156812417  0.999276163840525  1.0000
  Ga  Ga3       1.0  0.0010152383418054146  0.008500000431234148  0.9990318391871233  1.0000
  Ga  Ga4       1.0  0.005015238553747197  0.0005000000073505821  0.9993983263292114  1.0000
  Ga  Ga5       1.0  0.003015238616227145  0.004499999882390687  0.9989096770309674  1.0000
  Cu  Cu1       1.0  0.008015238042520053  0.004499999882390687  0.9989096770309674  1.0000
  Cu  Cu2       1.0  0.0060152377680983225  0.008500000431234148  0.9990318391871233  1.0000
  Cu  Cu3       1.0  1.5238495887533715e-05  0.0005000000073505821  0.9993983263292114  1.0000
  Cu  Cu4       1.0  0.004015238508418608  0.002500000098007761  0.9991540016781442  1.0000
  Cu  Cu5       1.0  0.0020152384790162806  0.006500000156812417  0.999276163840525  1.0000
  Pt  Pt1       1.0  1.5238508505320275e-05  0.005500000019601552  0.9990929204357463  1.0000
  Pt  Pt2       1.0  0.008015238309598624  0.009500000078406208  0.9992150825981271  1.0000
  Pt  Pt3       1.0  0.0020152385379076485  0.0014999999607968955  0.9989707582733653  1.0000
  Pt  Pt4       1.0  0.0060152382754693305  0.0034999999901992236  0.9993372450860354  1.0000
  Pt  Pt5       1.0  0.0040152381235573015  0.007500000294023282  0.9988485957823446  1.0000
  Pt  Pt6       1.0  0.005015238260768167  0.005500000019601552  0.9990929204357463  1.0000
  Pt  Pt7       1.0  0.0030152382313658388  0.009500000078406208  0.9992150825981271  1.0000
  Pt  Pt8       1.0  0.007015238290170494  0.0014999999607968955  0.9989707582733653  1.0000
  Pt  Pt9       1.0  0.0010152385232064843  0.0034999999901992236  0.9993372450860354  1.0000
  Pt  Pt10      1.0  0.009015238201790086  0.007500000294023282  0.9988485957823446  1.0000
  Ga  Ga6       1.0  0.00905280753246999  0.0024199635301360533  0.9997645627157064  1.0000
  Ga  Ga7       1.0  0.007066274327074501  0.006394516363846207  0.9998957783195143  1.0000
  Ga  Ga8       1.0  0.0010152383418054146  0.008500000431234148  0.9996426511895158  1.0000
  Ga  Ga9       1.0  0.004909044416077315  0.0007047918792455002  0.9999910470419016  1.0000
  Ga  Ga10      1.0  0.003015238616227145  0.004499999882390687  0.9995204884939267  1.0000
  Cu  Cu6       1.0  0.008015238042520053  0.004499999882390687  0.9995204884939267  1.0000
  Cu  Cu7       1.0  0.0060152377680983225  0.008500000431234148  0.9996426511895158  1.0000
  Cu  Cu8       1.0  0.009984760992136863  0.0005398467777047554  0.9999981056606938  1.0000
  Cu  Cu9       1.0  0.004035188163244859  0.0024566637613246006  0.999761619436414  1.0000
  Cu  Cu10      1.0  0.0020598056051653953  0.0064132461370045  0.9998980131570302  1.0000
  Pt  Pt11      1.0  1.5238508505320275e-05  0.005500000019601552  0.9997037318987054  1.0000
  Pt  Pt12      1.0  0.008098295649921424  0.009294969802632754  0.9998326225231466  1.0000
  Pt  Pt13      1.0  0.0020152385379076485  0.0014999999607968955  0.9995815697363245  1.0000
  Pt  Pt14      1.0  0.0060589470680631865  0.003476739808290547  0.9999412778965644  1.0000
  Pt  Pt15      1.0  0.0040152381235573015  0.007500000294023282  0.9994594072453038  1.0000
  Pt  Pt16      1.0  0.005015238260768167  0.005500000019601552  0.9997037318987054  1.0000
  Pt  Pt17      1.0  0.003130275030510818  0.009298493181639273  0.9998327099268461  1.0000
  Pt  Pt18      1.0  0.007015238290170494  0.0014999999607968955  0.9995815697363245  1.0000
  Pt  Pt19      1.0  0.000990939297260045  0.003475536518005358  0.999941221976765  1.0000
  Pt  Pt20      1.0  0.009015238201790086  0.007500000294023282  0.9994594072453038  1.0000
