data_image0
_chemical_formula_structural       HMn2Ga4Se8
_chemical_formula_sum              "H1 Mn2 Ga4 Se8"
_cell_length_a       5.691519737243652
_cell_length_b       5.691519737243652
_cell_length_c       102.77224731445312
_cell_angle_alpha    90.0
_cell_angle_beta     90.0
_cell_angle_gamma    90.0

_space_group_name_H-M_alt    "P 1"
_space_group_IT_number       1

loop_
  _space_group_symop_operation_xyz
  'x, y, z'

loop_
  _atom_site_type_symbol
  _atom_site_label
  _atom_site_symmetry_multiplicity
  _atom_site_fract_x
  _atom_site_fract_y
  _atom_site_fract_z
  _atom_site_occupancy
  H   H1        1.0  0.0033532375965169853  0.009255987222081936  0.00011992642345932955  1.0000
  Mn  Mn1       1.0  0.001900685249179749  0.0007440126404660294  0.9990586760834587  1.0000
  Mn  Mn2       1.0  0.006900685098637045  0.005744012489923326  0.999590146267261  1.0000
  Ga  Ga1       1.0  0.006900685098637045  0.005744012489923326  0.9990586760834587  1.0000
  Ga  Ga2       1.0  0.001913744828714135  0.00574606707056026  0.9998729161878448  1.0000
  Ga  Ga3       1.0  0.001900685249179749  0.0007440126404660294  0.999590146267261  1.0000
  Ga  Ga4       1.0  0.006900685098637045  0.0007440126404660294  0.9993244111753599  1.0000
  Se  Se1       1.0  0.0033532375965169853  0.009255987222081936  4.5237526802886654e-08  1.0000
  Se  Se2       1.0  0.009118038397469098  0.008064606665794234  0.9997223854175668  1.0000
  Se  Se3       1.0  0.0047009983133352575  0.0034137115823398524  0.9997224863320496  1.0000
  Se  Se4       1.0  0.0004348305312902826  0.002254846450055387  0.0  1.0000
  Se  Se5       1.0  0.009565169208532653  0.0032734525817607633  0.999447771301094  1.0000
  Se  Se6       1.0  0.0043712453209756846  0.003408496586728264  0.9992010513396098  1.0000
  Se  Se7       1.0  0.009430124549031658  0.00807952806585164  0.9992010513396098  1.0000
  Se  Se8       1.0  0.0042362009887414375  0.008214572725352635  0.999447771301094  1.0000
