data_image0
_chemical_formula_structural       COIn4Ag2Se8
_chemical_formula_sum              "C1 O1 In4 Ag2 Se8"
_cell_length_a       6.052707672119141
_cell_length_b       6.052707672119141
_cell_length_c       105.47187042236328
_cell_angle_alpha    90.0
_cell_angle_beta     90.0
_cell_angle_gamma    90.0

_space_group_name_H-M_alt    "P 1"
_space_group_IT_number       1

loop_
  _space_group_symop_operation_xyz
  'x, y, z'

loop_
  _atom_site_type_symbol
  _atom_site_label
  _atom_site_symmetry_multiplicity
  _atom_site_fract_x
  _atom_site_fract_y
  _atom_site_fract_z
  _atom_site_occupancy
  C   C1        1.0  0.006189948472826296  0.008937374743450322  0.00016420853415867543  1.0000
  O   O1        1.0  0.006189948472826296  0.008937374743450322  0.00027798317635133624  1.0000
  In  In1       1.0  0.00500029406164897  0.0010626250626750511  0.9990067949627177  1.0000
  In  In2       1.0  0.009999705532137526  0.0010626264474938173  0.9998474917851823  1.0000
  In  In3       1.0  2.941000027102e-07  0.006062625158073678  0.9995673215804379  1.0000
  In  In4       1.0  0.00500029406164897  0.006062625158073678  0.999287058130297  1.0000
  Ag  Ag1       1.0  0.005000262980161104  0.00606187550951483  0.9998511227044137  1.0000
  Ag  Ag2       1.0  2.941000027102e-07  0.0010626250626750511  0.999287058130297  1.0000
  Se  Se1       1.0  0.008570770132748802  0.004687302247880167  0.9999999841765388  1.0000
  Se  Se2       1.0  0.0014283056145875416  0.007437520620874644  0.0  1.0000
  Se  Se3       1.0  0.007689641956425079  0.008373719038948284  0.9991361376302778  1.0000
  Se  Se4       1.0  0.002310946320741614  0.0037515312771990716  0.9991361376302778  1.0000
  Se  Se5       1.0  0.002689200180774365  0.008751972745112283  0.9994379789128779  1.0000
  Se  Se6       1.0  0.007311387634786073  0.003373277263297569  0.9994379789128779  1.0000
  Se  Se7       1.0  0.002689641784092077  0.0033737188666152808  0.9996966642479979  1.0000
  Se  Se8       1.0  0.007310946339205865  0.008751531449532075  0.9996966642479979  1.0000
