data_image0
_chemical_formula_structural       COSnPt3SnPt3SnPt3SnPt3SnPt3SnPt3SnPt3SnPt3
_chemical_formula_sum              "C1 O1 Sn8 Pt24"
_cell_length_a       8.162483215332031
_cell_length_b       8.162483215332031
_cell_length_c       98.56868743896484
_cell_angle_alpha    90.0
_cell_angle_beta     90.0
_cell_angle_gamma    90.0

_space_group_name_H-M_alt    "P 1"
_space_group_IT_number       1

loop_
  _space_group_symop_operation_xyz
  'x, y, z'

loop_
  _atom_site_type_symbol
  _atom_site_label
  _atom_site_symmetry_multiplicity
  _atom_site_fract_x
  _atom_site_fract_y
  _atom_site_fract_z
  _atom_site_occupancy
  C   C1        1.0  0.0037499990233215764  0.002500000109534029  0.00015416807279949567  1.0000
  O   O1        1.0  0.0037499990233215764  0.002500000109534029  0.00027591083544027504  1.0000
  Sn  Sn1       1.0  0.0012499999406690677  9.999999628137493e-11  0.9995724526750839  1.0000
  Pt  Pt1       1.0  0.0037499997079092568  9.999999628137493e-11  0.9993654276338577  1.0000
  Pt  Pt2       1.0  0.0012499999406690677  0.0024999998813381354  0.9993654276338577  1.0000
  Pt  Pt3       1.0  0.0037499997079092568  0.0024999998813381354  0.9995724526750839  1.0000
  Sn  Sn2       1.0  0.0012500013098444278  0.009999999525352542  0.0  1.0000
  Pt  Pt4       1.0  0.0037499981105380033  0.009999999525352542  0.999779479228064  1.0000
  Pt  Pt5       1.0  0.0012500002829629077  0.002500000109534029  0.9997794771116084  1.0000
  Pt  Pt6       1.0  0.0037499990233215764  0.002500000109534029  0.999978447829634  1.0000
  Sn  Sn3       1.0  0.0012499999406690677  0.004999999762676271  0.9995724526750839  1.0000
  Pt  Pt7       1.0  0.0037499997079092568  0.004999999762676271  0.9993654276338577  1.0000
  Pt  Pt8       1.0  0.0012499999406690677  0.0074999998722103  0.9993654276338577  1.0000
  Pt  Pt9       1.0  0.0037499997079092568  0.0074999998722103  0.9995724526750839  1.0000
  Sn  Sn4       1.0  0.0012500013098444278  0.0049999993062844845  0.0  1.0000
  Pt  Pt10      1.0  0.0037499981105380033  0.004999999762676271  0.999779479228064  1.0000
  Pt  Pt11      1.0  0.0012500002829629077  0.0074999998722103  0.9997794771116084  1.0000
  Pt  Pt12      1.0  0.0037499990233215764  0.0074999998722103  0.999978447829634  1.0000
  Sn  Sn5       1.0  0.006249999817443286  9.999999628137493e-11  0.9995724526750839  1.0000
  Pt  Pt13      1.0  0.008749999926977314  9.999999628137493e-11  0.9993654276338577  1.0000
  Pt  Pt14      1.0  0.006249999817443286  0.0024999998813381354  0.9993654276338577  1.0000
  Pt  Pt15      1.0  0.008749999926977314  0.0024999998813381354  0.9995724526750839  1.0000
  Sn  Sn6       1.0  0.006250001186618646  0.009999999525352542  0.0  1.0000
  Pt  Pt16      1.0  0.008749998101410167  0.009999999525352542  0.999779479228064  1.0000
  Pt  Pt17      1.0  0.006249999817443286  0.002500000109534029  0.9997794771116084  1.0000
  Pt  Pt18      1.0  0.008749999014193741  0.002500000109534029  0.999978447829634  1.0000
  Sn  Sn7       1.0  0.006249999817443286  0.004999999762676271  0.9995724526750839  1.0000
  Pt  Pt19      1.0  0.008749999926977314  0.004999999762676271  0.9993654276338577  1.0000
  Pt  Pt20      1.0  0.006249999817443286  0.0074999998722103  0.9993654276338577  1.0000
  Pt  Pt21      1.0  0.008749999926977314  0.0074999998722103  0.9995724526750839  1.0000
  Sn  Sn8       1.0  0.006250001186618646  0.0049999993062844845  0.0  1.0000
  Pt  Pt22      1.0  0.008749998101410167  0.004999999762676271  0.999779479228064  1.0000
  Pt  Pt23      1.0  0.006249999817443286  0.0074999998722103  0.9997794771116084  1.0000
  Pt  Pt24      1.0  0.008749999014193741  0.0074999998722103  0.999978447829634  1.0000
