data_image0
_chemical_formula_structural       HCuNiSb2CuNiSb2CuNiSb2CuNiSb2
_chemical_formula_sum              "H1 Cu4 Ni4 Sb8"
_cell_length_a       8.286084994105776
_cell_length_b       5.194699287414551
_cell_length_c       103.14434051513672
_cell_angle_alpha    90.0
_cell_angle_beta     59.99999946233646
_cell_angle_gamma    90.0

_space_group_name_H-M_alt    "P 1"
_space_group_IT_number       1

loop_
  _space_group_symop_operation_xyz
  'x, y, z'

loop_
  _atom_site_type_symbol
  _atom_site_label
  _atom_site_symmetry_multiplicity
  _atom_site_fract_x
  _atom_site_fract_y
  _atom_site_fract_z
  _atom_site_occupancy
  H   H1        1.0  0.009500857577397262  0.006472242242663305  0.9999153588123122  1.0000
  Cu  Cu1       1.0  0.0004991428145494817  0.0013710158607503034  0.9994018238634377  1.0000
  Ni  Ni1       1.0  0.0004991428145494817  0.006371016050790549  0.9994018238634377  1.0000
  Sb  Sb1       1.0  0.002165809449202838  0.004113047492609285  0.9991340410890114  1.0000
  Sb  Sb2       1.0  0.0038324760189643496  0.008628984608971813  0.9992679324518661  1.0000
  Cu  Cu2       1.0  0.0007005746933915357  0.0014881682319901628  0.9997710223622535  1.0000
  Ni  Ni2       1.0  0.0007076998179589595  0.006472242242663305  0.9997699317608756  1.0000
  Sb  Sb3       1.0  0.0022451937195791184  0.004120904401787614  0.9995229635800319  1.0000
  Sb  Sb4       1.0  0.003831320684558171  0.008588471614246425  0.999669736785377  1.0000
  Cu  Cu3       1.0  0.005499142588725862  0.0013710158607503034  0.9994018241036589  1.0000
  Ni  Ni3       1.0  0.005499142588725862  0.006371016050790549  0.9994018241036589  1.0000
  Sb  Sb5       1.0  0.0071658096776221316  0.004113047492609285  0.9991340410220487  1.0000
  Sb  Sb6       1.0  0.008832475728248884  0.008628984608971813  0.9992679326946938  1.0000
  Cu  Cu4       1.0  0.00570057466224345  0.0014881682319901628  0.9997710225946551  1.0000
  Ni  Ni4       1.0  0.0057076997868108735  0.006472242242663305  0.9997699314154012  1.0000
  Sb  Sb7       1.0  0.007245193688431032  0.004120904401787614  0.9995229638124334  1.0000
  Sb  Sb8       1.0  0.008831321172544844  0.008588471614246425  0.9996697369969263  1.0000
