data_image0
_chemical_formula_structural       HNi12Sb12
_chemical_formula_sum              "H1 Ni12 Sb12"
_cell_length_a       6.563430049888848
_cell_length_b       8.67032842600036
_cell_length_c       100.6882095336914
_cell_angle_alpha    90.63711364029926
_cell_angle_beta     96.01694160196604
_cell_angle_gamma    92.98019322763467

_space_group_name_H-M_alt    "P 1"
_space_group_IT_number       1

loop_
  _space_group_symop_operation_xyz
  'x, y, z'

loop_
  _atom_site_type_symbol
  _atom_site_label
  _atom_site_symmetry_multiplicity
  _atom_site_fract_x
  _atom_site_fract_y
  _atom_site_fract_z
  _atom_site_occupancy
  H   H1        1.0  0.009456046018154004  0.0026247370823928207  8.716158920562735e-05  1.0000
  Ni  Ni1       1.0  0.0050499164736512525  5.485454876471341e-05  0.9996950866149784  1.0000
  Ni  Ni2       1.0  0.0025499165971978816  0.006721521106690626  0.99944109943914  1.0000
  Ni  Ni3       1.0  0.008799916692592067  0.0033881877504078842  0.9995680928682266  1.0000
  Ni  Ni4       1.0  0.009424916344877686  0.008388187354530582  0.9993776026991075  1.0000
  Ni  Ni5       1.0  0.005674916716235851  0.005054854428549255  0.9995045961541706  1.0000
  Ni  Ni6       1.0  0.001924916636635234  0.001721521179841867  0.9996315896058434  1.0000
  Ni  Ni7       1.0  0.0035487504618444926  0.009945145244421668  3.377091002112975e-05  1.0000
  Ni  Ni8       1.0  0.0012859774713649815  0.006721196229122051  0.9998259666326217  1.0000
  Ni  Ni9       1.0  0.007639076991379194  0.003430681736377607  0.9999343646086101  1.0000
  Ni  Ni10      1.0  0.008174916322048606  0.008388187354530582  0.9997585835459556  1.0000
  Ni  Ni11      1.0  0.004382868097507658  0.005037310609544743  0.9998810944501912  1.0000
  Ni  Ni12      1.0  0.0007120464916310665  0.0017520357895594472  0.9999932780319091  1.0000
  Sb  Sb1       1.0  0.006195750186693947  0.008110409718274158  0.999515178914659  1.0000
  Sb  Sb2       1.0  0.0024457499873251  0.004777076792292832  0.9996421726618087  1.0000
  Sb  Sb3       1.0  0.009945749962866613  0.00144374343601009  0.9993881855390584  1.0000
  Sb  Sb4       1.0  0.0014040832861338226  0.008665965851389837  0.9996210070644275  1.0000
  Sb  Sb5       1.0  0.0089040834451466  0.0053326320648056785  0.9993670199425189  1.0000
  Sb  Sb6       1.0  0.0051540832305020726  0.001999298923673644  0.999494013393372  1.0000
  Sb  Sb7       1.0  0.005134325722988374  0.007973820000608067  0.9999087464149342  1.0000
  Sb  Sb8       1.0  0.0011865780085606574  0.00470923331964447  2.519219982903259e-05  1.0000
  Sb  Sb9       1.0  0.008695749940037533  0.00144374343601009  0.9997691663859065  1.0000
  Sb  Sb10      1.0  5.424997165032506e-05  0.008671714678298675  3.975434052046297e-06  1.0000
  Sb  Sb11      1.0  0.00765408342231752  0.0053326320648056785  0.9997480004933808  1.0000
  Sb  Sb12      1.0  0.004013838949089577  0.0020703718084440752  0.9998760694581843  1.0000
