data_image0
_chemical_formula_structural       COAl6Ir3Os3Al6Ir3Os3Al6Ir3Os3Al6Ir3Os3
_chemical_formula_sum              "C1 O1 Al24 Ir12 Os12"
_cell_length_a       8.56699485215601
_cell_length_b       8.566994667053223
_cell_length_c       101.4771499633789
_cell_angle_alpha    90.0
_cell_angle_beta     90.0
_cell_angle_gamma    119.99999928526269

_space_group_name_H-M_alt    "P 1"
_space_group_IT_number       1

loop_
  _space_group_symop_operation_xyz
  'x, y, z'

loop_
  _atom_site_type_symbol
  _atom_site_label
  _atom_site_symmetry_multiplicity
  _atom_site_fract_x
  _atom_site_fract_y
  _atom_site_fract_z
  _atom_site_occupancy
  C   C1        1.0  0.004166666599718341  0.002500000044435054  8.452020940374095e-05  1.0000
  O   O1        1.0  0.004166666599718341  0.002500000044435054  0.00020277308424680504  1.0000
  Al  Al1       1.0  0.0008333333576021012  0.0008333333690216664  0.0  1.0000
  Al  Al2       1.0  0.0025000000100422488  0.004166666700677267  0.9993106897511641  1.0000
  Al  Al3       1.0  0.004166666599718341  0.002500000044435054  0.9996553447287395  1.0000
  Al  Al4       1.0  0.004166666599718341  0.002500000044435054  0.9991383624092189  1.0000
  Al  Al5       1.0  0.0008333333576021012  0.0008333333690216664  0.9994830173867943  1.0000
  Al  Al6       1.0  0.0025000000100422488  0.004166666700677267  0.9998276726580548  1.0000
  Ir  Ir1       1.0  0.0025000000100422488  0.004166666700677267  0.9995691810577669  1.0000
  Ir  Ir2       1.0  0.004166666599718341  0.002500000044435054  0.9999138363290274  1.0000
  Ir  Ir3       1.0  0.0008333333576021012  0.0008333333690216664  0.9992245260801915  1.0000
  Os  Os1       1.0  0.0008333333576021012  0.0008333333690216664  0.9997415083997121  1.0000
  Os  Os2       1.0  0.0025000000100422488  0.004166666700677267  0.9990521984445613  1.0000
  Os  Os3       1.0  0.004166666599718341  0.002500000044435054  0.9993968537158218  1.0000
  Al  Al7       1.0  0.0008333333576021012  0.005833333461425621  0.0  1.0000
  Al  Al8       1.0  0.0025000000100422488  0.009166666439771983  0.9993106897511641  1.0000
  Al  Al9       1.0  0.004166666599718341  0.007500000082483741  0.9996553447287395  1.0000
  Al  Al10      1.0  0.004166666599718341  0.007500000082483741  0.9991383624092189  1.0000
  Al  Al11      1.0  0.0008333333576021012  0.005833333461425621  0.9994830173867943  1.0000
  Al  Al12      1.0  0.0025000000100422488  0.009166666439771983  0.9998276726580548  1.0000
  Ir  Ir4       1.0  0.0025000000100422488  0.009166666439771983  0.9995691810577669  1.0000
  Ir  Ir5       1.0  0.004166666599718341  0.007500000082483741  0.9999138363290274  1.0000
  Ir  Ir6       1.0  0.0008333333576021012  0.005833333461425621  0.9992245260801915  1.0000
  Os  Os4       1.0  0.0008333333576021012  0.005833333461425621  0.9997415083997121  1.0000
  Os  Os5       1.0  0.0025000000100422488  0.009166666439771983  0.9990521984445613  1.0000
  Os  Os6       1.0  0.004166666599718341  0.007500000082483741  0.9993968537158218  1.0000
  Al  Al13      1.0  0.005833333440450654  0.0008333334593656837  0.0  1.0000
  Al  Al14      1.0  0.007499999779070526  0.004166666525400611  0.9993106897511641  1.0000
  Al  Al15      1.0  0.0091666661176904  0.0024999997979855567  0.9996553447287395  1.0000
  Al  Al16      1.0  0.0091666661176904  0.0024999997979855567  0.9991383624092189  1.0000
  Al  Al17      1.0  0.005833333440450654  0.0008333334593656837  0.9994830173867943  1.0000
  Al  Al18      1.0  0.007499999779070526  0.004166666525400611  0.9998276726580548  1.0000
  Ir  Ir7       1.0  0.007499999779070526  0.004166666525400611  0.9995691810577669  1.0000
  Ir  Ir8       1.0  0.0091666661176904  0.0024999997979855567  0.9999138363290274  1.0000
  Ir  Ir9       1.0  0.005833333440450654  0.0008333334593656837  0.9992245260801915  1.0000
  Os  Os7       1.0  0.005833333440450654  0.0008333334593656837  0.9997415083997121  1.0000
  Os  Os8       1.0  0.007499999779070526  0.004166666525400611  0.9990521984445613  1.0000
  Os  Os9       1.0  0.0091666661176904  0.0024999997979855567  0.9993968537158218  1.0000
  Al  Al19      1.0  0.005833333440450654  0.0058333334158814695  0.0  1.0000
  Al  Al20      1.0  0.007499999779070526  0.009166666672159833  0.9993106897511641  1.0000
  Al  Al21      1.0  0.0091666661176904  0.007499999754501343  0.9996553447287395  1.0000
  Al  Al22      1.0  0.0091666661176904  0.007499999754501343  0.9991383624092189  1.0000
  Al  Al23      1.0  0.005833333440450654  0.0058333334158814695  0.9994830173867943  1.0000
  Al  Al24      1.0  0.007499999779070526  0.009166666672159833  0.9998276726580548  1.0000
  Ir  Ir10      1.0  0.007499999779070526  0.009166666672159833  0.9995691810577669  1.0000
  Ir  Ir11      1.0  0.0091666661176904  0.007499999754501343  0.9999138363290274  1.0000
  Ir  Ir12      1.0  0.005833333440450654  0.0058333334158814695  0.9992245260801915  1.0000
  Os  Os10      1.0  0.005833333440450654  0.0058333334158814695  0.9997415083997121  1.0000
  Os  Os11      1.0  0.007499999779070526  0.009166666672159833  0.9990521984445613  1.0000
  Os  Os12      1.0  0.0091666661176904  0.007499999754501343  0.9993968537158218  1.0000
