data_image0
_chemical_formula_structural       COSi6W3Si6W3
_chemical_formula_sum              "C1 O1 Si12 W6"
_cell_length_a       4.624765778321152
_cell_length_b       6.66462516784668
_cell_length_c       102.37335968017578
_cell_angle_alpha    90.0
_cell_angle_beta     120.00000067689335
_cell_angle_gamma    90.0

_space_group_name_H-M_alt    "P 1"
_space_group_IT_number       1

loop_
  _space_group_symop_operation_xyz
  'x, y, z'

loop_
  _atom_site_type_symbol
  _atom_site_label
  _atom_site_symmetry_multiplicity
  _atom_site_fract_x
  _atom_site_fract_y
  _atom_site_fract_z
  _atom_site_occupancy
  C   C1        1.0  0.0009236861310023205  0.008222327897358266  0.00016347725824509524  1.0000
  O   O1        1.0  0.0009236861310023205  0.008222327897358266  0.0002806954911543628  1.0000
  Si  Si1       1.0  0.008415919206032688  0.008333627833208793  0.9992810114997789  1.0000
  Si  Si2       1.0  0.001688444353433902  0.001666961058475615  0.999354930461956  1.0000
  Si  Si3       1.0  0.006779656188198997  0.005000294306101025  0.9995849285069688  1.0000
  Si  Si4       1.0  0.001688444353433902  0.008333627833208793  0.9995849283119973  1.0000
  Si  Si5       1.0  0.008415919206032688  0.001666961058475615  0.9995110093498202  1.0000
  Si  Si6       1.0  0.003324707255002388  0.005000294306101025  0.9992810113021812  1.0000
  W   W1        1.0  5.218150273144358e-05  0.005000294306101025  0.9994329697598965  1.0000
  W   W2        1.0  0.005052181721600693  0.001666961058475615  0.9996588473264855  1.0000
  W   W3        1.0  0.005052181721600693  0.008333627833208793  0.999432969904575  1.0000
  Si  Si7       1.0  0.008415919206032688  0.008333627833208793  0.9997327663435999  1.0000
  Si  Si8       1.0  0.001688444353433902  0.001666961058475615  0.9998066850146629  1.0000
  Si  Si9       1.0  0.0064283018075671486  0.005136320605024122  5.5305382956652426e-05  1.0000
  Si  Si10      1.0  0.0024493953554517154  0.00819738521494152  5.532630796067331e-05  1.0000
  Si  Si11      1.0  0.008479732061569826  0.0016673985881052165  0.9999684881605476  1.0000
  Si  Si12      1.0  0.003324707255002388  0.005000294306101025  0.9997327661460021  1.0000
  W   W4        1.0  0.009947819320135547  0.005085688463333202  0.9998808948313019  1.0000
  W   W5        1.0  0.0047054542310801944  0.0016663724686321523  7.928708322951153e-05  1.0000
  W   W6        1.0  0.005073434071013553  0.008247270579775014  0.9998809021254403  1.0000
