data_image0
_chemical_formula_structural       HAl6Re12Al6Re12
_chemical_formula_sum              "H1 Al12 Re24"
_cell_length_a       6.729605133165982
_cell_length_b       10.133111036008167
_cell_length_c       104.04940795898438
_cell_angle_alpha    102.12313113624192
_cell_angle_beta     71.56505117707799
_cell_angle_gamma    82.36718496936084

_space_group_name_H-M_alt    "P 1"
_space_group_IT_number       1

loop_
  _space_group_symop_operation_xyz
  'x, y, z'

loop_
  _atom_site_type_symbol
  _atom_site_label
  _atom_site_symmetry_multiplicity
  _atom_site_fract_x
  _atom_site_fract_y
  _atom_site_fract_z
  _atom_site_occupancy
  H   H1        1.0  0.002303659702406661  0.005500102695595839  7.62673736936458e-05  1.0000
  Al  Al1       1.0  3.25049986158029e-05  1.9810849945128298e-05  0.9993792991753536  1.0000
  Al  Al2       1.0  0.003365838267398197  1.9810849945128298e-05  0.9995156503425566  1.0000
  Al  Al3       1.0  0.0066991720558703585  1.9810849945128298e-05  0.9992429480473103  1.0000
  Al  Al4       1.0  0.00836583899793357  0.005019810513905  0.9993111235948322  1.0000
  Al  Al5       1.0  0.0016991720045005654  0.005019810513905  0.9994474747215701  1.0000
  Al  Al6       1.0  0.0050325055012170675  0.005019810513905  0.9995838258841113  1.0000
  Re  Re1       1.0  0.008928723434450003  0.0033311572043556977  0.9994696003667141  1.0000
  Re  Re2       1.0  0.002262056441016999  0.0033311572043556977  0.999605951493452  1.0000
  Re  Re3       1.0  0.005595389937733501  0.0033311572043556977  0.9993332492041729  1.0000
  Re  Re4       1.0  0.009469621068947004  0.0017084643008646956  0.9992208224418248  1.0000
  Re  Re5       1.0  0.0028029537837583407  0.0017084643008646956  0.9993571735745299  1.0000
  Re  Re6       1.0  0.006136287572230502  0.0017084643008646956  0.9994935247311039  1.0000
  Re  Re7       1.0  0.007262056798584008  0.008331157111953686  0.9994014247583388  1.0000
  Re  Re8       1.0  0.0005953895133953441  0.008331157111953686  0.9995377758910441  1.0000
  Re  Re9       1.0  0.003928722718356187  0.008331157111953686  0.9992650736077321  1.0000
  Re  Re10      1.0  0.007802954561417136  0.006708463823454302  0.9995617002747705  1.0000
  Re  Re11      1.0  0.0011362875679841312  0.006708463823454302  0.9992889979496883  1.0000
  Re  Re12      1.0  0.004469621064700634  0.006708463823454302  0.9994253491122295  1.0000
  Al  Al7       1.0  0.00996749562063948  9.353564485066258e-05  0.9998133674500874  1.0000
  Al  Al8       1.0  0.003206893887346171  0.009980188823880583  0.9999433856362804  1.0000
  Al  Al9       1.0  0.0066991720558703585  1.9810849945128298e-05  0.9996520014991305  1.0000
  Al  Al10      1.0  0.00836583899793357  0.005019810513905  0.9997201770466524  1.0000
  Al  Al11      1.0  0.001585647250760085  0.005119887667736756  0.999885888031833  1.0000
  Al  Al12      1.0  0.004994598673016072  0.00492075709736156  0.999998489742768  1.0000
  Re  Re13      1.0  0.00893522191204729  0.0032706677674087113  0.9998767899407428  1.0000
  Re  Re14      1.0  0.0022523270199351244  0.002965034638310929  0.9999919526566384  1.0000
  Re  Re15      1.0  0.0055371767577475075  0.003349053933994705  0.9997408369530769  1.0000
  Re  Re16      1.0  0.009469621068947004  0.0017084643008646956  0.9996298758936449  1.0000
  Re  Re17      1.0  0.0028503098222255516  0.0016801546345202286  0.99975744437242  1.0000
  Re  Re18      1.0  0.00605723541619125  0.001809753076075291  0.9998959868529712  1.0000
  Re  Re19      1.0  0.007265983392684977  0.008368294250485641  0.9998132139838778  1.0000
  Re  Re20      1.0  0.0006229558591485494  0.00806684192741036  0.9999370713335002  1.0000
  Re  Re21      1.0  0.003928722718356187  0.008331157111953686  0.9996741270595524  1.0000
  Re  Re22      1.0  0.007767737461716559  0.006660792855584872  0.9999519587397293  1.0000
  Re  Re23      1.0  0.0011362875679841312  0.006708463823454302  0.9996980514015086  1.0000
  Re  Re24      1.0  0.004452502586698105  0.006775367500049035  0.9998390855371198  1.0000
