data_image0
_chemical_formula_structural       HAl6Ru12V6
_chemical_formula_sum              "H1 Al6 Ru12 V6"
_cell_length_a       6.018826961517334
_cell_length_b       7.37152725538041
_cell_length_c       102.4123764038086
_cell_angle_alpha    94.34775297418477
_cell_angle_beta     90.0
_cell_angle_gamma    114.09484323873035

_space_group_name_H-M_alt    "P 1"
_space_group_IT_number       1

loop_
  _space_group_symop_operation_xyz
  'x, y, z'

loop_
  _atom_site_type_symbol
  _atom_site_label
  _atom_site_symmetry_multiplicity
  _atom_site_fract_x
  _atom_site_fract_y
  _atom_site_fract_z
  _atom_site_occupancy
  H   H1        1.0  0.008817220476851826  0.0022181535732184103  0.0001420110979022066  1.0000
  Al  Al1       1.0  0.006977862636904615  0.0035395215739567032  0.9997640432629998  1.0000
  Al  Al2       1.0  0.0028347661003599346  0.005253976507408992  0.9995043024098546  1.0000
  Al  Al3       1.0  0.001158071137079421  0.0018995854073756363  3.074209652522599e-05  1.0000
  Al  Al4       1.0  0.009918098982998119  0.009420642914835185  0.9996361727067411  1.0000
  Al  Al5       1.0  0.005751432367253687  0.0010873096833463234  0.9993724321106945  1.0000
  Al  Al6       1.0  0.004087145829649303  0.007759277189976421  0.9999155313890676  1.0000
  Ru  Ru1       1.0  0.005033417216531346  0.004699875547684759  0.9999571233216307  1.0000
  Ru  Ru2       1.0  0.0009597662014324299  0.006503976485188381  0.9997021077727942  1.0000
  Ru  Ru3       1.0  0.006793099241684262  0.008170642937055798  0.9994383673438015  1.0000
  Ru  Ru4       1.0  0.004709765899092339  0.004003976251871953  0.9993064970453993  1.0000
  Ru  Ru5       1.0  0.0030049297147861304  0.0005793602057720227  0.999837011412325  1.0000
  Ru  Ru6       1.0  0.008876432796946549  0.0023373098000045367  0.9995702377653951  1.0000
  Ru  Ru7       1.0  0.009709765403940666  0.004003976251871953  0.9993064970453993  1.0000
  Ru  Ru8       1.0  0.007992130994402418  0.0005793569073999189  0.9998370387486213  1.0000
  Ru  Ru9       1.0  0.0038764326731586304  0.0023373098000045367  0.9995702377653951  1.0000
  Ru  Ru10      1.0  8.190078265660468e-05  0.004699279479766053  0.999957191073829  1.0000
  Ru  Ru11      1.0  0.005959766015750552  0.006503976485188381  0.9997021077727942  1.0000
  Ru  Ru12      1.0  0.0017930994273661388  0.008170642937055798  0.9994383673438015  1.0000
  V   V1        1.0  0.002004156181994154  0.0035920363797282886  0.9997704298284198  1.0000
  V   V2        1.0  0.007834765779285022  0.005253976507408992  0.9995043024098546  1.0000
  V   V3        1.0  0.006261877776188126  0.0021077362965218737  1.1501292922751368e-05  1.0000
  V   V4        1.0  0.004918099246047445  0.009420642914835185  0.9996361727067411  1.0000
  V   V5        1.0  0.0007514327270123249  0.0010873096833463234  0.9993724321106945  1.0000
  V   V6        1.0  0.009002630488489512  0.007590055007747351  0.9998927711186241  1.0000
