data_image0
_chemical_formula_structural       HAl40Rh16
_chemical_formula_sum              "H1 Al40 Rh16"
_cell_length_a       14.534662246704102
_cell_length_b       8.342080116271973
_cell_length_c       103.56636810302734
_cell_angle_alpha    90.0
_cell_angle_beta     90.0
_cell_angle_gamma    90.0

_space_group_name_H-M_alt    "P 1"
_space_group_IT_number       1

loop_
  _space_group_symop_operation_xyz
  'x, y, z'

loop_
  _atom_site_type_symbol
  _atom_site_label
  _atom_site_symmetry_multiplicity
  _atom_site_fract_x
  _atom_site_fract_y
  _atom_site_fract_z
  _atom_site_occupancy
  H   H1        1.0  0.0070460914298347745  0.005209809085484044  0.0001010373581611785  1.0000
  Al  Al1       1.0  0.005116998250342602  0.009999787077276945  0.9997864562963719  1.0000
  Al  Al2       1.0  0.00011730174681283462  2.1204998666706393e-07  0.9994012512964422  1.0000
  Al  Al3       1.0  0.005116998250342602  0.005000636178085708  0.9997864562963719  1.0000
  Al  Al4       1.0  0.00011730174681283462  0.005000211940277606  0.9994012512964422  1.0000
  Al  Al5       1.0  0.0027613482663326836  0.007500211850964383  0.999568802220035  1.0000
  Al  Al6       1.0  0.007807534881276434  0.007500211850964383  0.9999520274268929  1.0000
  Al  Al7       1.0  0.005405394962061449  0.0025002120295908284  0.9994012512964422  1.0000
  Al  Al8       1.0  0.00035190275749468625  0.0025002118063077714  0.9997813629333823  1.0000
  Al  Al9       1.0  0.007473255161935496  0.0025002120295908284  0.999568802220035  1.0000
  Al  Al10      1.0  0.0024256199174735957  0.0025002120295908284  0.9999521033956968  1.0000
  Al  Al11      1.0  0.002974586172578841  0.007500211850964383  0.99999423903237  1.0000
  Al  Al12      1.0  0.007761348409862855  0.007500211850964383  0.9996388316447326  1.0000
  Al  Al13      1.0  0.004829208466206731  0.007500211850964383  0.9994012512964422  1.0000
  Al  Al14      1.0  0.009882698203848668  0.007500211850964383  0.9997815102668202  1.0000
  Al  Al15      1.0  0.007260077487100656  0.0025002115830247145  0.9999941958682769  1.0000
  Al  Al16      1.0  0.0024732552747092026  0.0025002120295908284  0.9996388316447326  1.0000
  Al  Al17      1.0  0.004164313660371723  0.0006292416300827798  0.9999999948203089  1.0000
  Al  Al18      1.0  0.009153243014197905  0.0005802393163880189  0.9996355931867051  1.0000
  Al  Al19      1.0  0.008189184683339306  0.005580239249403102  0.9994012512964422  1.0000
  Al  Al20      1.0  0.0032043069812156895  0.005587585708541088  0.9997830589944817  1.0000
  Al  Al21      1.0  0.006070661408519478  0.005629003822463033  0.0  1.0000
  Al  Al22      1.0  0.0010813602859183352  0.005580239249403102  0.9996355931867051  1.0000
  Al  Al23      1.0  0.00415324338327549  0.0005802393163880189  0.9995720403903018  1.0000
  Al  Al24      1.0  0.00917458390029118  0.00039621902206593915  0.9999489466616858  1.0000
  Al  Al25      1.0  0.002045418744928874  0.0005802393163880189  0.9994012512964422  1.0000
  Al  Al26      1.0  0.00702956905664688  0.0005883352251064756  0.9997830572679179  1.0000
  Al  Al27      1.0  0.006081360044992689  0.009420184452525664  0.9995720403903018  1.0000
  Al  Al28      1.0  0.0010587971507071067  0.009604788632041526  0.9999489017710289  1.0000
  Al  Al29      1.0  0.008189184683339306  0.009420184452525664  0.9994012512964422  1.0000
  Al  Al30      1.0  0.0032043069812156895  0.009412837546821564  0.9997830589944817  1.0000
  Al  Al31      1.0  0.006081360044992689  0.005580239249403102  0.9995720403903018  1.0000
  Al  Al32      1.0  0.0010587976633148624  0.0053956346233211255  0.9999489017710289  1.0000
  Al  Al33      1.0  0.006070661408519478  0.009371420326031846  0.0  1.0000
  Al  Al34      1.0  0.0010813602859183352  0.009420184452525664  0.9996355931867051  1.0000
  Al  Al35      1.0  0.00415324338327549  0.0044201846311521095  0.9995720403903018  1.0000
  Al  Al36      1.0  0.009174584925506692  0.004604204702191132  0.9999489466616858  1.0000
  Al  Al37      1.0  0.004164313660371723  0.004371182484919641  0.9999999948203089  1.0000
  Al  Al38      1.0  0.009153243014197905  0.0044201846311521095  0.9996355931867051  1.0000
  Al  Al39      1.0  0.002045418744928874  0.0044201846311521095  0.9994012512964422  1.0000
  Al  Al40      1.0  0.00702956905664688  0.004412088387509067  0.9997830572679179  1.0000
  Rh  Rh1       1.0  0.0034506349996240326  0.0025002120295908284  0.9994012512964422  1.0000
  Rh  Rh2       1.0  0.008449095782063262  0.0025002122528738854  0.9998094218960031  1.0000
  Rh  Rh3       1.0  0.006783968428644147  0.007500211850964383  0.9994012512964422  1.0000
  Rh  Rh4       1.0  0.001784466924308519  0.007500211850964383  0.9998095755601746  1.0000
  Rh  Rh5       1.0  0.004640077221200761  0.007500212744096611  0.9999377832761593  1.0000
  Rh  Rh6       1.0  0.009468550095277788  0.007500211850964383  0.999558949296376  1.0000
  Rh  Rh7       1.0  0.008819796795068047  0.0025002120295908284  0.9994012512964422  1.0000
  Rh  Rh8       1.0  0.003753129449845407  0.0025002120295908284  0.9997901298484579  1.0000
  Rh  Rh9       1.0  0.00559501267182776  0.002500212699439999  0.9999376428489763  1.0000
  Rh  Rh10      1.0  0.0007660539737500867  0.0025002120295908284  0.999558949296376  1.0000
  Rh  Rh11      1.0  0.00446854943913986  0.007500211850964383  0.9996486845683915  1.0000
  Rh  Rh12      1.0  0.009489282003357063  0.007500211850964383  0.9999977830921767  1.0000
  Rh  Rh13      1.0  0.001414806120592377  0.007500211850964383  0.9994012512964422  1.0000
  Rh  Rh14      1.0  0.0064801130048308805  0.007500211850964383  0.999790198911007  1.0000
  Rh  Rh15      1.0  0.005766053989128319  0.0025002120295908284  0.9996486845683915  1.0000
  Rh  Rh16      1.0  0.0007423691246170286  0.002500212476156942  0.9999977019436816  1.0000
