data_image0
_chemical_formula_structural       HZn3Pt9Zn3Pt9Zn3Pt9Zn3Pt9
_chemical_formula_sum              "H1 Zn12 Pt36"
_cell_length_a       8.84107844866047
_cell_length_b       7.907701015472412
_cell_length_c       103.5495376586914
_cell_angle_alpha    90.0
_cell_angle_beta     108.43494882292202
_cell_angle_gamma    90.0

_space_group_name_H-M_alt    "P 1"
_space_group_IT_number       1

loop_
  _space_group_symop_operation_xyz
  'x, y, z'

loop_
  _atom_site_type_symbol
  _atom_site_label
  _atom_site_symmetry_multiplicity
  _atom_site_fract_x
  _atom_site_fract_y
  _atom_site_fract_z
  _atom_site_occupancy
  H   H1        1.0  0.0064657885122917395  0.0037500000094219305  0.0001392135867929471  1.0000
  Zn  Zn1       1.0  0.0075205726468875  0.0012500000423986855  0.9999175289836626  1.0000
  Zn  Zn2       1.0  0.004282724740668047  0.0012500001601728112  0.00011563178832108611  1.0000
  Zn  Zn3       1.0  0.0008605044371024715  0.0012500000423986855  0.9997397360736158  1.0000
  Pt  Pt1       1.0  0.007477988933585709  0.0012500000423986855  0.00017248292212334134  1.0000
  Pt  Pt2       1.0  0.0041938379680843555  0.0012500000423986855  0.9998297346937928  1.0000
  Pt  Pt3       1.0  0.0008061623006288426  0.0012500000423986855  8.537843761849994e-06  1.0000
  Pt  Pt4       1.0  0.009155890992061341  0.0037500000094219305  9.865346663773554e-05  1.0000
  Pt  Pt5       1.0  0.00586050470581567  0.0037500000094219305  0.9997397362190185  1.0000
  Pt  Pt6       1.0  0.002525435920495829  0.0037500000094219305  0.9999145719785643  1.0000
  Pt  Pt7       1.0  0.005812756813422555  0.0037500000094219305  1.1183691594440092e-05  1.0000
  Pt  Pt8       1.0  0.002520712120140983  0.0037500000094219305  0.00017036680028489405  1.0000
  Pt  Pt9       1.0  0.009193837737124252  0.0037500000094219305  0.9998297348257045  1.0000
  Zn  Zn4       1.0  0.007527170999392938  0.0012500000423986855  0.9993797415884107  1.0000
  Zn  Zn5       1.0  0.0041938379680843555  0.0012500000423986855  0.9995597388377587  1.0000
  Zn  Zn6       1.0  0.0008605044371024715  0.0012500000423986855  0.9991997443615477  1.0000
  Pt  Pt10      1.0  0.007527170999392938  0.0012500000423986855  0.9996497374444447  1.0000
  Pt  Pt11      1.0  0.0041938379680843555  0.0012500000423986855  0.9992897429817247  1.0000
  Pt  Pt12      1.0  0.0008605044371024715  0.0012500000423986855  0.9994697402175817  1.0000
  Pt  Pt13      1.0  0.009193837737124252  0.0037500000094219305  0.9995597389696704  1.0000
  Pt  Pt14      1.0  0.00586050470581567  0.0037500000094219305  0.9991997445069504  1.0000
  Pt  Pt15      1.0  0.0025271710082760183  0.0037500000094219305  0.9993797417383103  1.0000
  Pt  Pt16      1.0  0.00586050470581567  0.0037500000094219305  0.9994697403629844  1.0000
  Pt  Pt17      1.0  0.0025271710082760183  0.0037500000094219305  0.9996497375943444  1.0000
  Pt  Pt18      1.0  0.009193837737124252  0.0037500000094219305  0.9992897431136364  1.0000
  Zn  Zn7       1.0  0.0075205726468875  0.006250000094219301  0.9999175289836626  1.0000
  Zn  Zn8       1.0  0.004282724740668047  0.006250000094219301  0.00011563178832108611  1.0000
  Zn  Zn9       1.0  0.0008605044371024715  0.006250000094219301  0.9997397360736158  1.0000
  Pt  Pt19      1.0  0.007477988933585709  0.006250000094219301  0.00017248292212334134  1.0000
  Pt  Pt20      1.0  0.0041938379680843555  0.006250000094219301  0.9998297346937928  1.0000
  Pt  Pt21      1.0  0.0008061623006288426  0.006250000094219301  8.537843761849994e-06  1.0000
  Pt  Pt22      1.0  0.009155890992061341  0.008750000414564923  9.865346663773554e-05  1.0000
  Pt  Pt23      1.0  0.00586050470581567  0.008750000414564923  0.9997397362190185  1.0000
  Pt  Pt24      1.0  0.002525435920495829  0.008750000414564923  0.9999145719785643  1.0000
  Pt  Pt25      1.0  0.005812756813422555  0.008750000414564923  1.1183691594440092e-05  1.0000
  Pt  Pt26      1.0  0.002520712120140983  0.008750000414564923  0.00017036680028489405  1.0000
  Pt  Pt27      1.0  0.009193837737124252  0.008750000414564923  0.9998297348257045  1.0000
  Zn  Zn10      1.0  0.007527170999392938  0.006250000094219301  0.9993797415884107  1.0000
  Zn  Zn11      1.0  0.0041938379680843555  0.006250000094219301  0.9995597388377587  1.0000
  Zn  Zn12      1.0  0.0008605044371024715  0.006250000094219301  0.9991997443615477  1.0000
  Pt  Pt28      1.0  0.007527170999392938  0.006250000094219301  0.9996497374444447  1.0000
  Pt  Pt29      1.0  0.0041938379680843555  0.006250000094219301  0.9992897429817247  1.0000
  Pt  Pt30      1.0  0.0008605044371024715  0.006250000094219301  0.9994697402175817  1.0000
  Pt  Pt31      1.0  0.009193837737124252  0.008750000414564923  0.9995597389696704  1.0000
  Pt  Pt32      1.0  0.00586050470581567  0.008750000414564923  0.9991997445069504  1.0000
  Pt  Pt33      1.0  0.0025271710082760183  0.008750000414564923  0.9993797417383103  1.0000
  Pt  Pt34      1.0  0.00586050470581567  0.008750000414564923  0.9994697403629844  1.0000
  Pt  Pt35      1.0  0.0025271710082760183  0.008750000414564923  0.9996497375943444  1.0000
  Pt  Pt36      1.0  0.009193837737124252  0.008750000414564923  0.9992897431136364  1.0000
