data_image0
_chemical_formula_structural       CONa24Si24
_chemical_formula_sum              "C1 O1 Na24 Si24"
_cell_length_a       13.669394812600553
_cell_length_b       6.955111671530167
_cell_length_c       108.72075653076172
_cell_angle_alpha    93.4247226252794
_cell_angle_beta     97.0148176117675
_cell_angle_gamma    77.85988946063503

_space_group_name_H-M_alt    "P 1"
_space_group_IT_number       1

loop_
  _space_group_symop_operation_xyz
  'x, y, z'

loop_
  _atom_site_type_symbol
  _atom_site_label
  _atom_site_symmetry_multiplicity
  _atom_site_fract_x
  _atom_site_fract_y
  _atom_site_fract_z
  _atom_site_occupancy
  C   C1        1.0  0.006134660371130728  0.007557686993318359  0.00021450071309399662  1.0000
  O   O1        1.0  0.006134660371130728  0.007557686993318359  0.0003248754446688248  1.0000
  Na  Na1       1.0  2.902419948657453e-05  0.00639149845131062  0.999573259739153  1.0000
  Na  Na2       1.0  0.003038966914790002  0.0008267065497917503  0.9999384802776299  1.0000
  Na  Na3       1.0  0.006695691163579417  0.001947054047553172  0.999177538635205  1.0000
  Na  Na4       1.0  0.008915404370200553  0.0021372688132332593  0.9989613455415439  1.0000
  Na  Na5       1.0  0.0022487378400612083  0.0065817130432293675  0.9993570666514912  1.0000
  Na  Na6       1.0  0.005582071455800374  0.00102615751529687  0.9997527871094612  1.0000
  Na  Na7       1.0  0.006621615739775865  0.007626916809377641  0.9992826169589532  1.0000
  Na  Na8       1.0  0.009954949215247233  0.0020713608010331274  0.9996783376870516  1.0000
  Na  Na9       1.0  0.0029616294230902646  0.006774815855917345  7.136539331430562e-05  1.0000
  Na  Na10      1.0  0.0077784160473757386  0.0015271238121352384  0.999952077830205  1.0000
  Na  Na11      1.0  0.0010685687070138676  0.0029922578383142556  0.9991030892223732  1.0000
  Na  Na12      1.0  0.00440190197208354  0.007436702268358681  0.9994988097707396  1.0000
  Na  Na13      1.0  0.008485498720111334  0.0075687726002914455  0.9990217523871224  1.0000
  Na  Na14      1.0  0.0018188320497041926  0.002013217068889116  0.9994174731257682  1.0000
  Na  Na15      1.0  0.0051521652446399665  0.006457661527016182  0.9998131939472831  1.0000
  Na  Na16      1.0  0.008757583460641136  0.0037955722447792477  0.9993108754565079  1.0000
  Na  Na17      1.0  0.002090916649966196  0.008240016587105919  0.9997065962884587  1.0000
  Na  Na18      1.0  0.005147089794659077  0.0027985539311297957  6.1021226085493484e-05  1.0000
  Na  Na19      1.0  0.008317926393277114  0.006080025432448538  0.9998641641955441  1.0000
  Na  Na20      1.0  0.001498474567504782  0.007560753784571867  0.9990426824749477  1.0000
  Na  Na21      1.0  0.004831807622172758  0.0020051982130118453  0.9994384034723719  1.0000
  Na  Na22      1.0  0.007893056357114325  0.0002228430967568263  0.9995450011331355  1.0000
  Na  Na23      1.0  0.000915413875868646  0.004996189752135655  0.9999256679075514  1.0000
  Na  Na24      1.0  0.004559723162178553  0.00577839818790483  0.9991492801317214  1.0000
  Si  Si1       1.0  0.0064007741920610785  0.008811717297300646  1.0177247250736474e-05  1.0000
  Si  Si2       1.0  0.009970975652706235  3.528065823715434e-05  0.9991986394390743  1.0000
  Si  Si3       1.0  0.003304308982299093  0.004479725212687193  0.9995943602739896  1.0000
  Si  Si4       1.0  0.008599143689559616  0.009117334546348525  0.9992915291197404  1.0000
  Si  Si5       1.0  0.0019324771594202723  0.0035617794953582134  0.999687249862376  1.0000
  Si  Si6       1.0  0.00504308627253244  0.007974080983139283  9.135812427303507e-05  1.0000
  Si  Si7       1.0  0.009805803027349824  0.008774373821489805  4.493964584352207e-05  1.0000
  Si  Si8       1.0  0.0033463306895778577  0.009538690155066136  0.999261516146302  1.0000
  Si  Si9       1.0  0.006679664165049226  0.003983134146721622  0.9996572366002824  1.0000
  Si  Si10      1.0  0.008051496128195845  0.004901080076173969  0.9995643470148604  1.0000
  Si  Si11      1.0  0.0012391990822329636  0.00931825603905275  0.9999485631976894  1.0000
  Si  Si12      1.0  0.004718162652724476  0.000456635998666116  0.9991686264646106  1.0000
  Si  Si13      1.0  0.006796369777836636  0.005164807088594071  0.9990242339136459  1.0000
  Si  Si14      1.0  0.00012970280059368785  0.009609250961039716  0.9994199544671254  1.0000
  Si  Si15      1.0  0.003463036021829673  0.00405369612764937  0.9998156754699282  1.0000
  Si  Si16      1.0  0.00013820640430961385  0.006713714745909863  0.9992717693359574  1.0000
  Si  Si17      1.0  0.003471539616778862  0.0011581591111639005  0.9996674897873272  1.0000
  Si  Si18      1.0  0.006520808640216233  0.005618902978914983  6.013041695075798e-05  1.0000
  Si  Si19      1.0  0.009735635464381658  0.00885432691829305  0.999814666820652  1.0000
  Si  Si20      1.0  0.0031876036500472775  0.009964718703526661  0.9990402009483128  1.0000
  Si  Si21      1.0  0.006520937125518646  0.004409163768336743  0.9994359219546304  1.0000
  Si  Si22      1.0  0.006512433530569457  0.007304699979956265  0.9995841070859195  1.0000
  Si  Si23      1.0  0.009790721433774066  0.001860322855857287  0.9999518824541898  1.0000
  Si  Si24      1.0  0.0031791000550980887  0.0028602559024484124  0.9991883865356697  1.0000
