data_image0
_chemical_formula_structural       COCa24In12
_chemical_formula_sum              "C1 O1 Ca24 In12"
_cell_length_a       10.161721229553223
_cell_length_b       13.188208736185928
_cell_length_c       106.71394348144531
_cell_angle_alpha    92.5756217490444
_cell_angle_beta     90.0
_cell_angle_gamma    90.0

_space_group_name_H-M_alt    "P 1"
_space_group_IT_number       1

loop_
  _space_group_symop_operation_xyz
  'x, y, z'

loop_
  _atom_site_type_symbol
  _atom_site_label
  _atom_site_symmetry_multiplicity
  _atom_site_fract_x
  _atom_site_fract_y
  _atom_site_fract_z
  _atom_site_occupancy
  C   C1        1.0  0.006177535873572088  0.004491228572272383  0.00015087189134788538  1.0000
  O   O1        1.0  0.006177535873572088  0.004491228572272383  0.0002633217205132443  1.0000
  Ca  Ca1       1.0  0.00294827716089599  0.004310259893253421  0.9993242736111448  1.0000
  Ca  Ca2       1.0  0.00294827716089599  0.0009769264081738668  0.999610974179444  1.0000
  Ca  Ca3       1.0  0.0031404006596647293  0.0076051797885307495  0.9999063422012013  1.0000
  Ca  Ca4       1.0  0.006984979686705357  0.002414067860505952  0.9994281408785695  1.0000
  Ca  Ca5       1.0  0.006984979686705357  0.00908073440652966  0.9997148416313616  1.0000
  Ca  Ca6       1.0  0.0068382772349199275  0.00577927010201834  4.327320135391615e-06  1.0000
  Ca  Ca7       1.0  0.00179281947658014  0.002605179596256034  0.9999063432250653  1.0000
  Ca  Ca8       1.0  0.0019849798186814737  0.009310260085528137  0.9993242737043727  1.0000
  Ca  Ca9       1.0  0.0019849798186814737  0.005976926247002415  0.999610974270709  1.0000
  Ca  Ca10      1.0  0.007948277028919874  0.0040807344970118795  0.9997148415397039  1.0000
  Ca  Ca11      1.0  0.008094930356261843  0.0007792585287770373  4.327722247660503e-06  1.0000
  Ca  Ca12      1.0  0.007948277028919874  0.007414067770023733  0.999428140970227  1.0000
  Ca  Ca13      1.0  0.009317964028261141  0.004774133670757211  0.9994040693407555  1.0000
  Ca  Ca14      1.0  0.009317964028261141  0.001440800397745357  0.9996907699102325  1.0000
  Ca  Ca15      1.0  0.009416429209371791  0.008085098042732074  0.9999724739582666  1.0000
  Ca  Ca16      1.0  0.0006152926360400426  0.0019501939416236955  0.9993483451481735  1.0000
  Ca  Ca17      1.0  0.0006152926360400426  0.008616860911782804  0.9996350459033212  1.0000
  Ca  Ca18      1.0  0.0005835708474512584  0.005213543035587236  0.9999184754268642  1.0000
  Ca  Ca19      1.0  0.0055167941456239255  0.003085030837064036  0.9999724723757784  1.0000
  Ca  Ca20      1.0  0.0056152926873640875  0.009774133580274992  0.9994040694324131  1.0000
  Ca  Ca21      1.0  0.0056152926873640875  0.0064408003072631385  0.9996907700018901  1.0000
  Ca  Ca22      1.0  0.004317964160237259  0.0036168607195080893  0.9996350458100932  1.0000
  Ca  Ca23      1.0  0.004349777003181598  0.0002135243050610451  0.9999184668524916  1.0000
  Ca  Ca24      1.0  0.004317964160237259  0.00695019370976301  0.9993483452390459  1.0000
  In  In1       1.0  0.006095691984566044  0.004942698085845042  0.9994330659995456  1.0000
  In  In2       1.0  0.006095691984566044  0.0016093646714547202  0.9997197662889644  1.0000
  In  In3       1.0  0.006272074765209209  0.008265214775109341  0.9999928714469667  1.0000
  In  In4       1.0  0.0038375652296356276  0.001781629667914332  0.9993193487694416  1.0000
  In  In5       1.0  0.0038375652296356276  0.008448296496694974  0.999606049523804  1.0000
  In  In6       1.0  0.003760667512205386  0.005057261581705914  0.9998907967298767  1.0000
  In  In7       1.0  0.008661294130115264  0.0032651894174675128  0.9999928807092611  1.0000
  In  In8       1.0  0.008837565097659511  0.00994269856087669  0.9994330658150709  1.0000
  In  In9       1.0  0.008837565097659511  0.0066093647223509685  0.9997197663814072  1.0000
  In  In10      1.0  0.0010956917499418367  0.0034482963044202594  0.9996060494305761  1.0000
  In  In11      1.0  0.001172707237726268  5.730200039582352e-05  0.9998907974207334  1.0000
  In  In12      1.0  0.0010956917499418367  0.0067816298601890476  0.9993193485833964  1.0000
