data_image0
_chemical_formula_structural       Co12Si12H
_chemical_formula_sum              "Co12 Si12 H1"
_cell_length_a       6.300238609313965
_cell_length_b       6.300238660117389
_cell_length_c       39.13526153564453
_cell_angle_alpha    90.0
_cell_angle_beta     90.0
_cell_angle_gamma    60.00000026674604

_space_group_name_H-M_alt    "P 1"
_space_group_IT_number       1

loop_
  _space_group_symop_operation_xyz
  'x, y, z'

loop_
  _atom_site_type_symbol
  _atom_site_label
  _atom_site_symmetry_multiplicity
  _atom_site_fract_x
  _atom_site_fract_y
  _atom_site_fract_z
  _atom_site_occupancy
  Co  Co1       1.0  0.006934722005566574  0.004243008409132481  0.9984817011902097  1.0000
  Co  Co2       1.0  0.00026805565770820713  0.007576341838053186  0.9991389250110438  1.0000
  Co  Co3       1.0  0.0037083625034199613  0.0008491073219566663  0.9997813368682202  1.0000
  Co  Co4       1.0  0.004032717936797111  0.009243008723205276  0.9984817011902097  1.0000
  Co  Co5       1.0  0.007366051451063685  0.002576341694672128  0.9991389250110438  1.0000
  Co  Co6       1.0  0.0006394114807911749  0.005862185780820144  0.9997815150641276  1.0000
  Co  Co7       1.0  0.00903271859185434  0.007145012696624863  0.9984817011902097  1.0000
  Co  Co8       1.0  0.0023660516140649  0.0004783457534375841  0.9991389250110438  1.0000
  Co  Co9       1.0  0.005653229056388103  0.003917579834682568  0.999781346006472  1.0000
  Co  Co10      1.0  0.006665869061170683  0.006877295680953952  0.9993991119776015  1.0000
  Co  Co11      1.0  0.009999947632618205  0.00021074685644812966  1.256776135448482e-05  1.0000
  Co  Co12      1.0  0.0033333859026259006  0.003543676514066834  0.9987574715411693  1.0000
  Si  Si1       1.0  0.006242663047184463  0.009589037741914707  0.9989405061527726  1.0000
  Si  Si2       1.0  0.009578759861194103  0.002959230398973608  0.9996115489139176  1.0000
  Si  Si3       1.0  0.0029093302532018283  0.006255704654377473  0.9982832823319385  1.0000
  Si  Si4       1.0  0.009378748226116358  0.004589037769225385  0.9989405061527726  1.0000
  Si  Si5       1.0  0.0027492295395917625  0.007883279718103117  0.9996114476316283  1.0000
  Si  Si6       1.0  0.006045414292219606  0.0012557045963422831  0.9982832823319385  1.0000
  Si  Si7       1.0  0.004378747772992413  0.006452953293672112  0.9989405061527726  1.0000
  Si  Si8       1.0  0.007671890122394583  0.009789657201615988  0.999611457531401  1.0000
  Si  Si9       1.0  0.0010454143877162531  0.0031196202061348783  0.9982832823319385  1.0000
  Si  Si10      1.0  0.006667372888309723  0.006876719425652513  0.0  1.0000
  Si  Si11      1.0  5.280176755711009e-08  0.00021034304247319468  0.9986955042951489  1.0000
  Si  Si12      1.0  0.003333191120194578  0.0035437905361466217  0.9993503639741267  1.0000
  H   H1        1.0  0.0032287961261705037  0.009366193535392147  7.967832001699178e-05  1.0000
