data_image0
_chemical_formula_structural       Sb8V10Sb8V10H
_chemical_formula_sum              "Sb16 V20 H1"
_cell_length_a       6.920693874359131
_cell_length_b       7.236580719898248
_cell_length_c       27.839763641357422
_cell_angle_alpha    90.0
_cell_angle_beta     90.0
_cell_angle_gamma    103.83266956017502

_space_group_name_H-M_alt    "P 1"
_space_group_IT_number       1

loop_
  _space_group_symop_operation_xyz
  'x, y, z'

loop_
  _atom_site_type_symbol
  _atom_site_label
  _atom_site_symmetry_multiplicity
  _atom_site_fract_x
  _atom_site_fract_y
  _atom_site_fract_z
  _atom_site_occupancy
  Sb  Sb1       1.0  0.0008169935435350961  0.0033052094266680715  0.00016474379822108086  1.0000
  Sb  Sb2       1.0  0.003467329646727956  0.0038693186730370662  0.9976117041419208  1.0000
  Sb  Sb3       1.0  0.002017151659516119  0.00806860678806447  0.9972935710162658  1.0000
  Sb  Sb4       1.0  0.004429847675634635  0.007741816725604809  0.9998426650963336  1.0000
  Sb  Sb5       1.0  0.0031633523975684577  0.0026566189182991853  0.9990661613491564  1.0000
  Sb  Sb6       1.0  0.0006522195437653219  0.0026088781250612867  0.9965518112485231  1.0000
  Sb  Sb7       1.0  0.004202041604761071  0.006808166505169525  0.9962336783904917  1.0000
  Sb  Sb8       1.0  0.0017020416137923811  0.006808166505169525  0.998757660268145  1.0000
  V   V1        1.0  0.002584685642643416  0.00033874265669890907  0.998184682205033  1.0000
  V   V2        1.0  8.468565167472702e-05  0.00033874265669890907  0.9956607003273796  1.0000
  V   V3        1.0  0.0018444532437733305  0.007377813025093323  0.9954897045718658  1.0000
  V   V4        1.0  0.00434445323474202  0.007377813025093323  0.9980136861818955  1.0000
  V   V5        1.0  0.0024153142565410336  0.009661256976164134  0.9964080336263315  1.0000
  V   V6        1.0  0.004915314222509723  0.009661256976164134  0.9989320155039848  1.0000
  V   V7        1.0  0.002669809322174402  0.0007062419450416939  0.9998533390000476  1.0000
  V   V8        1.0  0.00025405694674040293  0.0010162279369616228  0.997437348906081  1.0000
  V   V9        1.0  0.0033249180167470066  0.0032996721531132686  0.995831696350517  1.0000
  V   V10       1.0  0.0008249180257783169  0.0032996721531132686  0.9983556782281704  1.0000
  Sb  Sb9       1.0  0.005816993789589199  0.0033052094266680715  0.00016474379822108086  1.0000
  Sb  Sb10      1.0  0.008467329603665334  0.0038693186730370662  0.9976117041419208  1.0000
  Sb  Sb11      1.0  0.007017151653953496  0.00806860678806447  0.9972935710162658  1.0000
  Sb  Sb12      1.0  0.0094298479017134  0.007741816725604809  0.9998426650963336  1.0000
  Sb  Sb13      1.0  0.008163352623647223  0.0026566189182991853  0.9990661613491564  1.0000
  Sb  Sb14      1.0  0.0056522194882027  0.0026088781250612867  0.9965518112485231  1.0000
  Sb  Sb15      1.0  0.009202041561698448  0.006808166505169525  0.9962336783904917  1.0000
  Sb  Sb16      1.0  0.00670204158322976  0.006808166505169525  0.998757660268145  1.0000
  V   V11       1.0  0.007584685599580795  0.00033874265669890907  0.998184682205033  1.0000
  V   V12       1.0  0.005084685621112106  0.00033874265669890907  0.9956607003273796  1.0000
  V   V13       1.0  0.006844453213210708  0.007377813025093323  0.9954897045718658  1.0000
  V   V14       1.0  0.009344453191679397  0.007377813025093323  0.9980136861818955  1.0000
  V   V15       1.0  0.007415314200978412  0.009661256976164134  0.9964080336263315  1.0000
  V   V16       1.0  0.009915314179447101  0.009661256976164134  0.9989320155039848  1.0000
  V   V17       1.0  0.007669809279111781  0.0007062419450416939  0.9998533390000476  1.0000
  V   V18       1.0  0.005254056941177784  0.0010162279369616228  0.997437348906081  1.0000
  V   V19       1.0  0.008324917973684384  0.0032996721531132686  0.995831696350517  1.0000
  V   V20       1.0  0.005824917995215695  0.0032996721531132686  0.9983556782281704  1.0000
  H   H1        1.0  0.0012595174955322898  0.005056687833378381  0.0  1.0000
