data_image0
_chemical_formula_structural       HPd10Sn14
_chemical_formula_sum              "H1 Pd10 Sn14"
_cell_length_a       7.054892598585622
_cell_length_b       9.806412981756292
_cell_length_c       99.4884262084961
_cell_angle_alpha    94.76974914041264
_cell_angle_beta     95.11422412657792
_cell_angle_gamma    110.33827058994407

_space_group_name_H-M_alt    "P 1"
_space_group_IT_number       1

loop_
  _space_group_symop_operation_xyz
  'x, y, z'

loop_
  _atom_site_type_symbol
  _atom_site_label
  _atom_site_symmetry_multiplicity
  _atom_site_fract_x
  _atom_site_fract_y
  _atom_site_fract_z
  _atom_site_occupancy
  H   H1        1.0  0.00666686890833964  0.009826768533477404  0.00017668124339524893  1.0000
  Pd  Pd1       1.0  0.0025801788248757964  0.007143100197085723  0.9995986237335235  1.0000
  Pd  Pd2       1.0  0.00882404178723997  0.003203362654319375  0.9992849829819266  1.0000
  Pd  Pd3       1.0  0.0028406537201223466  0.001974792485571256  0.9996016823985785  1.0000
  Pd  Pd4       1.0  0.00858161257260942  0.008371670161733602  0.9992765756879465  1.0000
  Pd  Pd5       1.0  0.004977960754376654  0.005173231221602309  0.9996564416163534  1.0000
  Pd  Pd6       1.0  0.001151607222868248  0.007143100197085723  2.2053013321376805e-05  1.0000
  Pd  Pd7       1.0  0.007395470052693903  0.003203362654319375  0.9997084125604423  1.0000
  Pd  Pd8       1.0  0.0014120822506533176  0.001974792485571256  2.5111679214095395e-05  1.0000
  Pd  Pd9       1.0  0.007153041103140393  0.008371670161733602  0.9997000049685821  1.0000
  Pd  Pd10      1.0  0.0035493892849076257  0.005173231221602309  7.98708969889929e-05  1.0000
  Sn  Sn1       1.0  0.00041907759538390663  0.008979280658011336  0.9995454641078909  1.0000
  Sn  Sn2       1.0  0.0010094937873012968  0.0013671824995441218  0.9993309252134648  1.0000
  Sn  Sn3       1.0  0.000762904409122826  0.004006001543063126  0.9995566772919249  1.0000
  Sn  Sn4       1.0  0.0006445265918568813  0.006340460900141493  0.9993259777992543  1.0000
  Sn  Sn5       1.0  0.0058363637846902  0.0034274377765313334  0.9994460418959379  1.0000
  Sn  Sn6       1.0  0.0055604790707346335  0.006919025074873765  0.99943975167048  1.0000
  Sn  Sn7       1.0  0.00616884567377695  0.00017323144356131995  0.9993034626204443  1.0000
  Sn  Sn8       1.0  0.00899050641219808  0.008979280658011336  0.9999688935461052  1.0000
  Sn  Sn9       1.0  0.00958092286919251  0.0013671824995441218  0.9997543543537989  1.0000
  Sn  Sn10      1.0  0.009334333093398478  0.004006001543063126  0.9999801064297457  1.0000
  Sn  Sn11      1.0  0.009215955408671053  0.006340460900141493  0.9997494072374685  1.0000
  Sn  Sn12      1.0  0.004407792315221171  0.0034274377765313334  0.9998694711765735  1.0000
  Sn  Sn13      1.0  0.004131907601265605  0.006919025074873765  0.9998631809511157  1.0000
  Sn  Sn14      1.0  0.004740274469384961  0.00017323144356131995  0.9997268922023113  1.0000
