data_image0
_chemical_formula_structural       COV4Rh4V4Rh4V4Rh4
_chemical_formula_sum              "C1 O1 V12 Rh12"
_cell_length_a       5.84687614440918
_cell_length_b       7.280335131416243
_cell_length_c       100.85198974609375
_cell_angle_alpha    67.34093254924872
_cell_angle_beta     90.0
_cell_angle_gamma    90.0

_space_group_name_H-M_alt    "P 1"
_space_group_IT_number       1

loop_
  _space_group_symop_operation_xyz
  'x, y, z'

loop_
  _atom_site_type_symbol
  _atom_site_label
  _atom_site_symmetry_multiplicity
  _atom_site_fract_x
  _atom_site_fract_y
  _atom_site_fract_z
  _atom_site_occupancy
  C   C1        1.0  0.003500613552444391  0.0040407565748126146  0.999839535274711  1.0000
  O   O1        1.0  0.003500613552444391  0.0040407565748126146  0.9999585211741887  1.0000
  V   V1        1.0  0.00703646997689081  0.0010529237239592225  0.9992754683581521  1.0000
  V   V2        1.0  0.0029635503224529737  0.0010529237239592225  0.9992754683581521  1.0000
  V   V3        1.0  0.002036470180776246  0.006052923676827457  0.9991364167468328  1.0000
  V   V4        1.0  0.007963550437138532  0.006052923676827457  0.9991364167468328  1.0000
  Rh  Rh1       1.0  0.005000010308957389  0.008194672084097587  0.9992159056454871  1.0000
  Rh  Rh2       1.0  0.005000010308957389  0.003911174992311645  0.9990569278558888  1.0000
  Rh  Rh3       1.0  1.0249999636991463e-08  0.003194672339163614  0.9990768540257636  1.0000
  Rh  Rh4       1.0  1.0249999636991463e-08  0.008911174737245618  0.9991959794756123  1.0000
  V   V5        1.0  0.007072400962241396  0.0010756627910707053  0.9995577240284376  1.0000
  V   V6        1.0  0.0029276285756612334  0.001075658216516937  0.9995577277017239  1.0000
  V   V7        1.0  0.002036470180776246  0.006052923676827457  0.9994145199720929  1.0000
  V   V8        1.0  0.007963550437138532  0.006052923676827457  0.9994145199720929  1.0000
  Rh  Rh5       1.0  0.005000010308957389  0.008194672084097587  0.9994940085752416  1.0000
  Rh  Rh6       1.0  0.005000010308957389  0.003911174992311645  0.9993350310811489  1.0000
  Rh  Rh7       1.0  1.0249999636991463e-08  0.003194672339163614  0.9993549572510236  1.0000
  Rh  Rh8       1.0  1.0249999636991463e-08  0.008911174737245618  0.9994740824053668  1.0000
  V   V9        1.0  0.0071193965553800155  0.0010794503136566914  0.9998105300735982  1.0000
  V   V10       1.0  0.002880607815414033  0.0010794333323586116  0.9998105305458536  1.0000
  V   V11       1.0  0.0020012355916200803  0.006175003822885273  0.9996877275319498  1.0000
  V   V12       1.0  0.00799877228345491  0.006175014912712591  0.9996877289965714  1.0000
  Rh  Rh9       1.0  0.004999982274709855  0.00843170272623088  0.9997655116277401  1.0000
  Rh  Rh10      1.0  0.0049999915132687015  0.0038928986796469343  0.9996191292280484  1.0000
  Rh  Rh11      1.0  2.0349999516417568e-08  0.0033124704256485104  0.9996355630844757  1.0000
  Rh  Rh12      1.0  0.009999990035099287  0.008947075835220142  0.99975262809456  1.0000
