data_image0
_chemical_formula_structural       HAl6Fe12V6
_chemical_formula_sum              "H1 Al6 Fe12 V6"
_cell_length_a       7.019321874042789
_cell_length_b       5.731252193450928
_cell_length_c       100.86373901367188
_cell_angle_alpha    90.0
_cell_angle_beta     85.65224699238067
_cell_angle_gamma    114.0948420284147

_space_group_name_H-M_alt    "P 1"
_space_group_IT_number       1

loop_
  _space_group_symop_operation_xyz
  'x, y, z'

loop_
  _atom_site_type_symbol
  _atom_site_label
  _atom_site_symmetry_multiplicity
  _atom_site_fract_x
  _atom_site_fract_y
  _atom_site_fract_z
  _atom_site_occupancy
  H   H1        1.0  0.007274744725714136  9.99361986921959e-05  6.998773577460038e-05  1.0000
  Al  Al1       1.0  0.003541666499428447  0.006983396864550752  0.9995328752234286  1.0000
  Al  Al2       1.0  0.0052083331388702876  0.0028167303134583534  0.9997878703329263  1.0000
  Al  Al3       1.0  0.0018750000058338915  0.0011500638485020115  0.9992778798176903  1.0000
  Al  Al4       1.0  0.009374999883322173  0.009900063881495554  0.9996603728753444  1.0000
  Al  Al5       1.0  0.0010416666861129715  0.005733397282890953  0.9999153677889693  1.0000
  Al  Al6       1.0  0.0077083329521857626  0.004066730220116091  0.9994053774719145  1.0000
  Fe  Fe1       1.0  0.002291666592770709  0.008858397080220811  0.9997241213584634  1.0000
  Fe  Fe2       1.0  0.003958333232212549  0.004691730386941814  0.9999791167634322  1.0000
  Fe  Fe3       1.0  0.0006249999533288689  0.003025063747499974  0.9994691262489657  1.0000
  Fe  Fe4       1.0  0.002291666592770709  0.003858397067220894  0.9997241213584634  1.0000
  Fe  Fe5       1.0  0.003958333232212549  0.009691730399941732  0.9999791167634322  1.0000
  Fe  Fe6       1.0  0.0006249999533288689  0.008025063760499891  0.9994691262489657  1.0000
  Fe  Fe7       1.0  0.008124999976664434  0.0017750639086668092  0.9998516193058503  1.0000
  Fe  Fe8       1.0  0.004791666697780754  0.00010839710672599954  0.9993416284959127  1.0000
  Fe  Fe9       1.0  0.006458333045528025  0.005941730293599553  0.9995966239024203  1.0000
  Fe  Fe10      1.0  0.008124999976664434  0.006775063759167757  0.9998516193058503  1.0000
  Fe  Fe11      1.0  0.004791666697780754  0.0051083971197259164  0.9993416284959127  1.0000
  Fe  Fe12      1.0  0.006458333045528025  0.0009417302805996346  0.9995966239024203  1.0000
  V   V1        1.0  0.0052083331388702876  0.007816730184271672  0.9997878703329263  1.0000
  V   V2        1.0  0.0018750000058338915  0.006150063942751413  0.9992778798176903  1.0000
  V   V3        1.0  0.003541666499428447  0.001983397054674547  0.9995328752234286  1.0000
  V   V4        1.0  0.0010416666861129715  0.0007333971480168092  0.9999153677889693  1.0000
  V   V5        1.0  0.0077083329521857626  0.00906673009092941  0.9994053774719145  1.0000
  V   V6        1.0  0.009374999883322173  0.0049000637872461525  0.9996603728753444  1.0000
