data_image0
_chemical_formula_structural       HGa6Ru12Si6
_chemical_formula_sum              "H1 Ga6 Ru12 Si6"
_cell_length_a       5.9802422523498535
_cell_length_b       7.324271080670948
_cell_length_c       102.20458984375
_cell_angle_alpha    94.34775300277428
_cell_angle_beta     90.0
_cell_angle_gamma    114.09484236870138

_space_group_name_H-M_alt    "P 1"
_space_group_IT_number       1

loop_
  _space_group_symop_operation_xyz
  'x, y, z'

loop_
  _atom_site_type_symbol
  _atom_site_label
  _atom_site_symmetry_multiplicity
  _atom_site_fract_x
  _atom_site_fract_y
  _atom_site_fract_z
  _atom_site_occupancy
  H   H1        1.0  0.004005474904169799  0.0010251311224703029  0.00012091249811525182  1.0000
  Ga  Ga1       1.0  0.0069464089995322775  0.003564747564258511  0.9997720969300221  1.0000
  Ga  Ga2       1.0  0.002792666129830972  0.005262486404489742  0.9995151354163639  1.0000
  Ga  Ga3       1.0  0.001254466063286236  0.002184317667255549  3.957242635969475e-05  1.0000
  Ga  Ga4       1.0  0.009875999688412771  0.009429153481162696  0.999646426771296  1.0000
  Ga  Ga5       1.0  0.005709332926233276  0.0010958199568037058  0.9993838440648489  1.0000
  Ga  Ga6       1.0  0.00412903676854527  0.007943427680043809  0.9999472654362277  1.0000
  Ru  Ru1       1.0  0.00175099966094211  0.008179153525890654  0.9994494898153807  1.0000
  Ru  Ru2       1.0  0.00012400043161241796  0.0048979188787624  0.9999623130869797  1.0000
  Ru  Ru3       1.0  0.005917666214922937  0.006512486359761784  0.999712072663874  1.0000
  Ru  Ru4       1.0  0.005093963545454537  0.004898464000756296  0.9999621650024054  1.0000
  Ru  Ru5       1.0  0.0009176660778776754  0.006512486359761784  0.999712072663874  1.0000
  Ru  Ru6       1.0  0.006750999797987372  0.008179153525890654  0.9994494898153807  1.0000
  Ru  Ru7       1.0  0.008834333093181464  0.002345819842188312  0.9995807813119792  1.0000
  Ru  Ru8       1.0  0.004667666399425766  0.004012486728767441  0.9993181984619673  1.0000
  Ru  Ru9       1.0  0.0029246553993668625  0.0005720777523389502  0.9998484385131213  1.0000
  Ru  Ru10      1.0  0.009667666536471027  0.004012486728767441  0.9993181984619673  1.0000
  Ru  Ru11      1.0  0.00796401826851544  0.0005708466502256829  0.9998484312416672  1.0000
  Ru  Ru12      1.0  0.003834332956136201  0.002345819842188312  0.9995807813119792  1.0000
  Si  Si1       1.0  0.001994454308666297  0.003666926069443698  0.9997760572834045  1.0000
  Si  Si2       1.0  0.007792666150076294  0.005262486404489742  0.9995151354163639  1.0000
  Si  Si3       1.0  0.006309106605491111  0.002300018133161645  1.2495413459917858e-05  1.0000
  Si  Si4       1.0  0.004875999619500807  0.009429153481162696  0.999646426771296  1.0000
  Si  Si5       1.0  0.0007093329546545951  0.0010958199568037058  0.9993838440648489  1.0000
  Si  Si6       1.0  0.00898264972728085  0.007645505930641034  0.9998986505763999  1.0000
