data_image0
_chemical_formula_structural       COCa6Si12
_chemical_formula_sum              "C1 O1 Ca6 Si12"
_cell_length_a       5.77809345416791
_cell_length_b       9.663046849905195
_cell_length_c       100.54845428466797
_cell_angle_alpha    83.5059041460297
_cell_angle_beta     86.46258986493825
_cell_angle_gamma    78.75193451997349

_space_group_name_H-M_alt    "P 1"
_space_group_IT_number       1

loop_
  _space_group_symop_operation_xyz
  'x, y, z'

loop_
  _atom_site_type_symbol
  _atom_site_label
  _atom_site_symmetry_multiplicity
  _atom_site_fract_x
  _atom_site_fract_y
  _atom_site_fract_z
  _atom_site_occupancy
  C   C1        1.0  0.0032068391576312223  0.0046904623564285  8.932402314080207e-05  1.0000
  O   O1        1.0  0.0032068391576312223  0.0046904623564285  0.0002086697097957274  1.0000
  Ca  Ca1       1.0  0.000635516501478884  0.0055918565736229565  0.9995810918685806  1.0000
  Ca  Ca2       1.0  0.003968849927256199  0.0030918566763700377  0.9993279099225142  1.0000
  Ca  Ca3       1.0  0.0073021834161727224  0.009341857111069229  0.9994545009280802  1.0000
  Ca  Ca4       1.0  0.0008509196138000763  0.004327963935255959  0.9999499406835487  1.0000
  Ca  Ca5       1.0  0.003954396729493506  0.001835628377502059  0.9997121695132704  1.0000
  Ca  Ca6       1.0  0.007133152513208856  0.008245365550214984  0.9998418917618394  1.0000
  Si  Si1       1.0  0.005239882409859142  0.006825169309485995  0.9996060719084066  1.0000
  Si  Si2       1.0  0.008573216221001816  0.004325169214642536  0.9993528899631215  1.0000
  Si  Si3       1.0  0.0019065493898139016  0.0005751689241844398  0.9994794809006412  1.0000
  Si  Si4       1.0  0.0026978168618351814  0.00810854437520619  0.9994295205941468  1.0000
  Si  Si5       1.0  0.0060311505716783564  0.0043585442329410005  0.9995561115814889  1.0000
  Si  Si6       1.0  0.00936448367447703  0.0018585443356880814  0.9993029296365677  1.0000
  Si  Si7       1.0  0.005811605300760166  0.005432346867140955  0.9998816750973425  1.0000
  Si  Si8       1.0  0.008511164297965014  0.0030720662053632538  0.999739293335475  1.0000
  Si  Si9       1.0  0.0018067666598044387  0.009424831702177576  0.9998606145750031  1.0000
  Si  Si10      1.0  0.0024171583554993045  0.007083145891042418  0.9998002797415212  1.0000
  Si  Si11      1.0  0.006093885981220126  0.0030029881570109956  0.9999427661066131  1.0000
  Si  Si12      1.0  0.009364483911752852  0.0006085442388687163  0.9996827025685314  1.0000
