data_image0
_chemical_formula_structural       HFe4Sb8Fe4Sb8Fe4Sb8
_chemical_formula_sum              "H1 Fe12 Sb24"
_cell_length_a       6.643140408687566
_cell_length_b       13.444335983371579
_cell_length_c       106.03670501708984
_cell_angle_alpha    104.10361235836523
_cell_angle_beta     119.54782775620487
_cell_angle_gamma    83.09815087431996

_space_group_name_H-M_alt    "P 1"
_space_group_IT_number       1

loop_
  _space_group_symop_operation_xyz
  'x, y, z'

loop_
  _atom_site_type_symbol
  _atom_site_label
  _atom_site_symmetry_multiplicity
  _atom_site_fract_x
  _atom_site_fract_y
  _atom_site_fract_z
  _atom_site_occupancy
  H   H1        1.0  0.009092450956419843  0.0035516038759287375  0.0003906452471799109  1.0000
  Fe  Fe1       1.0  0.000907549311092188  0.0003620388764708851  0.9995398842041019  1.0000
  Fe  Fe2       1.0  0.000907549311092188  0.005362038890755983  0.9993854062892833  1.0000
  Fe  Fe3       1.0  0.005907549404560247  0.0028620387764752005  0.9996171229423061  1.0000
  Fe  Fe4       1.0  0.005907549404560247  0.007862038433632854  0.9994626452975104  1.0000
  Sb  Sb1       1.0  0.0028723192226147304  0.0021379610235334303  0.9996554550073945  1.0000
  Sb  Sb2       1.0  0.0028723192226147304  0.0071379611092440174  0.9995009770947826  1.0000
  Sb  Sb3       1.0  0.008942779586505764  0.003586116672267949  0.9995787911626878  1.0000
  Sb  Sb4       1.0  0.008942779586505764  0.008586116329425601  0.9994243132368354  1.0000
  Sb  Sb5       1.0  0.003942779251309966  0.004637960994963235  0.9996112883782258  1.0000
  Sb  Sb6       1.0  0.003942779251309966  0.0096379612235248  0.999456810751084  1.0000
  Sb  Sb7       1.0  0.007872319557810528  0.0010861167008381445  0.9996229577918565  1.0000
  Sb  Sb8       1.0  0.007872319557810528  0.0060861167865487314  0.9994684798792446  1.0000
  Fe  Fe5       1.0  0.000907549311092188  0.0003620388764708851  0.9998488396748694  1.0000
  Fe  Fe6       1.0  0.000907549311092188  0.005362038890755983  0.9996943620411074  1.0000
  Fe  Fe7       1.0  0.005907549404560247  0.0028620387764752005  0.9999260786941302  1.0000
  Fe  Fe8       1.0  0.005907549404560247  0.007862038433632854  0.9997716010493346  1.0000
  Sb  Sb9       1.0  0.0028723192226147304  0.0021379610235334303  0.999964410478162  1.0000
  Sb  Sb10      1.0  0.0028723192226147304  0.0071379611092440174  0.9998099328466067  1.0000
  Sb  Sb11      1.0  0.008942779586505764  0.003586116672267949  0.9998877469145119  1.0000
  Sb  Sb12      1.0  0.008942779586505764  0.008586116329425601  0.9997332689886596  1.0000
  Sb  Sb13      1.0  0.003942779251309966  0.004637960994963235  0.9999202441300499  1.0000
  Sb  Sb14      1.0  0.003942779251309966  0.0096379612235248  0.999765766502908  1.0000
  Sb  Sb15      1.0  0.007872319557810528  0.0010861167008381445  0.999931913262624  1.0000
  Sb  Sb16      1.0  0.007872319557810528  0.0060861167865487314  0.9997774353500121  1.0000
  Fe  Fe9       1.0  0.000907549311092188  0.0003620388764708851  0.00015779570775023224  1.0000
  Fe  Fe10      1.0  0.000907549311092188  0.005362038890755983  3.3175118749119424e-06  1.0000
  Fe  Fe11      1.0  0.005907549404560247  0.0028620387764752005  0.00023503416489770095  1.0000
  Fe  Fe12      1.0  0.005907549404560247  0.007862038433632854  8.055652010205008e-05  1.0000
  Sb  Sb17      1.0  0.0028723192226147304  0.0021379610235334303  0.0002733665110428081  1.0000
  Sb  Sb18      1.0  0.0028723192226147304  0.0071379611092440174  0.0001188883173742188  1.0000
  Sb  Sb19      1.0  0.008942779586505764  0.003586116672267949  0.00019670238527938022  1.0000
  Sb  Sb20      1.0  0.008942779586505764  0.008586116329425601  4.222474048372936e-05  1.0000
  Sb  Sb21      1.0  0.003942779251309966  0.004637960994963235  0.00022919960081736542  1.0000
  Sb  Sb22      1.0  0.003942779251309966  0.0096379612235248  7.47219736755626e-05  1.0000
  Sb  Sb23      1.0  0.007872319557810528  0.0010861167008381445  0.00024086873339149845  1.0000
  Sb  Sb24      1.0  0.007872319557810528  0.0060861167865487314  8.639110183623363e-05  1.0000
