data_image0
_chemical_formula_structural       HPd8Ti4
_chemical_formula_sum              "H1 Pd8 Ti4"
_cell_length_a       4.637462139129639
_cell_length_b       5.000176394128151
_cell_length_c       98.76083374023438
_cell_angle_alpha    90.10594080651576
_cell_angle_beta     90.0
_cell_angle_gamma    90.0

_space_group_name_H-M_alt    "P 1"
_space_group_IT_number       1

loop_
  _space_group_symop_operation_xyz
  'x, y, z'

loop_
  _atom_site_type_symbol
  _atom_site_label
  _atom_site_symmetry_multiplicity
  _atom_site_fract_x
  _atom_site_fract_y
  _atom_site_fract_z
  _atom_site_occupancy
  H   H1        1.0  3.849999802125795e-09  0.0018237259836510426  0.0001282743663899021  1.0000
  Pd  Pd1       1.0  1.1549999789422417e-08  0.009352098876113473  0.9999453716958517  1.0000
  Pd  Pd2       1.0  0.0050000037594611175  0.001444993368818443  0.9997424780224661  1.0000
  Pd  Pd3       1.0  0.009999996272671029  0.0042825423522083305  6.167439817193045e-05  1.0000
  Pd  Pd4       1.0  0.005000008980934892  0.006332434479767143  0.999884093745867  1.0000
  Pd  Pd5       1.0  3.849999802125795e-09  0.0035878504408974462  0.9995344657743663  1.0000
  Pd  Pd6       1.0  0.0050000037594611175  0.005730707419847318  0.9993264538280204  1.0000
  Pd  Pd7       1.0  3.849999802125795e-09  0.008505043235996336  0.9996646450676757  1.0000
  Pd  Pd8       1.0  0.0050000037594611175  0.000647900343464408  0.9994566327466848  1.0000
  Ti  Ti1       1.0  6.249999867810853e-09  0.0039707542163863975  0.9998054071505671  1.0000
  Ti  Ti2       1.0  0.005000007374327577  0.0015757741420866953  1.4751457841181102e-07  1.0000
  Ti  Ti3       1.0  3.849999802125795e-09  0.008189303444880239  0.999391543323759  1.0000
  Ti  Ti4       1.0  0.0050000037594611175  0.0060464468384468905  0.9995995555719024  1.0000
