data_image0
_chemical_formula_structural       Si6W3Si6W3H
_chemical_formula_sum              "Si12 W6 H1"
_cell_length_a       4.624765778321152
_cell_length_b       6.66462516784668
_cell_length_c       37.62663650512695
_cell_angle_alpha    90.0
_cell_angle_beta     59.999999323106664
_cell_angle_gamma    90.0

_space_group_name_H-M_alt    "P 1"
_space_group_IT_number       1

loop_
  _space_group_symop_operation_xyz
  'x, y, z'

loop_
  _atom_site_type_symbol
  _atom_site_label
  _atom_site_symmetry_multiplicity
  _atom_site_fract_x
  _atom_site_fract_y
  _atom_site_fract_z
  _atom_site_occupancy
  Si  Si1       1.0  0.009181868798023296  0.009105379234036969  0.9988184528022117  1.0000
  Si  Si2       1.0  0.002442791956849737  0.00243927505728807  0.999849875753906  1.0000
  Si  Si3       1.0  0.0074534516531401685  0.005693156781034364  0.9992703358326633  1.0000
  Si  Si4       1.0  0.0021443177819673435  0.009184096557764719  0.9992703317870277  1.0000
  Si  Si5       1.0  0.00904711184431484  0.0024387697531869394  0.9994550616391592  1.0000
  Si  Si6       1.0  0.004090657312053817  0.005772045706929202  0.9988184529152215  1.0000
  W   W1        1.0  0.0011732224207176218  0.005688162990282707  0.9995953914522556  1.0000
  W   W2        1.0  0.005818131778652122  0.0024387124593037916  0.9990195692918512  1.0000
  W   W3        1.0  0.005777152014259524  0.009188314505493844  0.999595379887083  1.0000
  Si  Si7       1.0  0.009181868798023296  0.009105379234036969  0.9975893325456765  1.0000
  Si  Si8       1.0  0.002454394294220126  0.0024387124593037916  0.9986173364120274  1.0000
  Si  Si9       1.0  0.007545606245250427  0.005772045706929202  0.9979915654119457  1.0000
  Si  Si10      1.0  0.002454394294220126  0.009105379234036969  0.9979915655535363  1.0000
  Si  Si11      1.0  0.009181868798023296  0.0024387124593037916  0.9981926815476937  1.0000
  Si  Si12      1.0  0.004090657312053817  0.005772045706929202  0.9975893326586863  1.0000
  W   W4        1.0  0.0008181314507842429  0.005772045706929202  0.998405009167892  1.0000
  W   W5        1.0  0.005818131778652122  0.0024387124593037916  0.997790449035316  1.0000
  W   W6        1.0  0.005818131778652122  0.009105379234036969  0.9984050091635837  1.0000
  H   H1        1.0  0.00229355486940854  0.0008116856566059219  0.9999587573451338  1.0000
