data_image0
_chemical_formula_structural       HV12In6C6V12In6C6V12In6C6
_chemical_formula_sum              "H1 V36 In18 C18"
_cell_length_a       13.609189987182617
_cell_length_b       8.003303418923702
_cell_length_c       100.24964141845703
_cell_angle_alpha    79.10660544741522
_cell_angle_beta     90.0
_cell_angle_gamma    90.0

_space_group_name_H-M_alt    "P 1"
_space_group_IT_number       1

loop_
  _space_group_symop_operation_xyz
  'x, y, z'

loop_
  _atom_site_type_symbol
  _atom_site_label
  _atom_site_symmetry_multiplicity
  _atom_site_fract_x
  _atom_site_fract_y
  _atom_site_fract_z
  _atom_site_occupancy
  H   H1        1.0  0.0007757370770884153  0.0039635178169857704  1.0797715311196269e-05  1.0000
  V   V1        1.0  0.009612131988392652  0.006111111317569023  0.999002571167267  1.0000
  V   V2        1.0  0.009612131988392652  0.002777777677708892  0.9992037333362543  1.0000
  V   V3        1.0  0.009612131988392652  0.009444444246413386  0.999103152285279  1.0000
  V   V4        1.0  0.006163605896209392  0.006111111317569023  0.999002571167267  1.0000
  V   V5        1.0  0.006163605896209392  0.002777777677708892  0.9992037333362543  1.0000
  V   V6        1.0  0.006163605896209392  0.009444444246413386  0.999103152285279  1.0000
  V   V7        1.0  0.004612131331432411  0.008333333270131933  0.9992707874301232  1.0000
  V   V8        1.0  0.004612131331432411  0.004999999867277056  0.9991702063192626  1.0000
  V   V9        1.0  0.004612131331432411  0.0016666667014274376  0.9990696252048262  1.0000
  V   V10       1.0  0.001163605649849302  0.008333333270131933  0.9992707874301232  1.0000
  V   V11       1.0  0.001163605649849302  0.004999999867277056  0.9991702063192626  1.0000
  V   V12       1.0  0.001163605649849302  0.0016666667014274376  0.9990696252048262  1.0000
  In  In1       1.0  0.0028878685590742153  0.006111111317569023  0.999002571167267  1.0000
  In  In2       1.0  0.0028878685590742153  0.002777777677708892  0.9992037333362543  1.0000
  In  In3       1.0  0.0028878685590742153  0.009444444246413386  0.999103152285279  1.0000
  In  In4       1.0  0.007887868668567588  0.008333333270131933  0.9992707874301232  1.0000
  In  In5       1.0  0.007887868668567588  0.004999999867277056  0.9991702063192626  1.0000
  In  In6       1.0  0.007887868668567588  0.0016666667014274376  0.9990696252048262  1.0000
  C   C1        1.0  0.00038786853854420764  0.007222222293850477  0.9991366792986951  1.0000
  C   C2        1.0  0.00038786853854420764  0.0038888888909956025  0.9990360981878345  1.0000
  C   C3        1.0  0.00038786853854420764  0.0005555555473920412  0.9992372603523523  1.0000
  C   C4        1.0  0.005387868340087468  0.007222222293850477  0.9991366792986951  1.0000
  C   C5        1.0  0.005387868340087468  0.0038888888909956025  0.9990360981878345  1.0000
  C   C6        1.0  0.005387868340087468  0.0005555555473920412  0.9992372603523523  1.0000
  V   V13       1.0  0.009612131988392652  0.006111111317569023  0.9993043144435393  1.0000
  V   V14       1.0  0.009612131988392652  0.002777777677708892  0.9995054766125268  1.0000
  V   V15       1.0  0.009612131988392652  0.009444444246413386  0.9994048955615514  1.0000
  V   V16       1.0  0.006163605896209392  0.006111111317569023  0.9993043144435393  1.0000
  V   V17       1.0  0.006163605896209392  0.002777777677708892  0.9995054766125268  1.0000
  V   V18       1.0  0.006163605896209392  0.009444444246413386  0.9994048955615514  1.0000
  V   V19       1.0  0.004612131331432411  0.008333333270131933  0.9995725304091145  1.0000
  V   V20       1.0  0.004612131331432411  0.004999999867277056  0.999471949595535  1.0000
  V   V21       1.0  0.004612131331432411  0.0016666667014274376  0.9993713684810986  1.0000
  V   V22       1.0  0.001163605649849302  0.008333333270131933  0.9995725304091145  1.0000
  V   V23       1.0  0.001163605649849302  0.004999999867277056  0.999471949595535  1.0000
  V   V24       1.0  0.001163605649849302  0.0016666667014274376  0.9993713684810986  1.0000
  In  In7       1.0  0.0028878685590742153  0.006111111317569023  0.9993043144435393  1.0000
  In  In8       1.0  0.0028878685590742153  0.002777777677708892  0.9995054766125268  1.0000
  In  In9       1.0  0.0028878685590742153  0.009444444246413386  0.9994048955615514  1.0000
  In  In10      1.0  0.007887868668567588  0.008333333270131933  0.9995725304091145  1.0000
  In  In11      1.0  0.007887868668567588  0.004999999867277056  0.999471949595535  1.0000
  In  In12      1.0  0.007887868668567588  0.0016666667014274376  0.9993713684810986  1.0000
  C   C7        1.0  0.00038786853854420764  0.007222222293850477  0.9994384225749675  1.0000
  C   C8        1.0  0.00038786853854420764  0.0038888888909956025  0.9993378414641069  1.0000
  C   C9        1.0  0.00038786853854420764  0.0005555555473920412  0.9995390036286246  1.0000
  C   C10       1.0  0.005387868340087468  0.007222222293850477  0.9994384225749675  1.0000
  C   C11       1.0  0.005387868340087468  0.0038888888909956025  0.9993378414641069  1.0000
  C   C12       1.0  0.005387868340087468  0.0005555555473920412  0.9995390036286246  1.0000
  V   V25       1.0  0.009612131988392652  0.006111111317569023  0.9996060574225306  1.0000
  V   V26       1.0  0.009612131988392652  0.002777777677708892  0.9998072198887992  1.0000
  V   V27       1.0  0.009612131988392652  0.009444444246413386  0.9997066388378237  1.0000
  V   V28       1.0  0.006163605896209392  0.006111111317569023  0.9996060574225306  1.0000
  V   V29       1.0  0.006163605896209392  0.002777777677708892  0.9998072198887992  1.0000
  V   V30       1.0  0.006163605896209392  0.009444444246413386  0.9997066388378237  1.0000
  V   V31       1.0  0.004612131331432411  0.008333333270131933  0.9998742736853868  1.0000
  V   V32       1.0  0.004612131331432411  0.004999999867277056  0.9997736928718073  1.0000
  V   V33       1.0  0.004612131331432411  0.0016666667014274376  0.9996731114600899  1.0000
  V   V34       1.0  0.001163605649849302  0.008333333270131933  0.9998742736853868  1.0000
  V   V35       1.0  0.001163605649849302  0.004999999867277056  0.9997736928718073  1.0000
  V   V36       1.0  0.001163605649849302  0.0016666667014274376  0.9996731114600899  1.0000
  In  In13      1.0  0.0028878685590742153  0.006111111317569023  0.9996060574225306  1.0000
  In  In14      1.0  0.0028878685590742153  0.002777777677708892  0.9998072198887992  1.0000
  In  In15      1.0  0.0028878685590742153  0.009444444246413386  0.9997066388378237  1.0000
  In  In16      1.0  0.007887868668567588  0.008333333270131933  0.9998742736853868  1.0000
  In  In17      1.0  0.007887868668567588  0.004999999867277056  0.9997736928718073  1.0000
  In  In18      1.0  0.007887868668567588  0.0016666667014274376  0.9996731114600899  1.0000
  C   C13       1.0  0.00038786853854420764  0.007222222293850477  0.9997401658512398  1.0000
  C   C14       1.0  0.00038786853854420764  0.0038888888909956025  0.9996395844430981  1.0000
  C   C15       1.0  0.00038786853854420764  0.0005555555473920412  0.999840746904897  1.0000
  C   C16       1.0  0.005387868340087468  0.007222222293850477  0.9997401658512398  1.0000
  C   C17       1.0  0.005387868340087468  0.0038888888909956025  0.9996395844430981  1.0000
  C   C18       1.0  0.005387868340087468  0.0005555555473920412  0.999840746904897  1.0000
