data_image0
_chemical_formula_structural       Ga3Ag6Ga3Ag6Ga3Ag6H
_chemical_formula_sum              "Ga9 Ag18 H1"
_cell_length_a       7.962718486785889
_cell_length_b       8.494677891364388
_cell_length_c       102.54711151123047
_cell_angle_alpha    69.6156767532569
_cell_angle_beta     90.0
_cell_angle_gamma    62.05079141346804

_space_group_name_H-M_alt    "P 1"
_space_group_IT_number       1

loop_
  _space_group_symop_operation_xyz
  'x, y, z'

loop_
  _atom_site_type_symbol
  _atom_site_label
  _atom_site_symmetry_multiplicity
  _atom_site_fract_x
  _atom_site_fract_y
  _atom_site_fract_z
  _atom_site_occupancy
  Ga  Ga1       1.0  0.0033559120714930194  0.003355409511170302  0.9991938472423864  1.0000
  Ga  Ga2       1.0  0.0066892458394791415  0.006688743060590377  0.9990976693707111  1.0000
  Ga  Ga3       1.0  2.257890066167208e-05  2.2076200205322383e-05  0.9991457580416496  1.0000
  Ag  Ag1       1.0  2.257889094008505e-05  0.006966759182044264  0.9990896476715753  1.0000
  Ag  Ag2       1.0  0.006967261997012866  0.003077393119607988  0.9992018689493157  1.0000
  Ag  Ag3       1.0  0.00307789581019429  2.2076200205322383e-05  0.9992900251071813  1.0000
  Ag  Ag4       1.0  0.006412088150456428  2.2076200205322383e-05  0.9991457580416496  1.0000
  Ag  Ag5       1.0  0.0036330697148268185  0.006411585343717944  0.9992499327862809  1.0000
  Ag  Ag6       1.0  2.257883286399372e-05  0.0036325669579343077  0.9990415832533684  1.0000
  Ga  Ga4       1.0  0.0033559120714930194  0.003355409511170302  0.9994823807922081  1.0000
  Ga  Ga5       1.0  0.0066892458394791415  0.006688743060590377  0.9993862029205329  1.0000
  Ga  Ga6       1.0  2.257890066167208e-05  2.2076200205322383e-05  0.9994342915914715  1.0000
  Ag  Ag7       1.0  2.257889094008505e-05  0.006966759182044264  0.9993781812213971  1.0000
  Ag  Ag8       1.0  0.006967261997012866  0.003077393119607988  0.9994904024991375  1.0000
  Ag  Ag9       1.0  0.003065834009053886  8.336419693512506e-05  0.9995679060148933  1.0000
  Ag  Ag10      1.0  0.006412088150456428  2.2076200205322383e-05  0.9994342915914715  1.0000
  Ag  Ag11      1.0  0.0036330697148268185  0.006411585343717944  0.9995384663361028  1.0000
  Ag  Ag12      1.0  2.257883286399372e-05  0.0036325669579343077  0.9993301168031903  1.0000
  Ga  Ga7       1.0  0.003393491966315349  0.003305888372355142  0.9997784154240088  1.0000
  Ga  Ga8       1.0  0.006750642710499334  0.00666793876931513  0.9997001115850158  1.0000
  Ga  Ga9       1.0  0.009977421048773576  0.009920506657718948  0.9997394904557871  1.0000
  Ag  Ag13      1.0  2.4652160267517723e-05  0.0069092871315677845  0.9996807714970315  1.0000
  Ag  Ag14      1.0  0.006905388315022404  0.003126454263771727  0.9997722834835172  1.0000
  Ag  Ag15      1.0  0.003040630515483982  0.00011321609917210255  0.9998428391654087  1.0000
  Ag  Ag16      1.0  0.0064497578535771  3.5341298919985504e-05  0.9997258385931618  1.0000
  Ag  Ag17      1.0  0.0035805500589714476  0.0065521983887189585  0.9998109470635094  1.0000
  Ag  Ag18      1.0  0.00992321159496492  0.0037556424029779175  0.999626241032717  1.0000
  H   H1        1.0  0.00821358917069506  0.009977924146293145  0.9998789388796948  1.0000
