data_image0
_chemical_formula_structural       HV9Si18
_chemical_formula_sum              "H1 V9 Si18"
_cell_length_a       4.582751842563801
_cell_length_b       11.177127636607752
_cell_length_c       38.52344512939453
_cell_angle_alpha    89.29546501655777
_cell_angle_beta     73.07108081121368
_cell_angle_gamma    65.79443658354742

_space_group_name_H-M_alt    "P 1"
_space_group_IT_number       1

loop_
  _space_group_symop_operation_xyz
  'x, y, z'

loop_
  _atom_site_type_symbol
  _atom_site_label
  _atom_site_symmetry_multiplicity
  _atom_site_fract_x
  _atom_site_fract_y
  _atom_site_fract_z
  _atom_site_occupancy
  H   H1        1.0  0.002781446095286969  0.009776222752163671  0.0001658585965883928  1.0000
  V   V1        1.0  0.005752532768517219  0.007958930285298352  0.9988247147949418  1.0000
  V   V2        1.0  0.005811680852731203  0.0012725838569913593  0.9994896472326249  1.0000
  V   V3        1.0  0.005752533179082379  0.004625596269553534  0.9981438188498084  1.0000
  V   V4        1.0  0.005752533160599958  0.007403374186431974  0.9980303361350842  1.0000
  V   V5        1.0  0.005752532960913822  0.000736707489695017  0.9987112322533862  1.0000
  V   V6        1.0  0.005712717219076721  0.0040990505138693975  0.999383340312442  1.0000
  V   V7        1.0  0.0007525326080002371  0.005181152000212276  0.9989381975481247  1.0000
  V   V8        1.0  0.0007988417169949495  0.008535570689786163  0.9996061971044918  1.0000
  V   V9        1.0  0.0007525330576415463  0.0018478185367789115  0.9982573015996673  1.0000
  Si  Si1       1.0  0.007495695158841237  0.004057291717724792  0.9987086279079449  1.0000
  Si  Si2       1.0  0.007283503075196871  0.0073893815598694065  0.999433704887983  1.0000
  Si  Si3       1.0  0.007495695170599836  0.0007239580701876099  0.9980277319753122  1.0000
  Si  Si4       1.0  0.00912411383333218  0.008527234468919457  0.9982599059118097  1.0000
  Si  Si5       1.0  0.00912411390895091  0.0018605679102603643  0.9989408020200827  1.0000
  Si  Si6       1.0  0.009086713953168051  0.005110146839791102  0.9996250762228712  1.0000
  Si  Si7       1.0  0.00912411374480981  0.005711208983908113  0.9983655757987097  1.0000
  Si  Si8       1.0  0.00912411288333656  0.009044542631445295  0.999046471760776  1.0000
  Si  Si9       1.0  0.00924746708711227  0.002286599425098861  0.9997152469617634  1.0000
  Si  Si10      1.0  0.00404043333723644  0.006314067244870873  0.9991600660600393  1.0000
  Si  Si11      1.0  0.00415071021700072  0.009566105801406452  0.9998220940126957  1.0000
  Si  Si12      1.0  0.004009370825723205  0.002971679003370213  0.9984868711662539  1.0000
  Si  Si13      1.0  0.0025692378710465134  0.006320595566247493  0.9998108479112412  1.0000
  Si  Si14      1.0  0.002380950776679829  0.009612847551481672  0.998481662736666  1.0000
  Si  Si15      1.0  0.0023263784783415006  0.002982227968022186  0.9991853857535186  1.0000
  Si  Si16      1.0  0.002380951751881694  0.006873317202736137  0.998602958249781  1.0000
  Si  Si17      1.0  0.0023437087537409463  0.00022377736198069643  0.9992874030199494  1.0000
  Si  Si18      1.0  0.002380951364833733  0.0035399839234065904  0.9979220619428415  1.0000
