data_image0
_chemical_formula_structural       HAl3Cu3Pt6Al3Cu3Pt6Al3Cu3Pt6Al3Cu3Pt6
_chemical_formula_sum              "H1 Al12 Cu12 Pt24"
_cell_length_a       7.101649284362793
_cell_length_b       9.003072211874757
_cell_length_c       104.16426086425781
_cell_angle_alpha    71.56505165689097
_cell_angle_beta     90.0
_cell_angle_gamma    90.0

_space_group_name_H-M_alt    "P 1"
_space_group_IT_number       1

loop_
  _space_group_symop_operation_xyz
  'x, y, z'

loop_
  _atom_site_type_symbol
  _atom_site_label
  _atom_site_symmetry_multiplicity
  _atom_site_fract_x
  _atom_site_fract_y
  _atom_site_fract_z
  _atom_site_occupancy
  H   H1        1.0  0.002500000702919674  0.006151077516300606  0.9999278446030524  1.0000
  Al  Al1       1.0  9.999999977871913e-11  0.006680226138641831  0.9991212745187015  1.0000
  Al  Al2       1.0  9.999999977871913e-11  0.00334689277623101  0.9989390608995234  1.0000
  Al  Al3       1.0  9.999999977871913e-11  1.3559450451008835e-05  0.9993034880934851  1.0000
  Cu  Cu1       1.0  9.999999977871913e-11  0.006680226138641831  0.9988479541116311  1.0000
  Cu  Cu2       1.0  9.999999977871913e-11  0.00334689277623101  0.999212381306594  1.0000
  Cu  Cu3       1.0  9.999999977871913e-11  1.3559450451008835e-05  0.9990301676864147  1.0000
  Pt  Pt1       1.0  0.002500000178352753  0.008346893037928394  0.9989390609152595  1.0000
  Pt  Pt2       1.0  0.002500000178352753  0.005013559675517574  0.9993034878241135  1.0000
  Pt  Pt3       1.0  0.002500000178352753  0.001680226204066177  0.9991212744940247  1.0000
  Pt  Pt4       1.0  0.002500000178352753  0.005013559675517574  0.9990301677031519  1.0000
  Pt  Pt5       1.0  0.002500000178352753  0.001680226204066177  0.9988479540869541  1.0000
  Pt  Pt6       1.0  0.002500000178352753  0.008346893037928394  0.999212381036221  1.0000
  Al  Al4       1.0  2.999999837028449e-10  0.006714052270249236  0.99966753611936  1.0000
  Al  Al5       1.0  9.999999977871913e-11  0.00334689277623101  0.9994857017136644  1.0000
  Al  Al6       1.0  7.000000140843465e-10  4.471164899303557e-05  0.999826136394333  1.0000
  Cu  Cu4       1.0  9.999999977871913e-11  0.006680226138641831  0.999394594925772  1.0000
  Cu  Cu5       1.0  0.00999999966427717  0.0032673995786881463  0.9997719181933593  1.0000
  Cu  Cu6       1.0  3.9999999911487654e-10  0.009986440237249964  0.9995769037357455  1.0000
  Pt  Pt7       1.0  0.002500000178352753  0.008346893037928394  0.9994857014432914  1.0000
  Pt  Pt8       1.0  0.002500000178352753  0.005196429010083234  0.9998304101439456  1.0000
  Pt  Pt9       1.0  0.0024999999160692926  0.0017221290802460485  0.9996732071814441  1.0000
  Pt  Pt10      1.0  0.0025000009652031345  0.004968505417624363  0.9995751425170386  1.0000
  Pt  Pt11      1.0  0.002500000178352753  0.001680226204066177  0.9993945946149861  1.0000
  Pt  Pt12      1.0  0.0025000012274865946  0.008388288330222739  0.9997707310002953  1.0000
  Al  Al7       1.0  0.004999999832138585  0.006680226138641831  0.9991212745187015  1.0000
  Al  Al8       1.0  0.004999999832138585  0.00334689277623101  0.9989390608995234  1.0000
  Al  Al9       1.0  0.004999999832138585  1.3559450451008835e-05  0.9993034880934851  1.0000
  Cu  Cu7       1.0  0.004999999832138585  0.006680226138641831  0.9988479541116311  1.0000
  Cu  Cu8       1.0  0.004999999832138585  0.00334689277623101  0.999212381306594  1.0000
  Cu  Cu9       1.0  0.004999999832138585  1.3559450451008835e-05  0.9990301676864147  1.0000
  Pt  Pt13      1.0  0.007500000272774799  0.008346893037928394  0.9989390609152595  1.0000
  Pt  Pt14      1.0  0.007500000272774799  0.005013559675517574  0.9993034878241135  1.0000
  Pt  Pt15      1.0  0.007500000272774799  0.001680226204066177  0.9991212744940247  1.0000
  Pt  Pt16      1.0  0.007500000272774799  0.005013559675517574  0.9990301677031519  1.0000
  Pt  Pt17      1.0  0.007500000272774799  0.001680226204066177  0.9988479540869541  1.0000
  Pt  Pt18      1.0  0.007500000272774799  0.008346893037928394  0.999212381036221  1.0000
  Al  Al10      1.0  0.005000000356705506  0.006714052270249236  0.99966753611936  1.0000
  Al  Al11      1.0  0.004999999832138585  0.00334689277623101  0.9994857017136644  1.0000
  Al  Al12      1.0  0.005000000881272427  4.471164899303557e-05  0.999826136394333  1.0000
  Cu  Cu10      1.0  0.004999999832138585  0.006680226138641831  0.999394594925772  1.0000
  Cu  Cu11      1.0  0.004999999832138585  0.0032673995786881463  0.9997719181933593  1.0000
  Cu  Cu12      1.0  0.005000000356705506  0.009986440237249964  0.9995769037357455  1.0000
  Pt  Pt19      1.0  0.007500000272774799  0.008346893037928394  0.9994857014432914  1.0000
  Pt  Pt20      1.0  0.007500000272774799  0.005196429010083234  0.9998304101439456  1.0000
  Pt  Pt21      1.0  0.007499999748207878  0.0017221290802460485  0.9996732071814441  1.0000
  Pt  Pt22      1.0  0.007500000797341719  0.004968505417624363  0.9995751425170386  1.0000
  Pt  Pt23      1.0  0.007500000272774799  0.001680226204066177  0.9993945946149861  1.0000
  Pt  Pt24      1.0  0.00750000132190864  0.008388288330222739  0.9997707310002953  1.0000
