data_image0
_chemical_formula_structural       HCo8Sb16
_chemical_formula_sum              "H1 Co8 Sb16"
_cell_length_a       9.219553081193968
_cell_length_b       6.624025797089115
_cell_length_c       106.87821197509766
_cell_angle_alpha    70.95784091143113
_cell_angle_beta     88.90573775062514
_cell_angle_gamma    70.95783970636468

_space_group_name_H-M_alt    "P 1"
_space_group_IT_number       1

loop_
  _space_group_symop_operation_xyz
  'x, y, z'

loop_
  _atom_site_type_symbol
  _atom_site_label
  _atom_site_symmetry_multiplicity
  _atom_site_fract_x
  _atom_site_fract_y
  _atom_site_fract_z
  _atom_site_occupancy
  H   H1        1.0  5.2441500178943356e-05  0.007268764955532461  0.999905582385102  1.0000
  Co  Co1       1.0  0.006349020165905777  0.0021734160114602968  0.9996335805491527  1.0000
  Co  Co2       1.0  0.0013490203162350378  0.0021734162458939416  0.9992022693209222  1.0000
  Co  Co3       1.0  0.006143534670085171  0.0028265840093617063  0.9991845434133767  1.0000
  Co  Co4       1.0  0.0011435348204144318  0.0028265836488484512  0.9996158548848613  1.0000
  Co  Co5       1.0  0.003650979748191788  0.007826583579202198  0.9993995570371607  1.0000
  Co  Co6       1.0  0.008650979919996657  0.007826583184185533  0.9998308682681076  1.0000
  Co  Co7       1.0  0.003856465244012394  0.0071734161762476885  0.9998485936032188  1.0000
  Co  Co8       1.0  0.008856465415817263  0.007173416376177922  0.9994172826921381  1.0000
  Sb  Sb1       1.0  0.003520975003628519  0.003336182639846241  0.9990822197829651  1.0000
  Sb  Sb2       1.0  0.008520975175433388  0.003336182839776476  0.9995135310018817  1.0000
  Sb  Sb3       1.0  0.007535214672245789  0.001663817110936725  0.9998598083765496  1.0000
  Sb  Sb4       1.0  0.002535214929953093  0.0016638172918426962  0.9994284971492244  1.0000
  Sb  Sb5       1.0  0.006479024910469046  0.006663816950816253  0.9990882951156635  1.0000
  Sb  Sb6       1.0  0.001479025060798307  0.006663817185249899  0.9995196065751177  1.0000
  Sb  Sb7       1.0  0.0024647850270956896  0.008336182586781118  0.9991733292079528  1.0000
  Sb  Sb8       1.0  0.007464784984144472  0.008336182298819798  0.9996046404370889  1.0000
  Sb  Sb9       1.0  0.003936535332839635  0.0012980650274426247  0.9997351177825455  1.0000
  Sb  Sb10      1.0  0.00893653507513233  0.0012980651440101037  0.9993038063161707  1.0000
  Sb  Sb11      1.0  0.0049664595662050745  0.003701934836852661  0.9993926501071786  1.0000
  Sb  Sb12      1.0  0.009966459738009944  0.0037019350367828953  0.9998239613260953  1.0000
  Sb  Sb13      1.0  0.00606346458125793  0.00870193545564022  0.9992980197857222  1.0000
  Sb  Sb14      1.0  0.0010634646242091478  0.008701935148654638  0.9997293306986138  1.0000
  Sb  Sb15      1.0  0.005033540777404664  0.006298064539699139  0.9996404874827567  1.0000
  Sb  Sb16      1.0  3.3540598888666456e-05  0.006298064938061284  0.9992091762517531  1.0000
