data_image0
_chemical_formula_structural       CONa14In6Se16
_chemical_formula_sum              "C1 O1 Na14 In6 Se16"
_cell_length_a       6.904651552751678
_cell_length_b       13.862836585241615
_cell_length_c       102.15228271484375
_cell_angle_alpha    91.48159618796517
_cell_angle_beta     90.18044879217486
_cell_angle_gamma    89.99665683719518

_space_group_name_H-M_alt    "P 1"
_space_group_IT_number       1

loop_
  _space_group_symop_operation_xyz
  'x, y, z'

loop_
  _atom_site_type_symbol
  _atom_site_label
  _atom_site_symmetry_multiplicity
  _atom_site_fract_x
  _atom_site_fract_y
  _atom_site_fract_z
  _atom_site_occupancy
  C   C1        1.0  0.000703733862407707  0.006608407918196058  0.9999660717554979  1.0000
  O   O1        1.0  0.000703733862407707  0.006608407918196058  8.354367095374654e-05  1.0000
  Na  Na1       1.0  0.0025212222128526336  0.00519739722894828  0.9997679167905643  1.0000
  Na  Na2       1.0  0.007660001309512667  0.004833895054550229  0.9990009492674402  1.0000
  Na  Na3       1.0  0.006907721275446323  0.007255628561172932  0.9997953241657653  1.0000
  Na  Na4       1.0  0.0035414896602524843  0.0024518813593418327  1.403438004096456e-05  1.0000
  Na  Na5       1.0  0.002885567544653558  0.0076562906232980794  0.9995106099596591  1.0000
  Na  Na6       1.0  0.0075394323145129595  0.002343709462722668  0.9992721593136306  1.0000
  Na  Na7       1.0  0.0076569701065253935  0.009803215797909874  0.9995383381305861  1.0000
  Na  Na8       1.0  0.0027680297526465735  0.00019678440571736382  0.9992444308513722  1.0000
  Na  Na9       1.0  0.005387983391855655  0.006345112925628939  0.9992613946679768  1.0000
  Na  Na10      1.0  0.005037016737078912  0.0036548871603918087  0.9995213743136262  1.0000
  Na  Na11      1.0  0.0054307301455667  0.008751780973559425  0.9990126059533937  1.0000
  Na  Na12      1.0  0.004858146599715085  0.0011075601364165188  0.9997529428220259  1.0000
  Na  Na13      1.0  0.008748829724448846  0.00821710342525671  0.9992599119943844  1.0000
  Na  Na14      1.0  0.0016761702695954677  0.0017828965263566195  0.9995228566949743  1.0000
  In  In1       1.0  0.008882816254593034  0.003089191336929643  0.9997499401696118  1.0000
  In  In2       1.0  0.001468705241144152  0.006954014551304081  0.9990308916388971  1.0000
  In  In3       1.0  0.008860794832666767  0.0056449647918800265  0.9995146516334686  1.0000
  In  In4       1.0  0.0015642050264997492  0.004355035294140721  0.9992681170563329  1.0000
  In  In5       1.0  0.009296265676398456  0.0008467737911065626  0.9999632307282843  1.0000
  In  In6       1.0  0.0017513844852056315  0.009037117169823812  0.9997945579724583  1.0000
  Se  Se1       1.0  0.0076655938517087895  0.004932438810173406  0.9997397357656436  1.0000
  Se  Se2       1.0  0.002790490854502625  0.00509697230709985  0.9990429790713501  1.0000
  Se  Se3       1.0  0.007887629212757383  0.0025472778308602254  2.1138807242487432e-06  1.0000
  Se  Se4       1.0  0.0026585597649393766  0.007275250431342437  0.9998261345385177  1.0000
  Se  Se5       1.0  0.0076641865383936265  0.0002362241120721225  0.9992146507517227  1.0000
  Se  Se6       1.0  0.0027608135905588483  0.009763776360369953  0.9995681179394922  1.0000
  Se  Se7       1.0  0.0026634116920972286  0.0030756048974673977  0.9997588851960311  1.0000
  Se  Se8       1.0  0.007710106033336866  0.00693304753169314  0.9990319465698219  1.0000
  Se  Se9       1.0  0.007842618036012146  0.009419706272866896  0.9998316228843844  1.0000
  Se  Se10      1.0  0.0028102068552054832  0.00032370511232012887  1.7340498798932727e-06  1.0000
  Se  Se11      1.0  0.007486108496179842  0.001962818194186401  0.9995619256693424  1.0000
  Se  Se12      1.0  0.002938891632754725  0.008037181891834347  0.9992208433122607  1.0000
  Se  Se13      1.0  0.002701256357950517  0.005467769040898943  0.9994767197883514  1.0000
  Se  Se14      1.0  0.00772374377098405  0.004532231045121805  0.9993060491932516  1.0000
  Se  Se15      1.0  0.007610673226312023  0.0074202862505538016  0.9995117889811658  1.0000
  Se  Se16      1.0  0.0028143269026350017  0.0025797141042817823  0.9992709797096364  1.0000
