data_image0
_chemical_formula_structural       COAl4Fe6Si6Al4Fe6Si6
_chemical_formula_sum              "C1 O1 Al8 Fe12 Si12"
_cell_length_a       6.3611475551543
_cell_length_b       7.592120998542461
_cell_length_c       102.40021514892578
_cell_angle_alpha    71.06600201254665
_cell_angle_beta     100.60816573899936
_cell_angle_gamma    108.4182185978918

_space_group_name_H-M_alt    "P 1"
_space_group_IT_number       1

loop_
  _space_group_symop_operation_xyz
  'x, y, z'

loop_
  _atom_site_type_symbol
  _atom_site_label
  _atom_site_symmetry_multiplicity
  _atom_site_fract_x
  _atom_site_fract_y
  _atom_site_fract_z
  _atom_site_occupancy
  C   C1        1.0  0.0036695114109723346  0.0022551181075881467  2.3626334267266766e-05  1.0000
  O   O1        1.0  0.0036695114109723346  0.0022551181075881467  0.0001408132434607498  1.0000
  Al  Al1       1.0  0.006760559903830563  0.0005094363915371483  0.9994780004956529  1.0000
  Al  Al2       1.0  0.0035569456741309847  0.007273898246418446  0.9994133589580236  1.0000
  Al  Al3       1.0  0.0064623495742588515  0.0027261015485173174  0.9992147275501769  1.0000
  Al  Al4       1.0  0.0032587354461045695  0.00949056384185833  0.9991500857121229  1.0000
  Fe  Fe1       1.0  0.009727761899444116  0.007673270018534698  0.999254278807204  1.0000
  Fe  Fe2       1.0  0.0002915337431870023  0.0023267303160437905  0.999373807401485  1.0000
  Fe  Fe3       1.0  0.006830533103470308  0.00943280480178068  0.9992786042508834  1.0000
  Fe  Fe4       1.0  0.003188762550089328  0.0005671958026191719  0.9993494819514392  1.0000
  Fe  Fe5       1.0  0.007085606392341791  0.005844368480209289  0.999483901502934  1.0000
  Fe  Fe6       1.0  0.0029336890268587775  0.004155631854369199  0.9991441844121621  1.0000
  Si  Si1       1.0  0.0041400246085719255  0.003478187582798462  0.9994022955547438  1.0000
  Si  Si2       1.0  0.0004349405121219983  0.0053289071462926  0.9991978305245448  1.0000
  Si  Si3       1.0  0.00587927078877161  0.006521812212137302  0.9992257906641224  1.0000
  Si  Si4       1.0  0.0002463769524677353  0.0011377313191489552  0.9991816247851718  1.0000
  Si  Si5       1.0  0.009772918385172816  0.00886226861069749  0.9994464617208038  1.0000
  Si  Si6       1.0  0.009584354970626903  0.004671092918464526  0.999430255688807  1.0000
  Al  Al5       1.0  0.006741917758719551  0.0005183634987608248  0.9999306405251678  1.0000
  Al  Al6       1.0  0.0034649354346939884  0.007254181320197157  0.9998651077892056  1.0000
  Al  Al7       1.0  0.006439023019728049  0.002741936554800658  0.9996668346669421  1.0000
  Al  Al8       1.0  0.0032587354461045695  0.00949056384185833  0.999602096644281  1.0000
  Fe  Fe7       1.0  0.009772075561773456  0.007690854816351896  0.9997054604738675  1.0000
  Fe  Fe8       1.0  0.00017608404595754616  0.002312768139835469  0.9998215082748263  1.0000
  Fe  Fe9       1.0  0.006827337887934012  0.009461626040405268  0.9997267895113415  1.0000
  Fe  Fe10      1.0  0.003192070664839538  0.000555385418046713  0.9998055008340879  1.0000
  Fe  Fe11      1.0  0.006854563829964063  0.006046746913640793  0.999905177054863  1.0000
  Fe  Fe12      1.0  0.0029336890268587775  0.004155631854369199  0.9995961953443202  1.0000
  Si  Si7       1.0  0.0040799818511364615  0.0034636930490425234  0.999857305586192  1.0000
  Si  Si8       1.0  0.00042370545454103114  0.005289554779901404  0.9996558305562632  1.0000
  Si  Si9       1.0  0.0058465092600453045  0.006515242601610494  0.9996733998662362  1.0000
  Si  Si10      1.0  0.0002463769524677353  0.0011377313191489552  0.9996336357173299  1.0000
  Si  Si11      1.0  0.009823916088897478  0.008865566907029004  0.9998974727145353  1.0000
  Si  Si12      1.0  0.00919354718665145  0.004479230502803344  0.9998911631616795  1.0000
