data_image0
_chemical_formula_structural       COGe8Mo4
_chemical_formula_sum              "C1 O1 Ge8 Mo4"
_cell_length_a       4.788014080630309
_cell_length_b       4.749674320220947
_cell_length_c       98.94804382324219
_cell_angle_alpha    90.0
_cell_angle_beta     94.21310387804968
_cell_angle_gamma    90.0

_space_group_name_H-M_alt    "P 1"
_space_group_IT_number       1

loop_
  _space_group_symop_operation_xyz
  'x, y, z'

loop_
  _atom_site_type_symbol
  _atom_site_label
  _atom_site_symmetry_multiplicity
  _atom_site_fract_x
  _atom_site_fract_y
  _atom_site_fract_z
  _atom_site_occupancy
  C   C1        1.0  0.0018459576977602188  0.002500000211767863  0.00017160028207641732  1.0000
  O   O1        1.0  0.0018459576977602188  0.002500000211767863  0.0002928762957804532  1.0000
  Ge  Ge1       1.0  0.001630795935868762  5.0000002340561396e-11  0.9994817965901759  1.0000
  Ge  Ge2       1.0  0.00377365321469546  0.005000000423535726  0.9992728265866305  1.0000
  Ge  Ge3       1.0  0.006559814275859569  5.0000002340561396e-11  0.9993469275984833  1.0000
  Ge  Ge4       1.0  0.0044169573871094625  0.005000000423535726  0.9995558976034155  1.0000
  Ge  Ge5       1.0  0.007390267834950843  0.010000000062746033  0.99990664009219  1.0000
  Ge  Ge6       1.0  0.009487939031515593  0.005000000423535726  0.9996907663751826  1.0000
  Ge  Ge7       1.0  0.002226641049723194  2.5000000585912724e-10  0.9997547414960777  1.0000
  Ge  Ge8       1.0  0.0005120611479196398  0.005000000423535726  0.9999827495120222  1.0000
  Mo  Mo1       1.0  0.006952448209312527  5.0000002340561396e-11  0.9996233321398948  1.0000
  Mo  Mo2       1.0  0.009095305098062634  0.005000000423535726  0.9994143621349627  1.0000
  Mo  Mo3       1.0  0.0026468894802671923  0.010000000062746033  9.409620411905055e-06  1.0000
  Mo  Mo4       1.0  0.004782032409385645  0.005000000423535726  0.9998268354328784  1.0000
