data_image0
_chemical_formula_structural       COAl12Cr4
_chemical_formula_sum              "C1 O1 Al12 Cr4"
_cell_length_a       4.851228503766399
_cell_length_b       4.851228713989258
_cell_length_c       102.09947204589844
_cell_angle_alpha    90.0
_cell_angle_beta     90.0
_cell_angle_gamma    113.07409731740574

_space_group_name_H-M_alt    "P 1"
_space_group_IT_number       1

loop_
  _space_group_symop_operation_xyz
  'x, y, z'

loop_
  _atom_site_type_symbol
  _atom_site_label
  _atom_site_symmetry_multiplicity
  _atom_site_fract_x
  _atom_site_fract_y
  _atom_site_fract_z
  _atom_site_occupancy
  C   C1        1.0  0.005000413585020059  0.002498996203270065  0.00016964176762402985  1.0000
  O   O1        1.0  0.005000413585020059  0.002498996203270065  0.00028717386131258245  1.0000
  Al  Al1       1.0  0.005000413585020059  0.002498996203270065  0.9999999982486302  1.0000
  Al  Al2       1.0  1.2518499548590834e-06  0.007501003250257319  0.9997393156072664  1.0000
  Al  Al3       1.0  5.429500085321473e-07  0.00749874805796265  0.0  1.0000
  Al  Al4       1.0  0.005000562575789142  0.0025007209531246358  0.9997393150234763  1.0000
  Al  Al5       1.0  3.202500120158369e-07  0.0025000209008663276  0.9996066656892622  1.0000
  Al  Al6       1.0  0.0050000279618530215  0.0074999695072480565  0.9998842618928006  1.0000
  Al  Al7       1.0  0.005000320100615929  0.002500020859592728  0.9994756681886864  1.0000
  Al  Al8       1.0  3.202500120158369e-07  0.007500020739605952  0.999213673187535  1.0000
  Al  Al9       1.0  3.202500120158369e-07  0.007500020739605952  0.9994756681886864  1.0000
  Al  Al10      1.0  0.005000320100615929  0.002500020859592728  0.999213673187535  1.0000
  Al  Al11      1.0  3.202500120158369e-07  0.0025000209008663276  0.9990826756869592  1.0000
  Al  Al12      1.0  0.005000320100615929  0.0075000206503381935  0.9993446706881107  1.0000
  Cr  Cr1       1.0  0.009999679482042981  0.0024996098883191343  0.9998519701359967  1.0000
  Cr  Cr2       1.0  0.005000320100615929  0.0075000206503381935  0.9996066656892622  1.0000
  Cr  Cr3       1.0  3.202500120158369e-07  0.0025000209008663276  0.9993446706881107  1.0000
  Cr  Cr4       1.0  0.005000320100615929  0.0075000206503381935  0.9990826756869592  1.0000
