data_image0
_chemical_formula_structural       CONi24Sn16
_chemical_formula_sum              "C1 O1 Ni24 Sn16"
_cell_length_a       5.27303409576416
_cell_length_b       10.985894247478399
_cell_length_c       102.95767974853516
_cell_angle_alpha    81.93636499477387
_cell_angle_beta     90.0
_cell_angle_gamma    90.0

_space_group_name_H-M_alt    "P 1"
_space_group_IT_number       1

loop_
  _space_group_symop_operation_xyz
  'x, y, z'

loop_
  _atom_site_type_symbol
  _atom_site_label
  _atom_site_symmetry_multiplicity
  _atom_site_fract_x
  _atom_site_fract_y
  _atom_site_fract_z
  _atom_site_occupancy
  C   C1        1.0  0.006293292213741756  0.007033435046446279  0.9999911008294434  1.0000
  O   O1        1.0  0.006293292213741756  0.007033435046446279  0.00010765322984096114  1.0000
  Ni  Ni1       1.0  0.007507986863370443  0.007728408590260091  0.9995155017247428  1.0000
  Ni  Ni2       1.0  0.007507986863370443  0.002728408419018206  0.9989819869440668  1.0000
  Ni  Ni3       1.0  0.002507982490262565  0.0023582684006939543  0.9998142309933743  1.0000
  Ni  Ni4       1.0  0.0025079869057592114  0.007364740830202575  0.9992865728697539  1.0000
  Ni  Ni5       1.0  0.004978425487757943  0.004416417932121361  0.9998600467041594  1.0000
  Ni  Ni6       1.0  0.00505352566767622  0.009347704043609965  0.9993407435340085  1.0000
  Ni  Ni7       1.0  5.3525848049258164e-05  0.005745445034368931  0.9994613310656143  1.0000
  Ni  Ni8       1.0  5.3525848049258164e-05  0.0007454450343689312  0.9989278159929134  1.0000
  Ni  Ni9       1.0  0.004962448101453435  0.0019815126234037517  0.9995932231920938  1.0000
  Ni  Ni10      1.0  0.004962448101453435  0.0069815124521618675  0.9990597082956331  1.0000
  Ni  Ni11      1.0  5.3525848049258164e-05  0.0019815126234037517  0.9995932231920938  1.0000
  Ni  Ni12      1.0  5.3525848049258164e-05  0.0069815124521618675  0.9990597082956331  1.0000
  Ni  Ni13      1.0  0.004962448101453435  0.005745445034368931  0.9994613310656143  1.0000
  Ni  Ni14      1.0  0.004962448101453435  0.0007454450343689312  0.9989278159929134  1.0000
  Ni  Ni15      1.0  3.7551748530066327e-05  0.004416412109897288  0.9998600491069987  1.0000
  Ni  Ni16      1.0  0.009962447705824936  0.009347704043609965  0.9993407435340085  1.0000
  Ni  Ni17      1.0  0.005078602509469311  0.008096244377786449  0.9997411181167726  1.0000
  Ni  Ni18      1.0  0.00505352566767622  0.00311163628333326  0.9992088512364149  1.0000
  Ni  Ni19      1.0  0.0075079819180142  0.006417354693726355  0.999901264708538  1.0000
  Ni  Ni20      1.0  0.007507986863370443  0.0014738338633155498  0.9993816349964021  1.0000
  Ni  Ni21      1.0  0.00993735991360016  0.00809624026798122  0.9997411152836675  1.0000
  Ni  Ni22      1.0  0.009962447705824936  0.00311163628333326  0.9992088512364149  1.0000
  Ni  Ni23      1.0  0.0025079869057592114  0.0036193150434214623  0.9994204394321067  1.0000
  Ni  Ni24      1.0  0.0025079869057592114  0.008619315043421462  0.9988869245330828  1.0000
  Sn  Sn1       1.0  0.007508022187343613  0.005820170540477745  0.9996800583194311  1.0000
  Sn  Sn2       1.0  0.007507986863370443  0.0008376811362405914  0.9991534184175771  1.0000
  Sn  Sn3       1.0  0.007507978385616882  0.002457345358988747  0.9998143962514304  1.0000
  Sn  Sn4       1.0  0.007507986863370443  0.007325350401993749  0.9992724641525862  1.0000
  Sn  Sn5       1.0  0.0025079869057592114  0.007767799018468917  0.9995296104419105  1.0000
  Sn  Sn6       1.0  0.0025079869057592114  0.002767799018468917  0.9989960953692095  1.0000
  Sn  Sn7       1.0  0.0025079740125090043  0.006439811354460289  0.99990361189921  1.0000
  Sn  Sn8       1.0  0.0025079869057592114  0.001341611668339814  0.9993774317101176  1.0000
  Sn  Sn9       1.0  0.007507986863370443  0.0037515374096390823  0.999424642715828  1.0000
  Sn  Sn10      1.0  0.007507986863370443  0.008751537067155313  0.9988911275324684  1.0000
  Sn  Sn11      1.0  0.007507986863370443  0.0048672101381771315  0.9990498661984412  1.0000
  Sn  Sn12      1.0  0.007507986863370443  0.009867210138177132  0.9995833812711421  1.0000
  Sn  Sn13      1.0  0.002507982490262565  0.004235674520413128  0.9996453383356597  1.0000
  Sn  Sn14      1.0  0.0025079869057592114  0.009255467684875479  0.9991151411131893  1.0000
  Sn  Sn15      1.0  0.0025079869057592114  0.005225938939801765  0.9992186933284807  1.0000
  Sn  Sn16      1.0  0.0025079651815157118  0.00013278994744381074  0.9997626220701246  1.0000
