data_image0
_chemical_formula_structural       Sb6Pt6Sb6Pt6CO
_chemical_formula_sum              "Sb12 Pt12 C1 O1"
_cell_length_a       5.621406555175781
_cell_length_b       11.19741534963872
_cell_length_c       99.62557220458984
_cell_angle_alpha    79.10660600335653
_cell_angle_beta     90.0
_cell_angle_gamma    90.0

_space_group_name_H-M_alt    "P 1"
_space_group_IT_number       1

loop_
  _space_group_symop_operation_xyz
  'x, y, z'

loop_
  _atom_site_type_symbol
  _atom_site_label
  _atom_site_symmetry_multiplicity
  _atom_site_fract_x
  _atom_site_fract_y
  _atom_site_fract_z
  _atom_site_occupancy
  Sb  Sb1       1.0  0.0025000741690689174  0.007780949874706932  0.9994425919393574  1.0000
  Sb  Sb2       1.0  0.0025000741690689174  0.004447616663340494  0.9993009877214889  1.0000
  Sb  Sb3       1.0  0.0025000741690689174  0.0011142836213725203  0.9991593835000223  1.0000
  Sb  Sb4       1.0  0.0075000740630373685  0.0055587279596605935  0.9990649805883889  1.0000
  Sb  Sb5       1.0  0.0075000740630373685  0.002225394748294155  0.9993481891719084  1.0000
  Sb  Sb6       1.0  0.0075000740630373685  0.008892060832230103  0.9992065848134536  1.0000
  Pt  Pt1       1.0  0.005000074116053143  0.006669838917183763  0.9992537862638732  1.0000
  Pt  Pt2       1.0  0.005000074116053143  0.0033365057058173243  0.9991121820460046  1.0000
  Pt  Pt3       1.0  0.005000074116053143  3.172599994069936e-06  0.9993953906272823  1.0000
  Pt  Pt4       1.0  7.415000160993531e-08  0.006669838917183763  0.9992537862638732  1.0000
  Pt  Pt5       1.0  7.415000160993531e-08  0.0033365057058173243  0.9991121820460046  1.0000
  Pt  Pt6       1.0  7.415000160993531e-08  3.172599994069936e-06  0.9993953906272823  1.0000
  Sb  Sb7       1.0  0.0025000740033946215  0.007849136144803608  0.9998550239286391  1.0000
  Sb  Sb8       1.0  0.0025000741690689174  0.004507269655165655  0.9997255873360649  1.0000
  Sb  Sb9       1.0  0.0025000741690689174  0.0011846944321104293  0.9995772252106724  1.0000
  Sb  Sb10      1.0  0.0075000740630373685  0.0055587279596605935  0.999489793389777  1.0000
  Sb  Sb11      1.0  0.0075000740630373685  0.0021360609432362386  0.9997723403109579  1.0000
  Sb  Sb12      1.0  0.0075000740630373685  0.008804757606571095  0.9996292419766626  1.0000
  Pt  Pt7       1.0  0.005004109941908283  0.006673781835853072  0.999671303269275  1.0000
  Pt  Pt8       1.0  0.005000074116053143  0.0033365057058173243  0.9995369948473927  1.0000
  Pt  Pt9       1.0  0.005000222560222528  0.0099968268008515  0.9997876608445818  1.0000
  Pt  Pt10      1.0  0.009996038184166453  0.006673781835853072  0.999671303269275  1.0000
  Pt  Pt11      1.0  7.415000160993531e-08  0.0033365057058173243  0.9995369948473927  1.0000
  Pt  Pt12      1.0  0.009999925565852209  0.0099968268008515  0.9997876608445818  1.0000
  C   C1        1.0  0.0075000740630373685  0.00630209721045558  0.9998115516541386  1.0000
  O   O1        1.0  0.0075000740630373685  0.00630209721045558  0.999932002900271  1.0000
