data_image0
_chemical_formula_structural       COV12Au4V12Au4
_chemical_formula_sum              "C1 O1 V24 Au8"
_cell_length_a       4.8841705322265625
_cell_length_b       6.907259941101074
_cell_length_c       35.46369934082031
_cell_angle_alpha    90.0
_cell_angle_beta     90.0
_cell_angle_gamma    90.0

_space_group_name_H-M_alt    "P 1"
_space_group_IT_number       1

loop_
  _space_group_symop_operation_xyz
  'x, y, z'

loop_
  _atom_site_type_symbol
  _atom_site_label
  _atom_site_symmetry_multiplicity
  _atom_site_fract_x
  _atom_site_fract_y
  _atom_site_fract_z
  _atom_site_occupancy
  C   C1        1.0  0.0025000187936011545  0.007585773352854363  0.0002957517326772079  1.0000
  O   O1        1.0  0.0025000187936011545  0.007585773352854363  0.0006341261730368836  1.0000
  V   V1        1.0  1.514999958526821e-08  0.006335866031266693  0.9983866847775519  1.0000
  V   V2        1.0  0.009999984409853587  0.0013452357303031278  0.9993735396032322  1.0000
  V   V3        1.0  1.514999958526821e-08  0.003835866128346036  0.9988736094742366  1.0000
  V   V4        1.0  0.009999952375306164  0.009001253807753839  0.9998073547229007  1.0000
  V   V5        1.0  0.0050000848762961235  0.006170292897954889  0.9998073471596486  1.0000
  V   V6        1.0  0.005000015086746382  0.0013358660905929583  0.9988736094742366  1.0000
  V   V7        1.0  0.005000015086746382  0.008835866203852192  0.9983866847775519  1.0000
  V   V8        1.0  0.005000050553566743  0.0038267859738419755  0.9993736492703889  1.0000
  V   V9        1.0  0.007500160874446248  0.0025858781769711025  0.9999999672259072  1.0000
  V   V10       1.0  0.007500015193528206  0.007585866117559442  0.9991170718225789  1.0000
  V   V11       1.0  0.0024998763542742213  0.002585878446635943  0.0  1.0000
  V   V12       1.0  0.0025000151706463867  0.007585866117559442  0.9991170718225789  1.0000
  Au  Au1       1.0  0.005000015086746382  0.005085865944973944  0.9986301471258943  1.0000
  Au  Au2       1.0  0.004999917457649474  0.009914134011879681  0.9996300620073735  1.0000
  Au  Au3       1.0  8.465000017936724e-08  0.005257765415440216  0.999630085957672  1.0000
  Au  Au4       1.0  1.514999958526821e-08  8.58660043002093e-05  0.9986301471258943  1.0000
  V   V13       1.0  1.514999958526821e-08  0.006335866031266693  0.9964389859908132  1.0000
  V   V14       1.0  1.514999958526821e-08  0.0013358660905929583  0.9974128353841826  1.0000
  V   V15       1.0  1.514999958526821e-08  0.003835866128346036  0.9969259106874979  1.0000
  V   V16       1.0  1.514999958526821e-08  0.008835866203852192  0.9978997600808672  1.0000
  V   V17       1.0  0.005000015086746382  0.006335866031266693  0.9978997600808672  1.0000
  V   V18       1.0  0.005000015086746382  0.0013358660905929583  0.9969259106874979  1.0000
  V   V19       1.0  0.005000015086746382  0.008835866203852192  0.9964389859908132  1.0000
  V   V20       1.0  0.005000015086746382  0.003835866128346036  0.9974128353841826  1.0000
  V   V21       1.0  0.007500015193528206  0.0025858660420532867  0.9981432224292096  1.0000
  V   V22       1.0  0.007500015193528206  0.007585866117559442  0.9971693730358402  1.0000
  V   V23       1.0  0.0025000151706463867  0.0025858660420532867  0.9981432224292096  1.0000
  V   V24       1.0  0.0025000151706463867  0.007585866117559442  0.9971693730358402  1.0000
  Au  Au5       1.0  0.005000015086746382  0.005085865944973944  0.9966824483391555  1.0000
  Au  Au6       1.0  0.005000015086746382  8.58660043002093e-05  0.9976562977325248  1.0000
  Au  Au7       1.0  1.514999958526821e-08  0.005085865944973944  0.9976562977325248  1.0000
  Au  Au8       1.0  1.514999958526821e-08  8.58660043002093e-05  0.9966824483391555  1.0000
