data_image0
_chemical_formula_structural       COGaAsPd5GaAsPd5GaAsPd5GaAsPd5
_chemical_formula_sum              "C1 O1 Ga4 As4 Pd20"
_cell_length_a       8.035948753356934
_cell_length_b       7.026657581329346
_cell_length_c       98.12582397460938
_cell_angle_alpha    90.0
_cell_angle_beta     90.0
_cell_angle_gamma    90.0

_space_group_name_H-M_alt    "P 1"
_space_group_IT_number       1

loop_
  _space_group_symop_operation_xyz
  'x, y, z'

loop_
  _atom_site_type_symbol
  _atom_site_label
  _atom_site_symmetry_multiplicity
  _atom_site_fract_x
  _atom_site_fract_y
  _atom_site_fract_z
  _atom_site_occupancy
  C   C1        1.0  0.0012500002503322038  0.0028558798033573494  0.0001654270883644799  1.0000
  O   O1        1.0  0.0012500002503322038  0.0028558798033573494  0.0002877193029175026  1.0000
  Ga  Ga1       1.0  0.0025000000370862525  0.0013985174484029519  0.999381246113415  1.0000
  As  As1       1.0  4.999999887928835e-11  0.006398517231035163  0.9995859821728885  1.0000
  Pd  Pd1       1.0  0.0025000000370862525  0.004195552212667521  0.9995859821728885  1.0000
  Pd  Pd2       1.0  0.0025000000370862525  0.008601482514485474  0.9995859821728885  1.0000
  Pd  Pd3       1.0  4.999999887928835e-11  0.004195552212667521  0.999381246113415  1.0000
  Pd  Pd4       1.0  4.999999887928835e-11  0.008601482514485474  0.999381246113415  1.0000
  Pd  Pd5       1.0  4.999999887928835e-11  0.0013985174484029519  0.9995859821728885  1.0000
  Ga  Ga2       1.0  0.0025000000370862525  0.0013985235453043501  0.9998003924785143  1.0000
  As  As2       1.0  0.01000000014834501  0.006398554342608891  0.0  1.0000
  Pd  Pd6       1.0  0.0025000000370862525  0.004313235133621005  0.9999923257196568  1.0000
  Pd  Pd7       1.0  0.0024999998052971746  0.008483800123697328  0.9999923275419491  1.0000
  Pd  Pd8       1.0  2.500000013042946e-10  0.004197307325022196  0.9997893730769227  1.0000
  Pd  Pd9       1.0  0.009999999221188698  0.008599723425890757  0.999789374899215  1.0000
  Pd  Pd10      1.0  3.5000001287857687e-10  0.001398524208011024  0.999985501842391  1.0000
  Ga  Ga3       1.0  0.007500000111258757  0.0013985174484029519  0.999381246113415  1.0000
  As  As3       1.0  0.005000000074172505  0.006398517231035163  0.9995859821728885  1.0000
  Pd  Pd11      1.0  0.007500000111258757  0.004195552212667521  0.9995859821728885  1.0000
  Pd  Pd12      1.0  0.007500000111258757  0.008601482514485474  0.9995859821728885  1.0000
  Pd  Pd13      1.0  0.005000000074172505  0.004195552212667521  0.999381246113415  1.0000
  Pd  Pd14      1.0  0.005000000074172505  0.008601482514485474  0.999381246113415  1.0000
  Pd  Pd15      1.0  0.005000000074172505  0.0013985174484029519  0.9995859821728885  1.0000
  Ga  Ga4       1.0  0.007500000111258757  0.0013985235453043501  0.9998003924785143  1.0000
  As  As4       1.0  0.005000000074172505  0.006398554342608891  0.0  1.0000
  Pd  Pd16      1.0  0.007500000111258757  0.004313235133621005  0.9999923257196568  1.0000
  Pd  Pd17      1.0  0.007499999647680602  0.008483800123697328  0.9999923275419491  1.0000
  Pd  Pd18      1.0  0.005000000074172505  0.004197307325022196  0.9997893730769227  1.0000
  Pd  Pd19      1.0  0.004999999610594349  0.008599723425890757  0.999789374899215  1.0000
  Pd  Pd20      1.0  0.00500000053775066  0.001398524208011024  0.999985501842391  1.0000
