data_image0
_chemical_formula_structural       HGa8Rh8Ga8Rh8
_chemical_formula_sum              "H1 Ga16 Rh16"
_cell_length_a       8.628570556640625
_cell_length_b       5.283898889011951
_cell_length_c       104.9164047241211
_cell_angle_alpha    92.89141704040361
_cell_angle_beta     90.0
_cell_angle_gamma    90.0

_space_group_name_H-M_alt    "P 1"
_space_group_IT_number       1

loop_
  _space_group_symop_operation_xyz
  'x, y, z'

loop_
  _atom_site_type_symbol
  _atom_site_label
  _atom_site_symmetry_multiplicity
  _atom_site_fract_x
  _atom_site_fract_y
  _atom_site_fract_z
  _atom_site_occupancy
  H   H1        1.0  0.0025000001381564755  0.006563081767315754  2.1088168521736217e-05  1.0000
  Ga  Ga1       1.0  0.0  0.0009027992865431309  0.9995493827034302  1.0000
  Ga  Ga2       1.0  0.0025000001381564755  0.0005456563590598409  0.9991928091846651  1.0000
  Ga  Ga3       1.0  0.0  0.007331370834113428  0.9993116669546074  1.0000
  Ga  Ga4       1.0  0.0025000001381564755  0.004117084883846906  0.9994305246865416  1.0000
  Ga  Ga5       1.0  0.010000000552625902  0.007906493273219052  2.008624506285034e-05  1.0000
  Ga  Ga6       1.0  0.0025000001381564755  0.007688513364513629  0.9996682404723637  1.0000
  Ga  Ga7       1.0  0.010000000552625902  0.004475167354038553  0.9997849573761419  1.0000
  Ga  Ga8       1.0  0.00249999970641749  0.0013436199304045565  0.9999243811687112  1.0000
  Rh  Rh1       1.0  0.0  0.002331370643513545  0.9993116670776883  1.0000
  Rh  Rh2       1.0  0.0025000001381564755  0.009117084897965417  0.9994305251311278  1.0000
  Rh  Rh3       1.0  0.0  0.005902799300661641  0.9995493825799009  1.0000
  Rh  Rh4       1.0  0.0025000001381564755  0.005545656417298693  0.999192809061248  1.0000
  Rh  Rh5       1.0  0.0  0.009454343625056835  0.999780494069127  1.0000
  Rh  Rh6       1.0  0.0025000001381564755  0.006397518944103532  0.9999034459990104  1.0000
  Rh  Rh7       1.0  0.010000000552625902  0.0030144843288832995  3.975127420049702e-06  1.0000
  Rh  Rh8       1.0  0.0025000001381564755  0.002688513526876492  0.9996682405963413  1.0000
  Ga  Ga9       1.0  0.005000000276312951  0.0009027992865431309  0.9995493827034302  1.0000
  Ga  Ga10      1.0  0.007500000414469426  0.0005456563590598409  0.9991928091846651  1.0000
  Ga  Ga11      1.0  0.005000000276312951  0.007331370834113428  0.9993116669546074  1.0000
  Ga  Ga12      1.0  0.007500000414469426  0.004117084883846906  0.9994305246865416  1.0000
  Ga  Ga13      1.0  0.005000000276312951  0.007906493273219052  2.008624506285034e-05  1.0000
  Ga  Ga14      1.0  0.007500000414469426  0.007688513364513629  0.9996682404723637  1.0000
  Ga  Ga15      1.0  0.005000000276312951  0.004475167354038553  0.9997849573761419  1.0000
  Ga  Ga16      1.0  0.007500000414469426  0.0013436199304045565  0.9999243811687112  1.0000
  Rh  Rh9       1.0  0.005000000276312951  0.002331370643513545  0.9993116670776883  1.0000
  Rh  Rh10      1.0  0.007500000414469426  0.009117084897965417  0.9994305251311278  1.0000
  Rh  Rh11      1.0  0.005000000276312951  0.005902799300661641  0.9995493825799009  1.0000
  Rh  Rh12      1.0  0.007500000414469426  0.005545656417298693  0.999192809061248  1.0000
  Rh  Rh13      1.0  0.005000000276312951  0.009454343625056835  0.999780494069127  1.0000
  Rh  Rh14      1.0  0.007500000414469426  0.006397518944103532  0.9999034459990104  1.0000
  Rh  Rh15      1.0  0.004999999844573965  0.0030144843288832995  3.975127420049702e-06  1.0000
  Rh  Rh16      1.0  0.007500000414469426  0.002688513526876492  0.9996682405963413  1.0000
