data_image0
_chemical_formula_structural       COSnSe2SnSe2SnSe2SnSe2SnSe2SnSe2SnSe2SnSe2
_chemical_formula_sum              "C1 O1 Sn8 Se16"
_cell_length_a       7.807335376739502
_cell_length_b       7.807335255143047
_cell_length_c       104.7945785522461
_cell_angle_alpha    90.0
_cell_angle_beta     90.0
_cell_angle_gamma    120.00000051520504

_space_group_name_H-M_alt    "P 1"
_space_group_IT_number       1

loop_
  _space_group_symop_operation_xyz
  'x, y, z'

loop_
  _atom_site_type_symbol
  _atom_site_label
  _atom_site_symmetry_multiplicity
  _atom_site_fract_x
  _atom_site_fract_y
  _atom_site_fract_z
  _atom_site_occupancy
  C   C1        1.0  0.0016666683610238322  0.004166667676775335  8.999800063848522e-05  1.0000
  O   O1        1.0  0.0016666683610238322  0.004166667676775335  0.00020450797323895108  1.0000
  Sn  Sn1       1.0  1.125089437383672e-09  0.0008333333838387668  0.9993305597083789  1.0000
  Se  Se1       1.0  0.0033333343078053544  0.0024999999449031637  0.9991770251589206  1.0000
  Se  Se2       1.0  0.0016666677802334305  0.004166666574838606  0.9988200416971985  1.0000
  Sn  Sn2       1.0  0.009999999144360628  0.0008333341414202678  0.0  1.0000
  Se  Se3       1.0  0.0033333377216892613  0.0025000010468398926  0.9998494353146032  1.0000
  Se  Se4       1.0  0.0016666677802334305  0.004166666574838606  0.9994840945422254  1.0000
  Sn  Sn3       1.0  1.151827303148185e-09  0.005833333480258231  0.9993305597083789  1.0000
  Se  Se5       1.0  0.003333334428622817  0.007500000110193673  0.9991770251589206  1.0000
  Se  Se6       1.0  0.0016666677817627454  0.009166666740129116  0.9988200416971985  1.0000
  Sn  Sn4       1.0  0.00999999865028341  0.005833334031226595  0.0  1.0000
  Se  Se7       1.0  0.0033333377828626493  0.007500001212130402  0.9998494353146032  1.0000
  Se  Se8       1.0  0.0016666677817627454  0.009166666740129116  0.9994840945422254  1.0000
  Sn  Sn5       1.0  0.005000001227677244  0.0008333333838387668  0.9993305597083789  1.0000
  Se  Se9       1.0  0.008333333992884646  0.0024999999449031637  0.9991770251589206  1.0000
  Se  Se10      1.0  0.006666667823177164  0.004166666574838606  0.9988200416971985  1.0000
  Sn  Sn6       1.0  0.0049999987435524525  0.0008333341414202678  0.0  1.0000
  Se  Se11      1.0  0.008333337406768553  0.0025000010468398926  0.9998494353146032  1.0000
  Se  Se12      1.0  0.006666667823177164  0.004166666574838606  0.9994840945422254  1.0000
  Sn  Sn7       1.0  0.005000001075482889  0.005833333480258231  0.9993305597083789  1.0000
  Se  Se13      1.0  0.008333334113702106  0.007500000110193673  0.9991770251589206  1.0000
  Se  Se14      1.0  0.006666667705418331  0.009166666740129116  0.9988200416971985  1.0000
  Sn  Sn8       1.0  0.004999998726627823  0.005833334031226595  0.0  1.0000
  Se  Se15      1.0  0.008333337527586013  0.007500001212130402  0.9998494353146032  1.0000
  Se  Se16      1.0  0.006666667705418331  0.009166666740129116  0.9994840945422254  1.0000
