data_image0
_chemical_formula_structural       HCo2Re6Co2Re6Co2Re6Co2Re6
_chemical_formula_sum              "H1 Co8 Re24"
_cell_length_a       5.4298151087375
_cell_length_b       8.727677345275879
_cell_length_c       31.99129295349121
_cell_angle_alpha    90.0
_cell_angle_beta     59.99999888133753
_cell_angle_gamma    90.0

_space_group_name_H-M_alt    "P 1"
_space_group_IT_number       1

loop_
  _space_group_symop_operation_xyz
  'x, y, z'

loop_
  _atom_site_type_symbol
  _atom_site_label
  _atom_site_symmetry_multiplicity
  _atom_site_fract_x
  _atom_site_fract_y
  _atom_site_fract_z
  _atom_site_occupancy
  H   H1        1.0  0.008302487339983464  0.002499999948779633  0.999606199311393  1.0000
  Co  Co1       1.0  0.006803838330734522  0.0037499561724393888  0.9994225993699495  1.0000
  Co  Co2       1.0  0.0031556821099483355  0.0012499672146968196  0.9989636097610112  1.0000
  Re  Re1       1.0  0.0033295588075881307  0.0012499665744422335  0.998054670841712  1.0000
  Re  Re2       1.0  0.008338752682258454  0.0012499603853145663  0.9989013673142049  1.0000
  Re  Re3       1.0  0.008338839033970187  0.0012499665744422335  0.9980546705412877  1.0000
  Re  Re4       1.0  0.00667114347741569  0.0037499621481488603  0.9986204370502718  1.0000
  Re  Re5       1.0  0.0019495881447978965  0.003750039832371993  0.9993732761651404  1.0000
  Re  Re6       1.0  0.0016611608511582702  0.003749963855494424  0.9986204610934495  1.0000
  Co  Co3       1.0  0.006669078958509501  0.0037499664165127687  0.9977712659538418  1.0000
  Co  Co4       1.0  0.003335745630457618  0.0012499665744422335  0.9972055061042201  1.0000
  Re  Re7       1.0  0.0033295588075881307  0.0012499665744422335  0.9963573914432436  1.0000
  Re  Re8       1.0  0.008338839033970187  0.0012499665744422335  0.9972044560127377  1.0000
  Re  Re9       1.0  0.008338839033970187  0.0012499665744422335  0.9963573916086074  1.0000
  Re  Re10      1.0  0.006675266177487758  0.0037499664165127687  0.9969221011827346  1.0000
  Re  Re11      1.0  0.0016659853569425483  0.0037499664165127687  0.9977723155963438  1.0000
  Re  Re12      1.0  0.0016659853569425483  0.0037499664165127687  0.9969221010677938  1.0000
  Co  Co5       1.0  0.006803838330734522  0.008749956496835045  0.9994225993699495  1.0000
  Co  Co6       1.0  0.0031556821099483355  0.006249967218965183  0.9989636097610112  1.0000
  Re  Re13      1.0  0.0033295588075881307  0.006249966792128792  0.998054670841712  1.0000
  Re  Re14      1.0  0.008338752682258454  0.00624996038958293  0.9989013673142049  1.0000
  Re  Re15      1.0  0.008338839033970187  0.006249966792128792  0.9980546705412877  1.0000
  Re  Re16      1.0  0.00667114347741569  0.008749962472544517  0.9986204370502718  1.0000
  Re  Re17      1.0  0.0019495881447978965  0.00875004015676765  0.9993732761651404  1.0000
  Re  Re18      1.0  0.0016611608511582702  0.008749964179890081  0.9986204610934495  1.0000
  Co  Co7       1.0  0.006669078958509501  0.008749966740908426  0.9977712659538418  1.0000
  Co  Co8       1.0  0.003335745630457618  0.006249966792128792  0.9972055061042201  1.0000
  Re  Re19      1.0  0.0033295588075881307  0.006249966792128792  0.9963573914432436  1.0000
  Re  Re20      1.0  0.008338839033970187  0.006249966792128792  0.9972044560127377  1.0000
  Re  Re21      1.0  0.008338839033970187  0.006249966792128792  0.9963573916086074  1.0000
  Re  Re22      1.0  0.006675266177487758  0.008749966740908426  0.9969221011827346  1.0000
  Re  Re23      1.0  0.0016659853569425483  0.008749966740908426  0.9977723155963438  1.0000
  Re  Re24      1.0  0.0016659853569425483  0.008749966740908426  0.9969221010677938  1.0000
