data_image0
_chemical_formula_structural       CORh16Sb48
_chemical_formula_sum              "C1 O1 Rh16 Sb48"
_cell_length_a       8.167009353637695
_cell_length_b       13.336670875549316
_cell_length_c       116.1995849609375
_cell_angle_alpha    90.0
_cell_angle_beta     90.0
_cell_angle_gamma    90.0

_space_group_name_H-M_alt    "P 1"
_space_group_IT_number       1

loop_
  _space_group_symop_operation_xyz
  'x, y, z'

loop_
  _atom_site_type_symbol
  _atom_site_label
  _atom_site_symmetry_multiplicity
  _atom_site_fract_x
  _atom_site_fract_y
  _atom_site_fract_z
  _atom_site_occupancy
  C   C1        1.0  0.004620791973094668  0.002417407708888397  8.957604724647472e-05  1.0000
  O   O1        1.0  0.004620791973094668  0.002417407708888397  0.0001928468491407249  1.0000
  Rh  Rh1       1.0  0.008003711583620688  0.009998388485176424  0.9997978954187489  1.0000
  Rh  Rh2       1.0  0.004636321676565002  0.00500161097851602  0.9994638158339654  1.0000
  Rh  Rh3       1.0  0.0013029885789034102  1.610849998389667e-06  0.9991324923326609  1.0000
  Rh  Rh4       1.0  0.007969655344400162  0.00500161097851602  0.9988011688313564  1.0000
  Rh  Rh5       1.0  0.007969655344400162  0.007501610889131428  0.9992981538268378  1.0000
  Rh  Rh6       1.0  0.004636321676565002  0.00250161078857376  0.9989668303255334  1.0000
  Rh  Rh7       1.0  0.004644861964354318  0.007496703674986752  0.999949426150283  1.0000
  Rh  Rh8       1.0  0.0013029885789034102  0.00250161078857376  0.9996294773281423  1.0000
  Rh  Rh9       1.0  0.0013029885789034102  0.007501610889131428  0.9996294773281423  1.0000
  Rh  Rh10      1.0  0.007969655344400162  0.00250161078857376  0.9992981538268378  1.0000
  Rh  Rh11      1.0  0.004636321676565002  0.007501610889131428  0.9989668303255334  1.0000
  Rh  Rh12      1.0  0.004620791973094668  0.002417407708888397  0.9999405177375192  1.0000
  Rh  Rh13      1.0  0.004636321676565002  1.610849998389667e-06  0.9994638158339654  1.0000
  Rh  Rh14      1.0  0.0013029885789034102  0.00500161097851602  0.9991324923326609  1.0000
  Rh  Rh15      1.0  0.007969655344400162  1.610849998389667e-06  0.9988011688313564  1.0000
  Rh  Rh16      1.0  0.007948035274932768  0.005032953685981056  0.99980021292948  1.0000
  Sb  Sb1       1.0  0.0099087271624047  0.0007907740400934949  0.9999671080698075  1.0000
  Sb  Sb2       1.0  0.006266636296333491  0.005925340410495525  0.9996312839400934  1.0000
  Sb  Sb3       1.0  0.0029333028565677573  0.000925340449601284  0.9992999604387889  1.0000
  Sb  Sb4       1.0  0.009599969508029795  0.005925340410495525  0.9989686369374844  1.0000
  Sb  Sb5       1.0  0.0029333028565677573  0.0007761138495670175  0.999637559377518  1.0000
  Sb  Sb6       1.0  0.009599969508029795  0.005776113950124685  0.9993062358762135  1.0000
  Sb  Sb7       1.0  0.006266636296333491  0.0007761138495670175  0.998974912374909  1.0000
  Sb  Sb8       1.0  0.005978771169951645  0.005770142500671994  0.9999566767067647  1.0000
  Sb  Sb9       1.0  0.0029333028565677573  0.00830337783750496  0.9994539271726387  1.0000
  Sb  Sb10      1.0  0.009599969508029795  0.003303378295600998  0.9991226036713342  1.0000
  Sb  Sb11      1.0  0.006266636296333491  0.00830337783750496  0.9987912801700297  1.0000
  Sb  Sb12      1.0  0.006350373355126796  0.0032796969650462624  0.9997851598816901  1.0000
  Sb  Sb13      1.0  0.0008679613692171811  0.009227107828138171  0.9997402038667511  1.0000
  Sb  Sb14      1.0  0.0075346279636618625  0.004227107727580503  0.9994088803654467  1.0000
  Sb  Sb15      1.0  0.004201294751965557  0.009227107828138171  0.9990775568641422  1.0000
  Sb  Sb16      1.0  0.0008679613692171811  0.004227107727580503  0.9987462331063625  1.0000
  Sb  Sb17      1.0  0.009670899100041687  0.006750151265546394  0.9998131690352892  1.0000
  Sb  Sb18      1.0  0.006339341180770529  0.0016998434212099486  0.9994737039823415  1.0000
  Sb  Sb19      1.0  0.003006007741004796  0.00669984338210419  0.999142380481037  1.0000
  Sb  Sb20      1.0  0.009672674392466834  0.0016998434212099486  0.9988110569797325  1.0000
  Sb  Sb21      1.0  0.006339341180770529  0.009227107828138171  0.9992900722904128  1.0000
  Sb  Sb22      1.0  0.003006007741004796  0.004227107727580503  0.9989587487891083  1.0000
  Sb  Sb23      1.0  0.002739934648438823  0.009253474607052817  0.9999533640719038  1.0000
  Sb  Sb24      1.0  0.009672674392466834  0.004227107727580503  0.9996213957917173  1.0000
  Sb  Sb25      1.0  0.008404682268999607  0.0016998434212099486  0.9996789929608079  1.0000
  Sb  Sb26      1.0  0.005071349057303301  0.00669984338210419  0.9993476694595034  1.0000
  Sb  Sb27      1.0  0.0017380157315722822  0.0016998434212099486  0.9990163459581989  1.0000
  Sb  Sb28      1.0  0.001909982588814979  0.006343155840500131  0.0  1.0000
  Sb  Sb29      1.0  0.0075785970124875495  0.008320444149538852  0.9999268440138454  1.0000
  Sb  Sb30      1.0  0.004201294751965557  0.003303378295600998  0.9995799616954768  1.0000
  Sb  Sb31      1.0  0.0008679613692171811  0.00830337783750496  0.9992486381941723  1.0000
  Sb  Sb32      1.0  0.0075346279636618625  0.003303378295600998  0.9989173146928678  1.0000
  Sb  Sb33      1.0  0.005031910379589268  0.000703200602605897  0.9998472351093647  1.0000
  Sb  Sb34      1.0  0.0017380157315722822  0.005776113950124685  0.9995187513024841  1.0000
  Sb  Sb35      1.0  0.008404682268999607  0.0007761138495670175  0.9991874278011796  1.0000
  Sb  Sb36      1.0  0.005071349057303301  0.005776113950124685  0.9988561042998751  1.0000
  Sb  Sb37      1.0  0.0017381700205401152  0.0025912909091828943  0.9998563281843381  1.0000
  Sb  Sb38      1.0  0.008404682268999607  0.007528874865896296  0.999525026226958  1.0000
  Sb  Sb39      1.0  0.005071349057303301  0.0025288750446654813  0.9991937027256536  1.0000
  Sb  Sb40      1.0  0.0017380157315722822  0.007528874865896296  0.9988623792243492  1.0000
  Sb  Sb41      1.0  0.0008679613692171811  0.0024743465324820395  0.9994026049280221  1.0000
  Sb  Sb42      1.0  0.0075346279636618625  0.007474346353712854  0.9990712814267176  1.0000
  Sb  Sb43      1.0  0.004201294751965557  0.0024743465324820395  0.9987399579254131  1.0000
  Sb  Sb44      1.0  0.004201294751965557  0.007474346353712854  0.9997339284293266  1.0000
  Sb  Sb45      1.0  0.006339341180770529  0.009077880809113625  0.9996276707161913  1.0000
  Sb  Sb46      1.0  0.003006007741004796  0.004077881267209663  0.9992963472148868  1.0000
  Sb  Sb47      1.0  0.009672674392466834  0.009077880809113625  0.9989650237135823  1.0000
  Sb  Sb48      1.0  9.127324954570394e-05  0.004429725001864563  0.9999641647593659  1.0000
