data_image0
_chemical_formula_structural       COCa2Si4Zn4Ca2Si4Zn4
_chemical_formula_sum              "C1 O1 Ca4 Si8 Zn8"
_cell_length_a       5.96798448031408
_cell_length_b       8.586322784423828
_cell_length_c       101.7605972290039
_cell_angle_alpha    90.0
_cell_angle_beta     86.45901329851624
_cell_angle_gamma    111.0807100530764

_space_group_name_H-M_alt    "P 1"
_space_group_IT_number       1

loop_
  _space_group_symop_operation_xyz
  'x, y, z'

loop_
  _atom_site_type_symbol
  _atom_site_label
  _atom_site_symmetry_multiplicity
  _atom_site_fract_x
  _atom_site_fract_y
  _atom_site_fract_z
  _atom_site_occupancy
  C   C1        1.0  0.0020959167987945455  0.0038114670345189244  5.090951436377019e-05  1.0000
  O   O1        1.0  0.0020959167987945455  0.0038114670345189244  0.00016883358955065215  1.0000
  Ca  Ca1       1.0  0.0013016622038777906  0.0002800329859032035  0.9997551874599615  1.0000
  Ca  Ca2       1.0  0.009053762685971304  0.004719967057336881  0.9993531698745777  1.0000
  Si  Si1       1.0  0.0046588644038418415  0.0036184776929546955  0.9998892215085669  1.0000
  Si  Si2       1.0  0.0009462370726649483  0.0026906438713838843  0.9999965725339418  1.0000
  Si  Si3       1.0  0.0023235675656940627  0.0030374182772675714  0.999503210531301  1.0000
  Si  Si4       1.0  0.008283957819657642  0.0020275157663237945  0.9995932681164017  1.0000
  Zn  Zn1       1.0  0.007051507592295137  0.0017171755078870174  0.9998866072506388  1.0000
  Zn  Zn2       1.0  0.005928762551880333  0.003938717023814139  0.9996457739809187  1.0000
  Zn  Zn3       1.0  0.004678762498243945  0.001126216912243471  0.9994507046679982  1.0000
  Zn  Zn4       1.0  0.003428762779834983  0.003313717080802802  0.9992556353538635  1.0000
  Ca  Ca3       1.0  0.0013016622038777906  0.005280033294081725  0.9997551874599615  1.0000
  Ca  Ca4       1.0  0.009053762685971304  0.009719967118077743  0.9993531698745777  1.0000
  Si  Si5       1.0  0.0046588644038418415  0.008618477970627205  0.9998892215085669  1.0000
  Si  Si6       1.0  0.0009462370726649483  0.007690643932124745  0.9999965725339418  1.0000
  Si  Si7       1.0  0.0023235675656940627  0.008037418338008433  0.999503210531301  1.0000
  Si  Si8       1.0  0.008283957819657642  0.007027515762663073  0.9995932681164017  1.0000
  Zn  Zn5       1.0  0.007051507592295137  0.0067171757516639565  0.9998866072506388  1.0000
  Zn  Zn6       1.0  0.005928762551880333  0.008938717084554999  0.9996457739809187  1.0000
  Zn  Zn7       1.0  0.004678762498243945  0.006126216932309649  0.9994507046679982  1.0000
  Zn  Zn8       1.0  0.003428762779834983  0.008313717141543664  0.9992556353538635  1.0000
