data_image0
_chemical_formula_structural       HAl6Ni10Al6Ni10
_chemical_formula_sum              "H1 Al12 Ni20"
_cell_length_a       7.5970072746276855
_cell_length_b       5.051436807144158
_cell_length_c       39.868980407714844
_cell_angle_alpha    87.21649417961275
_cell_angle_beta     90.0
_cell_angle_gamma    90.0

_space_group_name_H-M_alt    "P 1"
_space_group_IT_number       1

loop_
  _space_group_symop_operation_xyz
  'x, y, z'

loop_
  _atom_site_type_symbol
  _atom_site_label
  _atom_site_symmetry_multiplicity
  _atom_site_fract_x
  _atom_site_fract_y
  _atom_site_fract_z
  _atom_site_occupancy
  H   H1        1.0  0.005000000215759664  0.005118250742808047  9.226220473634442e-05  1.0000
  Al  Al1       1.0  0.001250000053939916  0.008699193290472133  0.9999464749070021  1.0000
  Al  Al2       1.0  0.001250000053939916  0.00038940426134226466  0.9986835772991067  1.0000
  Al  Al3       1.0  0.00375000003922903  0.0036492765199885985  0.9983316271795354  1.0000
  Al  Al4       1.0  0.00375000003922903  0.001936657746071025  0.9996052806610222  1.0000
  Al  Al5       1.0  0.00375000003922903  0.008796198211590216  0.9977759425217664  1.0000
  Al  Al6       1.0  0.00375000003922903  0.007129531663058356  0.9990355273759173  1.0000
  Ni  Ni1       1.0  0.001250000053939916  0.004564212889745634  0.9993005918142666  1.0000
  Ni  Ni2       1.0  0.001250000053939916  0.0062227377349606825  0.9980537848483794  1.0000
  Ni  Ni3       1.0  0.001250000053939916  0.005389404091523478  0.9986835772777264  1.0000
  Ni  Ni4       1.0  0.001250000053939916  0.003725155984019479  0.999906199499741  1.0000
  Ni  Ni5       1.0  0.001250000053939916  0.0012227376279010129  0.9980537848714633  1.0000
  Ni  Ni6       1.0  0.001250000053939916  0.009610595214434524  0.9993133593656318  1.0000
  Ni  Ni7       1.0  0.00375000003922903  0.006844762539348342  0.9996592486713383  1.0000
  Ni  Ni8       1.0  0.00375000003922903  0.008530749297428667  0.998402641114218  1.0000
  Ni  Ni9       1.0  0.00375000003922903  0.0039147254341501455  0.9977049282133305  1.0000
  Ni  Ni10      1.0  0.00375000003922903  0.0022480588856182873  0.9989645130674815  1.0000
  Al  Al7       1.0  0.006250000392290297  0.008699193290472133  0.9999464749070021  1.0000
  Al  Al8       1.0  0.006250000392290297  0.00038940426134226466  0.9986835772991067  1.0000
  Al  Al9       1.0  0.008750000745351564  0.0036492765199885985  0.9983316271795354  1.0000
  Al  Al10      1.0  0.008749999764625822  0.001936657746071025  0.9996052806610222  1.0000
  Al  Al11      1.0  0.008750000745351564  0.008796198211590216  0.9977759425217664  1.0000
  Al  Al12      1.0  0.008750000745351564  0.007129531663058356  0.9990355273759173  1.0000
  Ni  Ni11      1.0  0.006250000392290297  0.004564212889745634  0.9993005918142666  1.0000
  Ni  Ni12      1.0  0.006250000392290297  0.0062227377349606825  0.9980537848483794  1.0000
  Ni  Ni13      1.0  0.006250000392290297  0.005389404091523478  0.9986835772777264  1.0000
  Ni  Ni14      1.0  0.006250000392290297  0.003725155984019479  0.999906199499741  1.0000
  Ni  Ni15      1.0  0.006250000392290297  0.0012227376279010129  0.9980537848714633  1.0000
  Ni  Ni16      1.0  0.006250000392290297  0.009610595214434524  0.9993133593656318  1.0000
  Ni  Ni17      1.0  0.008749999764625822  0.006844762539348342  0.9996592486713383  1.0000
  Ni  Ni18      1.0  0.008750000745351564  0.008530749297428667  0.998402641114218  1.0000
  Ni  Ni19      1.0  0.008750000745351564  0.0039147254341501455  0.9977049282133305  1.0000
  Ni  Ni20      1.0  0.008750000745351564  0.0022480588856182873  0.9989645130674815  1.0000
