data_image0
_chemical_formula_structural       Al15Cu15H
_chemical_formula_sum              "Al15 Cu15 H1"
_cell_length_a       6.447972137564412
_cell_length_b       8.70995774060405
_cell_length_c       38.86492919921875
_cell_angle_alpha    91.07605146555504
_cell_angle_beta     95.58233322422514
_cell_angle_gamma    89.94885932147986

_space_group_name_H-M_alt    "P 1"
_space_group_IT_number       1

loop_
  _space_group_symop_operation_xyz
  'x, y, z'

loop_
  _atom_site_type_symbol
  _atom_site_label
  _atom_site_symmetry_multiplicity
  _atom_site_fract_x
  _atom_site_fract_y
  _atom_site_fract_z
  _atom_site_occupancy
  Al  Al1       1.0  0.00459064805741104  0.0049802846119362575  0.9990080087084579  1.0000
  Al  Al2       1.0  0.006257314970618532  0.008313618190530342  0.9983404172997197  1.0000
  Al  Al3       1.0  0.002962668933684984  0.001727936596452552  0.9997400252617592  1.0000
  Al  Al4       1.0  0.003037646622762561  0.004991154939123498  0.9997203610383181  1.0000
  Al  Al5       1.0  0.004900007624477186  0.008337711636984229  0.9990385821496637  1.0000
  Al  Al6       1.0  0.006566674332393854  0.0016710446936862517  0.9983709910114703  1.0000
  Al  Al7       1.0  0.0024954010380779587  0.008373233664018745  0.9996532771826036  1.0000
  Al  Al8       1.0  0.004281288780866933  0.0016228578007784753  0.998977435272841  1.0000
  Al  Al9       1.0  0.005947955693801927  0.0049561911654823695  0.9983098438631982  1.0000
  Al  Al10      1.0  0.00854315035697462  0.005461804044445136  0.9994504200205825  1.0000
  Al  Al11      1.0  0.0002279972567700758  0.008776844450731637  0.9987698411883269  1.0000
  Al  Al12      1.0  0.006901134168644564  0.0020497391983880305  0.0001055822290946944  1.0000
  Al  Al13      1.0  0.00746326972288315  0.007866504706049583  0.9999336371740866  1.0000
  Al  Al14      1.0  0.008953299057871062  0.0011837249870310677  0.9992461762327138  1.0000
  Al  Al15      1.0  0.0006199656283115975  0.004517058351734962  0.9985785852009526  1.0000
  Cu  Cu1       1.0  0.00688477206567713  0.0049557283071132935  9.618560443255525e-07  1.0000
  Cu  Cu2       1.0  0.008757314947398568  0.008313618190530342  0.9993418044736461  1.0000
  Cu  Cu3       1.0  0.0004239814580817997  0.001646951354177458  0.9986742129493108  1.0000
  Cu  Cu4       1.0  0.005861214200816515  0.00013056980062313295  0.9995253066701498  1.0000
  Cu  Cu5       1.0  0.007530354017706214  0.0034244724020329547  0.9988695987379582  1.0000
  Cu  Cu6       1.0  0.004285175867683331  0.006937793933031139  0.00015254236800744275  1.0000
  Cu  Cu7       1.0  0.0016509420973883644  0.00653609703572975  0.9991464190632711  1.0000
  Cu  Cu8       1.0  0.003317608720346316  0.009869430614323833  0.9984788276498486  1.0000
  Cu  Cu9       1.0  0.009772002245959468  0.003182483031081742  0.999799724731566  1.0000
  Cu  Cu10      1.0  0.0030668090162821464  0.0068302619238339015  0.9985294331732733  1.0000
  Cu  Cu11      1.0  0.009755350374470331  0.00022194919705212365  0.9998712525472974  1.0000
  Cu  Cu12      1.0  0.0014001423938691923  0.0034969287730201967  0.9991970245885049  1.0000
  Cu  Cu13      1.0  0.007781153430703348  0.006463640450852319  0.9988189928237265  1.0000
  Cu  Cu14      1.0  0.004674100877847868  0.009764555976835192  0.00013741349034913854  1.0000
  Cu  Cu15      1.0  0.0059734234119971545  0.0031277320621626078  0.9994790533069535  1.0000
  H   H1        1.0  0.00276652383042026  0.006682194301571121  7.27713907219432e-05  1.0000
