data_image0
_chemical_formula_structural       COAl6Ni12V6
_chemical_formula_sum              "C1 O1 Al6 Ni12 V6"
_cell_length_a       7.150273686054122
_cell_length_b       5.838173866271973
_cell_length_c       101.43952941894531
_cell_angle_alpha    90.0
_cell_angle_beta     85.65224682611782
_cell_angle_gamma    114.09484188898999

_space_group_name_H-M_alt    "P 1"
_space_group_IT_number       1

loop_
  _space_group_symop_operation_xyz
  'x, y, z'

loop_
  _atom_site_type_symbol
  _atom_site_label
  _atom_site_symmetry_multiplicity
  _atom_site_fract_x
  _atom_site_fract_y
  _atom_site_fract_z
  _atom_site_occupancy
  C   C1        1.0  0.0060983143199001165  0.008257490705980624  0.00012866370417437644  1.0000
  O   O1        1.0  0.0060983143199001165  0.008257490705980624  0.0002469604350719581  1.0000
  Al  Al1       1.0  0.003541666689574859  0.006979166890817997  0.9995268610352155  1.0000
  Al  Al2       1.0  0.005208333333333334  0.0028125000779003623  0.9997851390659905  1.0000
  Al  Al3       1.0  0.0018750000458163851  0.0011458333743207907  0.9992685830044404  1.0000
  Al  Al4       1.0  0.009374999656377114  0.009895833374219124  0.9996560002816597  1.0000
  Al  Al5       1.0  0.0010416665807609449  0.00572916683641104  0.9999142784402045  1.0000
  Al  Al6       1.0  0.007708333012618639  0.004062499917543015  0.9993977219570906  1.0000
  Ni  Ni1       1.0  0.002291666563579801  0.008854166725725794  0.9997205695911956  1.0000
  Ni  Ni2       1.0  0.003958333207338275  0.004687499932748526  0.9999788479157646  1.0000
  Ni  Ni3       1.0  0.0006249999914094279  0.0030208333247841025  0.999462291560038  1.0000
  Ni  Ni4       1.0  0.002291666563579801  0.0038541666108692888  0.9997205695911956  1.0000
  Ni  Ni5       1.0  0.003958333207338275  0.009687500047605033  0.9999788479157646  1.0000
  Ni  Ni6       1.0  0.0006249999914094279  0.008020833439640608  0.999462291560038  1.0000
  Ni  Ni7       1.0  0.00812499981673446  0.0017708332821130383  0.9998497085423157  1.0000
  Ni  Ni8       1.0  0.004791666529217512  0.00010416663835456385  0.9993331524807655  1.0000
  Ni  Ni9       1.0  0.006458333172975986  0.005937499915567382  0.9995914305115405  1.0000
  Ni  Ni10      1.0  0.00812499981673446  0.00677083323744662  0.9998497085423157  1.0000
  Ni  Ni11      1.0  0.004791666529217512  0.005104166593688144  0.9993331524807655  1.0000
  Ni  Ni12      1.0  0.006458333172975986  0.0009374999602338013  0.9995914305115405  1.0000
  V   V1        1.0  0.005208333333333334  0.007812500212697235  0.9997851390659905  1.0000
  V   V2        1.0  0.0018750000458163851  0.00614583356893876  0.9992685830044404  1.0000
  V   V3        1.0  0.003541666689574859  0.001979166696200028  0.9995268610352155  1.0000
  V   V4        1.0  0.0010416665807609449  0.0007291666417930707  0.9999142784402045  1.0000
  V   V5        1.0  0.007708333012618639  0.009062500052339887  0.9993977219570906  1.0000
  V   V6        1.0  0.009374999656377114  0.004895833179601156  0.9996560002816597  1.0000
