data_image0
_chemical_formula_structural       COSi3Sn3Pt15Si3Sn3Pt15
_chemical_formula_sum              "C1 O1 Si6 Sn6 Pt30"
_cell_length_a       8.061318397521973
_cell_length_b       10.766284690082063
_cell_length_c       102.7839584350586
_cell_angle_alpha    77.94065238760446
_cell_angle_beta     90.0
_cell_angle_gamma    90.0

_space_group_name_H-M_alt    "P 1"
_space_group_IT_number       1

loop_
  _space_group_symop_operation_xyz
  'x, y, z'

loop_
  _atom_site_type_symbol
  _atom_site_label
  _atom_site_symmetry_multiplicity
  _atom_site_fract_x
  _atom_site_fract_y
  _atom_site_fract_z
  _atom_site_occupancy
  C   C1        1.0  0.00333333328712141  0.009508942708163026  0.9998758876949265  1.0000
  O   O1        1.0  0.00333333328712141  0.009508942708163026  0.9999926370875045  1.0000
  Si  Si1       1.0  0.0  0.008011148818361156  0.9995288564240564  1.0000
  Si  Si2       1.0  0.0  0.0013408911116322148  0.9992634588522307  1.0000
  Si  Si3       1.0  0.010000000554543084  0.004791874308715302  0.9997876679871526  1.0000
  Sn  Sn1       1.0  0.002500000138635771  0.004674224358868684  0.9993963585812657  1.0000
  Sn  Sn2       1.0  0.002500000138635771  0.00800755751764947  0.9991305587248522  1.0000
  Sn  Sn3       1.0  0.002500000138635771  0.0012478474097356888  0.9996815270326522  1.0000
  Pt  Pt1       1.0  0.002500000138635771  0.007327590901758158  0.9994208176946126  1.0000
  Pt  Pt2       1.0  0.002500000138635771  0.0006609243188295377  0.9991550176585761  1.0000
  Pt  Pt3       1.0  0.002500000369695389  0.004133827364783558  0.999697337890459  1.0000
  Pt  Pt4       1.0  0.002500000138635771  0.00866426453490189  0.9996402764584605  1.0000
  Pt  Pt5       1.0  0.002500000138635771  0.0020208578159792096  0.9993719000478211  1.0000
  Pt  Pt6       1.0  0.002500000138635771  0.005354190974759996  0.9991060999014565  1.0000
  Pt  Pt7       1.0  0.010000000554543084  0.005653301742379372  0.9995500493984889  1.0000
  Pt  Pt8       1.0  0.0  0.008994257304237186  0.999287917915253  1.0000
  Pt  Pt9       1.0  0.0  0.002390013631119752  0.9997981658094308  1.0000
  Pt  Pt10      1.0  1.00000005422966e-10  0.007064673722680695  0.9997634337183893  1.0000
  Pt  Pt11      1.0  0.0  0.00035419114813313386  0.999504799832988  1.0000
  Pt  Pt12      1.0  0.0  0.003687524572280968  0.9992389999707673  1.0000
  Pt  Pt13      1.0  0.0  0.006340891115170442  0.999263458794163  1.0000
  Pt  Pt14      1.0  0.0  0.009645808416664908  0.9997889093221933  1.0000
  Pt  Pt15      1.0  0.0  0.0030098475432768787  0.9995259926971158  1.0000
  Si  Si4       1.0  0.005000000277271542  0.008011148818361156  0.9995288564240564  1.0000
  Si  Si5       1.0  0.005000000277271542  0.0013408911116322148  0.9992634588522307  1.0000
  Si  Si6       1.0  0.004999999815152306  0.004791874308715302  0.9997876679871526  1.0000
  Sn  Sn4       1.0  0.007500000184847695  0.004674224358868684  0.9993963585812657  1.0000
  Sn  Sn5       1.0  0.007500000184847695  0.00800755751764947  0.9991305587248522  1.0000
  Sn  Sn6       1.0  0.007500000184847695  0.0012478474097356888  0.9996815270326522  1.0000
  Pt  Pt16      1.0  0.007500000184847695  0.007327590901758158  0.9994208176946126  1.0000
  Pt  Pt17      1.0  0.007500000184847695  0.0006609243188295377  0.9991550176585761  1.0000
  Pt  Pt18      1.0  0.007500000184847695  0.004133827364783558  0.999697337890459  1.0000
  Pt  Pt19      1.0  0.007500000184847695  0.00866426453490189  0.9996402764584605  1.0000
  Pt  Pt20      1.0  0.007500000184847695  0.0020208578159792096  0.9993719000478211  1.0000
  Pt  Pt21      1.0  0.007500000184847695  0.005354190974759996  0.9991060999014565  1.0000
  Pt  Pt22      1.0  0.005000000277271542  0.005653301742379372  0.9995500493984889  1.0000
  Pt  Pt23      1.0  0.005000000277271542  0.008994257304237186  0.999287917915253  1.0000
  Pt  Pt24      1.0  0.005000000277271542  0.002390013631119752  0.9997981658094308  1.0000
  Pt  Pt25      1.0  0.005000000277271542  0.007064673722680695  0.9997634337183893  1.0000
  Pt  Pt26      1.0  0.005000000277271542  0.00035419114813313386  0.999504799832988  1.0000
  Pt  Pt27      1.0  0.005000000277271542  0.003687524572280968  0.9992389999707673  1.0000
  Pt  Pt28      1.0  0.005000000277271542  0.006340891115170442  0.999263458794163  1.0000
  Pt  Pt29      1.0  0.005000000277271542  0.009645808416664908  0.9997889093221933  1.0000
  Pt  Pt30      1.0  0.005000000277271542  0.0030098475432768787  0.9995259926971158  1.0000
