data_image0
_chemical_formula_structural       COFe8Sb16
_chemical_formula_sum              "C1 O1 Fe8 Sb16"
_cell_length_a       6.659203456180942
_cell_length_b       9.265442912311535
_cell_length_c       107.32134246826172
_cell_angle_alpha    75.84490230832643
_cell_angle_beta     68.49584725654736
_cell_angle_gamma    69.53849705185574

_space_group_name_H-M_alt    "P 1"
_space_group_IT_number       1

loop_
  _space_group_symop_operation_xyz
  'x, y, z'

loop_
  _atom_site_type_symbol
  _atom_site_label
  _atom_site_symmetry_multiplicity
  _atom_site_fract_x
  _atom_site_fract_y
  _atom_site_fract_z
  _atom_site_occupancy
  C   C1        1.0  0.0002999514947640954  0.007763106669335988  0.9998292775052879  1.0000
  O   O1        1.0  0.0002999514947640954  0.007763106669335988  0.9999410909101342  1.0000
  Fe  Fe1       1.0  0.00765117207027708  0.007639659716065304  0.9990438595448524  1.0000
  Fe  Fe2       1.0  0.005151172336964155  0.005139659941233905  0.999261205807779  1.0000
  Fe  Fe3       1.0  0.0004394626063908122  0.0003761680987060579  0.9996654585938753  1.0000
  Fe  Fe4       1.0  0.002747146721761393  0.0026494188436521245  0.9994832736713695  1.0000
  Fe  Fe5       1.0  0.00767329214871669  0.007626588678794345  0.9994860130548199  1.0000
  Fe  Fe6       1.0  0.005415412896488682  0.005281410070626175  0.999663638594872  1.0000
  Fe  Fe7       1.0  0.00015117239743770827  0.0001396599044274992  0.999261205318442  1.0000
  Fe  Fe8       1.0  0.002651172393473187  0.0026396599498942357  0.9990438595992106  1.0000
  Sb  Sb1       1.0  0.007348827514202021  0.008924389478548874  0.9992409588860199  1.0000
  Sb  Sb2       1.0  0.004835647379221419  0.006500119966366323  0.9994482409887302  1.0000
  Sb  Sb3       1.0  0.00984882779770334  0.0014243897210381355  0.9990236132227366  1.0000
  Sb  Sb4       1.0  0.0025344099901829335  0.004024019240400584  0.99967453636392  1.0000
  Sb  Sb5       1.0  0.0003741730723028336  0.008906361267930072  0.9995048928118807  1.0000
  Sb  Sb6       1.0  0.00795701350548051  0.0062035698881212735  0.9997256959334809  1.0000
  Sb  Sb7       1.0  0.002953517295414632  0.0013549300791565319  0.9992814521779236  1.0000
  Sb  Sb8       1.0  0.005453516893039215  0.003854930178750336  0.9990641064666115  1.0000
  Sb  Sb9       1.0  0.004449427591566807  0.00986034000680411  0.9995827958266624  1.0000
  Sb  Sb10      1.0  0.001901672566214  0.007406774760620143  0.9989382062766129  1.0000
  Sb  Sb11      1.0  0.006901672282391306  0.002406774777940804  0.9993728976527797  1.0000
  Sb  Sb12      1.0  0.009401672436060316  0.004906774985788743  0.9991555519265347  1.0000
  Sb  Sb13      1.0  0.000900672056950204  0.005372545329695606  0.9993668591286113  1.0000
  Sb  Sb14      1.0  0.008386760687948185  0.0029625820344638485  0.999581616701698  1.0000
  Sb  Sb15      1.0  0.0034006722106192156  0.007872545537543546  0.9991495134023664  1.0000
  Sb  Sb16      1.0  0.005900672175530705  0.00037254510344446437  0.9989321674829216  1.0000
