data_image0
_chemical_formula_structural       COV12Sb4
_chemical_formula_sum              "C1 O1 V12 Sb4"
_cell_length_a       4.950314044952393
_cell_length_b       7.000801086425781
_cell_length_c       41.996795654296875
_cell_angle_alpha    90.0
_cell_angle_beta     90.0
_cell_angle_gamma    90.0

_space_group_name_H-M_alt    "P 1"
_space_group_IT_number       1

loop_
  _space_group_symop_operation_xyz
  'x, y, z'

loop_
  _atom_site_type_symbol
  _atom_site_label
  _atom_site_symmetry_multiplicity
  _atom_site_fract_x
  _atom_site_fract_y
  _atom_site_fract_z
  _atom_site_occupancy
  C   C1        1.0  0.005000000346166631  0.0025257619151886858  0.00020292459389449266  1.0000
  O   O1        1.0  0.005000000346166631  0.0025257619151886858  0.0004886605489695534  1.0000
  V   V1        1.0  0.009999996929652486  0.006147421395407793  0.9999999943229341  1.0000
  V   V2        1.0  2.0000000010572664e-10  0.00127575448674558  0.9991928620824723  1.0000
  V   V3        1.0  2.0000000010572664e-10  0.0037757544441757054  0.9987761161213867  1.0000
  V   V4        1.0  0.009999999187260952  0.008704522986165676  0.9996840762466745  1.0000
  V   V5        1.0  0.005000001098702786  0.006346996416944744  0.9996840776659411  1.0000
  V   V6        1.0  0.004999999969898554  0.00127575448674558  0.9987761161213867  1.0000
  V   V7        1.0  0.0050000093766004935  0.008904264030213304  0.0  1.0000
  V   V8        1.0  0.004999999969898554  0.0037757544441757054  0.9991928620824723  1.0000
  V   V9        1.0  0.007499961199235837  0.0025257619151886858  0.9997905006540888  1.0000
  V   V10       1.0  0.007499999578579753  0.007525754114259178  0.9989844889245212  1.0000
  V   V11       1.0  0.002500039681231464  0.0025257619151886858  0.9997904999444556  1.0000
  V   V12       1.0  0.0025000001730833155  0.007525754114259178  0.9989844889245212  1.0000
  Sb  Sb1       1.0  0.004999999969898554  0.005025754156829052  0.9985677429634356  1.0000
  Sb  Sb2       1.0  0.005000007495260105  0.009974245055628267  0.999389633091681  1.0000
  Sb  Sb3       1.0  0.00999999316697171  0.005077246144940274  0.999389625640532  1.0000
  Sb  Sb4       1.0  2.0000000010572664e-10  2.5754449829517017e-05  0.9985677429634356  1.0000
