data_image0
_chemical_formula_structural       HCu6Ru18Cu6Ru18
_chemical_formula_sum              "H1 Cu12 Ru36"
_cell_length_a       8.32234115672225
_cell_length_b       8.694523883115881
_cell_length_c       106.84457397460938
_cell_angle_alpha    107.61931119475516
_cell_angle_beta     71.56505117707799
_cell_angle_gamma    78.96324379292908

_space_group_name_H-M_alt    "P 1"
_space_group_IT_number       1

loop_
  _space_group_symop_operation_xyz
  'x, y, z'

loop_
  _atom_site_type_symbol
  _atom_site_label
  _atom_site_symmetry_multiplicity
  _atom_site_fract_x
  _atom_site_fract_y
  _atom_site_fract_z
  _atom_site_occupancy
  H   H1        1.0  0.009882387010123969  0.004742899487555451  0.00011328051349052  1.0000
  Cu  Cu1       1.0  0.00011761338062899521  0.00124999999525902  0.9995352597994855  1.0000
  Cu  Cu2       1.0  0.0034509468413587174  0.00124999999525902  0.9992068383017819  1.0000
  Cu  Cu3       1.0  0.00678428018412882  0.00124999999525902  0.9993710489707315  1.0000
  Cu  Cu4       1.0  0.00845094659112616  0.006250000094819597  0.9994531543922717  1.0000
  Cu  Cu5       1.0  0.0017842801415051915  0.006250000094819597  0.9991247330485615  1.0000
  Cu  Cu6       1.0  0.005117613484275294  0.006250000094819597  0.9992889437175111  1.0000
  Ru  Ru1       1.0  0.0009509466823332012  0.003750000104301557  0.9992068383864857  1.0000
  Ru  Ru2       1.0  0.004284280261022542  0.003750000104301557  0.9993710493285557  1.0000
  Ru  Ru3       1.0  0.007617613367873407  0.003750000104301557  0.9995352600033164  1.0000
  Ru  Ru4       1.0  0.007617613367873407  0.003750000104301557  0.9992889439214425  1.0000
  Ru  Ru5       1.0  0.0009509466823332012  0.003750000104301557  0.9994531547472911  1.0000
  Ru  Ru6       1.0  0.004284280261022542  0.003750000104301557  0.9991247329677504  1.0000
  Ru  Ru7       1.0  0.00845094659112616  0.006250000094819597  0.9992068383103979  1.0000
  Ru  Ru8       1.0  0.0017842801415051915  0.006250000094819597  0.9993710491304354  1.0000
  Ru  Ru9       1.0  0.005117613484275294  0.006250000094819597  0.999535259799385  1.0000
  Ru  Ru10      1.0  0.005950946786544379  0.008749999848288644  0.9994531547384182  1.0000
  Ru  Ru11      1.0  0.009284280837072193  0.008749999848288644  0.9991247329472553  1.0000
  Ru  Ru12      1.0  0.002617613679693513  0.008749999848288644  0.999288943784726  1.0000
  Ru  Ru13      1.0  0.009284280837072193  0.008749999848288644  0.9993710493080606  1.0000
  Ru  Ru14      1.0  0.002617613679693513  0.008749999848288644  0.9995352601455314  1.0000
  Ru  Ru15      1.0  0.005950946786544379  0.008749999848288644  0.9992068383776128  1.0000
  Ru  Ru16      1.0  0.00011761338062899521  0.00124999999525902  0.9992889437176118  1.0000
  Ru  Ru17      1.0  0.0034509468413587174  0.00124999999525902  0.9994531543836558  1.0000
  Ru  Ru18      1.0  0.00678428018412882  0.00124999999525902  0.9991247328888577  1.0000
  Cu  Cu7       1.0  0.00011761338062899521  0.00124999999525902  2.7892521096269098e-05  1.0000
  Cu  Cu8       1.0  0.0034509468413587174  0.00124999999525902  0.9996994710233926  1.0000
  Cu  Cu9       1.0  0.00678428018412882  0.00124999999525902  0.9998636816923422  1.0000
  Cu  Cu10      1.0  0.00845094659112616  0.006250000094819597  0.9999457871138825  1.0000
  Cu  Cu11      1.0  0.0017842801415051915  0.006250000094819597  0.9996173652123092  1.0000
  Cu  Cu12      1.0  0.005117613484275294  0.006250000094819597  0.9997815764391218  1.0000
  Ru  Ru19      1.0  0.0009509466823332012  0.003750000104301557  0.9996994708291649  1.0000
  Ru  Ru20      1.0  0.004284280261022542  0.003750000104301557  0.9998636814923033  1.0000
  Ru  Ru21      1.0  0.007617613367873407  0.003750000104301557  2.789272492706908e-05  1.0000
  Ru  Ru22      1.0  0.007617613367873407  0.003750000104301557  0.9997815760851901  1.0000
  Ru  Ru23      1.0  0.0009509466823332012  0.003750000104301557  0.9999457869110387  1.0000
  Ru  Ru24      1.0  0.004284280261022542  0.003750000104301557  0.9996173654104296  1.0000
  Ru  Ru25      1.0  0.00845094659112616  0.006250000094819597  0.9996994710320086  1.0000
  Ru  Ru26      1.0  0.0017842801415051915  0.006250000094819597  0.9998636818520461  1.0000
  Ru  Ru27      1.0  0.005117613484275294  0.006250000094819597  2.7892520995631114e-05  1.0000
  Ru  Ru28      1.0  0.005950946786544379  0.008749999848288644  0.9999457869021658  1.0000
  Ru  Ru29      1.0  0.009284280837072193  0.008749999848288644  0.9996173653899345  1.0000
  Ru  Ru30      1.0  0.002617613679693513  0.008749999848288644  0.9997815762274052  1.0000
  Ru  Ru31      1.0  0.009284280837072193  0.008749999848288644  0.9998636814718083  1.0000
  Ru  Ru32      1.0  0.002617613679693513  0.008749999848288644  2.7892309278991042e-05  1.0000
  Ru  Ru33      1.0  0.005950946786544379  0.008749999848288644  0.999699470820292  1.0000
  Ru  Ru34      1.0  0.00011761338062899521  0.00124999999525902  0.9997815764392225  1.0000
  Ru  Ru35      1.0  0.0034509468413587174  0.00124999999525902  0.9999457871052665  1.0000
  Ru  Ru36      1.0  0.00678428018412882  0.00124999999525902  0.9996173656104684  1.0000
