data_image0
_chemical_formula_structural       CONa8Pt4Se8Na8Pt4Se8Na8Pt4Se8
_chemical_formula_sum              "C1 O1 Na24 Pt12 Se24"
_cell_length_a       11.540294647216797
_cell_length_b       13.321150573801866
_cell_length_c       107.78482055664062
_cell_angle_alpha    124.56151101194243
_cell_angle_beta     90.0
_cell_angle_gamma    90.0

_space_group_name_H-M_alt    "P 1"
_space_group_IT_number       1

loop_
  _space_group_symop_operation_xyz
  'x, y, z'

loop_
  _atom_site_type_symbol
  _atom_site_label
  _atom_site_symmetry_multiplicity
  _atom_site_fract_x
  _atom_site_fract_y
  _atom_site_fract_z
  _atom_site_occupancy
  C   C1        1.0  0.0010281224778427198  0.00397163663716561  0.00032416732907277976  1.0000
  O   O1        1.0  0.0010281224778427198  0.00397163663716561  0.0004355004857893054  1.0000
  Na  Na1       1.0  0.0011357882853377723  0.005569785547206398  0.9995200405368666  1.0000
  Na  Na2       1.0  0.006135788356355358  0.009300117817245816  0.9992557429878072  1.0000
  Na  Na3       1.0  0.003834065143300369  0.0066824803600614826  0.9994227744072094  1.0000
  Na  Na4       1.0  0.008834064730107142  0.008187422325225454  0.999353009069847  1.0000
  Na  Na5       1.0  0.0011357882853377723  0.0005697855828625758  0.9993447615485747  1.0000
  Na  Na6       1.0  0.006135788356355358  0.004300117640662844  0.9994310221099977  1.0000
  Na  Na7       1.0  0.003834065143300369  0.0016824805230611494  0.9992474954278456  1.0000
  Na  Na8       1.0  0.008834064730107142  0.0031874228278077604  0.9995282882396549  1.0000
  Pt  Pt1       1.0  0.0023160629548637634  0.008575250828233906  0.9993802003401429  1.0000
  Pt  Pt2       1.0  0.0073160625416705365  0.00629465185705303  0.9993955831369136  1.0000
  Pt  Pt3       1.0  0.0023160629548637634  0.0035752513308162127  0.9992049216610861  1.0000
  Pt  Pt4       1.0  0.0073160625416705365  0.001294652020052697  0.9992203041575498  1.0000
  Se  Se1       1.0  0.0035220868255736197  0.009412201142284278  0.9992636013271585  1.0000
  Se  Se2       1.0  0.00852208705799481  0.005457702222167937  0.9995121821975153  1.0000
  Se  Se3       1.0  0.0011071853070285986  0.007740967596231308  0.99949698662297  1.0000
  Se  Se4       1.0  0.006107185055238976  0.007128935089055628  0.9992787971305848  1.0000
  Se  Se5       1.0  0.0035220868255736197  0.004412200965701305  0.999438880449349  1.0000
  Se  Se6       1.0  0.00852208705799481  0.0004577022153762845  0.9993369032062472  1.0000
  Se  Se7       1.0  0.0011071853070285986  0.0027409677592309754  0.9993217076436063  1.0000
  Se  Se8       1.0  0.006107185055238976  0.0021289354218466147  0.99945407601199  1.0000
  Na  Na9       1.0  0.0011357882853377723  0.005569785547206398  0.9998705983857312  1.0000
  Na  Na10      1.0  0.006135788356355358  0.009300117817245816  0.9996063011131701  1.0000
  Na  Na11      1.0  0.003834065143300369  0.0066824803600614826  0.999773332256074  1.0000
  Na  Na12      1.0  0.008834064730107142  0.008187422325225454  0.99970356719521  1.0000
  Na  Na13      1.0  0.0011357882853377723  0.0005697855828625758  0.9996953193974393  1.0000
  Na  Na14      1.0  0.006135788356355358  0.004300117640662844  0.9997815799588623  1.0000
  Na  Na15      1.0  0.003834065143300369  0.0016824805230611494  0.9995980532767103  1.0000
  Na  Na16      1.0  0.008834064730107142  0.0031874228278077604  0.9998788460885195  1.0000
  Pt  Pt5       1.0  0.0023160629548637634  0.008575250828233906  0.9997307584655059  1.0000
  Pt  Pt6       1.0  0.0073160625416705365  0.00629465185705303  0.9997461409857782  1.0000
  Pt  Pt7       1.0  0.0023160629548637634  0.0035752513308162127  0.9995554795099507  1.0000
  Pt  Pt8       1.0  0.0073160625416705365  0.001294652020052697  0.9995708620064144  1.0000
  Se  Se9       1.0  0.0035220868255736197  0.009412201142284278  0.9996141594525214  1.0000
  Se  Se10      1.0  0.00852208705799481  0.005457702222167937  0.9998627400463799  1.0000
  Se  Se11      1.0  0.0011071853070285986  0.007740967596231308  0.9998475444718347  1.0000
  Se  Se12      1.0  0.006107185055238976  0.007128935089055628  0.9996293549794494  1.0000
  Se  Se13      1.0  0.0035220868255736197  0.004412200965701305  0.9997894382982137  1.0000
  Se  Se14      1.0  0.00852208705799481  0.0004577022153762845  0.9996874610551119  1.0000
  Se  Se15      1.0  0.0011071853070285986  0.0027409677592309754  0.9996722654924709  1.0000
  Se  Se16      1.0  0.006107185055238976  0.0021289354218466147  0.9998046338608546  1.0000
  Na  Na17      1.0  0.0009817789837849341  0.005522198134071094  0.00021876653599414724  1.0000
  Na  Na18      1.0  0.00620830312202191  0.009631358948433946  3.374670309923426e-05  1.0000
  Na  Na19      1.0  0.003728791579324505  0.006670285268324835  0.00012020429789613987  1.0000
  Na  Na20      1.0  0.009018220431934018  0.008258447392531277  8.570330988632151e-05  1.0000
  Na  Na21      1.0  0.0010744659719005053  0.0006297203905481796  3.930257181934631e-05  1.0000
  Na  Na22      1.0  0.005969292145667801  0.004377271495439791  0.00014615679147969406  1.0000
  Na  Na23      1.0  0.003834065143300369  0.0016824805230611494  0.9999486111255749  1.0000
  Na  Na24      1.0  0.008578718417782316  0.003092220834926021  0.00020089244320721557  1.0000
  Pt  Pt9       1.0  0.0021930625944456415  0.008428211545488078  7.221987914255645e-05  1.0000
  Pt  Pt10      1.0  0.0075409842746095405  0.006147267558345839  9.393545929735562e-05  1.0000
  Pt  Pt11      1.0  0.0023160629548637634  0.0035752513308162127  0.9999060373588153  1.0000
  Pt  Pt12      1.0  0.0073160625416705365  0.001294652020052697  0.999921419855279  1.0000
  Se  Se17      1.0  0.0034310490594854455  0.009365649116615698  0.999971732013921  1.0000
  Se  Se18      1.0  0.008297190504018056  0.005558602751317015  0.00024868174861785987  1.0000
  Se  Se19      1.0  0.001363926146493444  0.007862105552759688  0.0002249721263011767  1.0000
  Se  Se20      1.0  0.006314111577541989  0.007145528455134363  0.999998696900759  1.0000
  Se  Se21      1.0  0.0034419270167920075  0.00461597941370715  0.0001421871279186833  1.0000
  Se  Se22      1.0  0.008577101799282961  0.00036864081046237917  2.584599079645136e-05  1.0000
  Se  Se23      1.0  0.000999794854082258  0.0027371856575875994  1.1378791909408656e-05  1.0000
  Se  Se24      1.0  0.006026789920002486  0.002183105814232887  0.00014163166981144063  1.0000
