data_image0
_chemical_formula_structural       CORh4V4Rh4V4Rh4V4Rh4V4
_chemical_formula_sum              "C1 O1 Rh16 V16"
_cell_length_a       5.609452724456787
_cell_length_b       8.906332084180109
_cell_length_c       105.28726959228516
_cell_angle_alpha    90.75512864576339
_cell_angle_beta     90.0
_cell_angle_gamma    90.0

_space_group_name_H-M_alt    "P 1"
_space_group_IT_number       1

loop_
  _space_group_symop_operation_xyz
  'x, y, z'

loop_
  _atom_site_type_symbol
  _atom_site_label
  _atom_site_symmetry_multiplicity
  _atom_site_fract_x
  _atom_site_fract_y
  _atom_site_fract_z
  _atom_site_occupancy
  C   C1        1.0  0.002500001992328208  0.003231464042883739  0.00016809557933178423  1.0000
  O   O1        1.0  0.002500001992328208  0.003231464042883739  0.0002820697033181314  1.0000
  Rh  Rh1       1.0  0.002500001992328208  0.0032058320557567313  3.573958691319696e-06  1.0000
  Rh  Rh2       1.0  0.002500000498082052  0.003626387603466638  0.999594079138985  1.0000
  Rh  Rh3       1.0  0.002500000498082052  0.001841920032985638  0.9993545917278408  1.0000
  Rh  Rh4       1.0  0.002499997177535038  0.001274497800455497  0.9997730565066629  1.0000
  V   V1        1.0  4.000000126729617e-10  0.0011251050419957154  0.999559650779829  1.0000
  V   V2        1.0  0.009999998671781194  0.0006567974996633436  0.9999756907111436  1.0000
  V   V3        1.0  4.000000126729617e-10  0.004343202280723548  0.9993890198035899  1.0000
  V   V4        1.0  0.01  0.0038278238581390006  0.9998115037052384  1.0000
  Rh  Rh5       1.0  0.002500001992328208  0.008205831679277116  3.5741468584851552e-06  1.0000
  Rh  Rh6       1.0  0.002500000498082052  0.008626387017831682  0.999594079326919  1.0000
  Rh  Rh7       1.0  0.002500000498082052  0.006841920074816706  0.9993545916334171  1.0000
  Rh  Rh8       1.0  0.002499997177535038  0.006274497528553553  0.9997730566949468  1.0000
  V   V5        1.0  4.000000126729617e-10  0.006125104979249113  0.999559650968346  1.0000
  V   V6        1.0  0.009999998671781194  0.005656797384627906  0.9999756903334877  1.0000
  V   V7        1.0  4.000000126729617e-10  0.009343202531709957  0.9993890197093993  1.0000
  V   V8        1.0  0.01  0.008827823690814727  0.9998115038936388  1.0000
  Rh  Rh9       1.0  0.0075000019923282075  0.0032058320557567313  3.573958691319696e-06  1.0000
  Rh  Rh10      1.0  0.007500000664109403  0.003626387603466638  0.999594079138985  1.0000
  Rh  Rh11      1.0  0.007500000664109403  0.001841920032985638  0.9993545917278408  1.0000
  Rh  Rh12      1.0  0.007499997343562389  0.001274497800455497  0.9997730565066629  1.0000
  V   V9        1.0  0.005000000664109402  0.0011251050419957154  0.999559650779829  1.0000
  V   V10       1.0  0.004999998671781194  0.0006567974996633436  0.9999756907111436  1.0000
  V   V11       1.0  0.005000000664109402  0.004343202280723548  0.9993890198035899  1.0000
  V   V12       1.0  0.004999999667945299  0.0038278238581390006  0.9998115037052384  1.0000
  Rh  Rh13      1.0  0.0075000019923282075  0.008205831679277116  3.5741468584851552e-06  1.0000
  Rh  Rh14      1.0  0.007500000664109403  0.008626387017831682  0.999594079326919  1.0000
  Rh  Rh15      1.0  0.007500000664109403  0.006841920074816706  0.9993545916334171  1.0000
  Rh  Rh16      1.0  0.007499997343562389  0.006274497528553553  0.9997730566949468  1.0000
  V   V13       1.0  0.005000000664109402  0.006125104979249113  0.999559650968346  1.0000
  V   V14       1.0  0.004999998671781194  0.005656797384627906  0.9999756903334877  1.0000
  V   V15       1.0  0.005000000664109402  0.009343202531709957  0.9993890197093993  1.0000
  V   V16       1.0  0.004999999667945299  0.008827823690814727  0.9998115038936388  1.0000
