data_image0
_chemical_formula_structural       COV2Ir2V2Ir2V2Ir2V2Ir2V2Ir2V2Ir2
_chemical_formula_sum              "C1 O1 V12 Ir12"
_cell_length_a       5.509035110473633
_cell_length_b       7.882270893821215
_cell_length_c       100.29969024658203
_cell_angle_alpha    110.45412825550655
_cell_angle_beta     90.0
_cell_angle_gamma    90.0

_space_group_name_H-M_alt    "P 1"
_space_group_IT_number       1

loop_
  _space_group_symop_operation_xyz
  'x, y, z'

loop_
  _atom_site_type_symbol
  _atom_site_label
  _atom_site_symmetry_multiplicity
  _atom_site_fract_x
  _atom_site_fract_y
  _atom_site_fract_z
  _atom_site_occupancy
  C   C1        1.0  0.0049999961050035645  0.005749249396521373  5.4428683864241034e-05  1.0000
  O   O1        1.0  0.0049999961050035645  0.005749249396521373  0.0001740697783137747  1.0000
  V   V1        1.0  0.0025000002501994237  0.0025759086189344727  0.999394687894123  1.0000
  V   V2        1.0  0.0025000002501994237  0.007575908396990184  0.9992573737419457  1.0000
  Ir  Ir1       1.0  3.5000000142097116e-10  7.590854863109686e-05  0.9994633452623661  1.0000
  Ir  Ir2       1.0  3.5000000142097116e-10  0.005075908255752909  0.9993260308111079  1.0000
  V   V3        1.0  0.0025000002501994237  0.0025759086189344727  0.9996693166973556  1.0000
  V   V4        1.0  0.0025000002501994237  0.007575908396990184  0.9995320022480455  1.0000
  Ir  Ir3       1.0  0.009999999648368377  0.009924091582833063  0.9997355078174021  1.0000
  Ir  Ir4       1.0  3.5000000142097116e-10  0.005075908255752909  0.9996006596143405  1.0000
  V   V5        1.0  0.002500005998024025  0.0024109634066488764  0.9999258577612676  1.0000
  V   V6        1.0  0.0025000009264140827  0.007563951652850595  0.9998243009065688  1.0000
  Ir  Ir5       1.0  2.784999968122369e-08  0.0001400717519050568  3.846772593880499e-06  1.0000
  Ir  Ir6       1.0  0.009999996267295082  0.004929679252247577  0.9998701208626432  1.0000
  V   V7        1.0  0.007500000243437277  0.0025759086189344727  0.999394687894123  1.0000
  V   V8        1.0  0.007500000243437277  0.007575908396990184  0.9992573737419457  1.0000
  Ir  Ir7       1.0  0.005000000162291518  7.590854863109686e-05  0.9994633452623661  1.0000
  Ir  Ir8       1.0  0.005000000162291518  0.005075908255752909  0.9993260308111079  1.0000
  V   V9        1.0  0.007500000243437277  0.0025759086189344727  0.9996693166973556  1.0000
  V   V10       1.0  0.007500000243437277  0.007575908396990184  0.9995320022480455  1.0000
  Ir  Ir9       1.0  0.004999999486076859  0.009924091582833063  0.9997355078174021  1.0000
  Ir  Ir10      1.0  0.005000000162291518  0.005075908255752909  0.9996006596143405  1.0000
  V   V11       1.0  0.007500005653154549  0.0024109634066488764  0.9999258577612676  1.0000
  V   V12       1.0  0.007500000919651936  0.007563951652850595  0.9998243009065688  1.0000
  Ir  Ir11      1.0  0.0050000278870925355  0.0001400717519050568  3.846772593880499e-06  1.0000
  Ir  Ir12      1.0  0.0049999961050035645  0.004929679252247577  0.9998701208626432  1.0000
