data_image0
_chemical_formula_structural       COGa9Ni15
_chemical_formula_sum              "C1 O1 Ga9 Ni15"
_cell_length_a       6.360887131984992
_cell_length_b       6.36088699948609
_cell_length_c       102.1790771484375
_cell_angle_alpha    89.63083512185639
_cell_angle_beta     89.6308351295463
_cell_angle_gamma    65.0515499046313

_space_group_name_H-M_alt    "P 1"
_space_group_IT_number       1

loop_
  _space_group_symop_operation_xyz
  'x, y, z'

loop_
  _atom_site_type_symbol
  _atom_site_label
  _atom_site_symmetry_multiplicity
  _atom_site_fract_x
  _atom_site_fract_y
  _atom_site_fract_z
  _atom_site_occupancy
  C   C1        1.0  0.008863062517889798  0.003065753031480753  3.2498657727116694e-05  1.0000
  O   O1        1.0  0.008863062517889798  0.003065753031480753  0.000149939768506209  1.0000
  Ga  Ga1       1.0  0.001218411793930689  0.005421101895364703  0.9998465021912999  1.0000
  Ga  Ga2       1.0  0.0062184114838821905  0.0004211021666968547  0.9993216219122165  1.0000
  Ga  Ga3       1.0  0.00371841163890644  0.007921102148164369  0.9995840620681175  1.0000
  Ga  Ga4       1.0  0.00153239338651671  0.005735083662234519  0.999354582514413  1.0000
  Ga  Ga5       1.0  0.009032392921443963  0.00323508360069839  0.99961702267058  1.0000
  Ga  Ga6       1.0  0.006532393076468212  0.0007350836407326971  0.9998794630853124  1.0000
  Ga  Ga7       1.0  0.006375402603142387  0.0005780926210771177  0.9996005424987483  1.0000
  Ga  Ga8       1.0  0.0038754024351994503  0.008078093031599275  0.9998629826546067  1.0000
  Ga  Ga9       1.0  0.008875402448118137  0.00307809258104281  0.9993381023756833  1.0000
  Ni  Ni1       1.0  0.0028762078481832233  0.0015772873986136886  0.9997317625603108  1.0000
  Ni  Ni2       1.0  0.000376207922465676  0.009077287121302397  0.999994202716348  1.0000
  Ni  Ni3       1.0  0.005376207693158974  0.004077287358579381  0.9994693224372458  1.0000
  Ni  Ni4       1.0  0.007374597190158614  0.007078897668394759  0.9997317625932791  1.0000
  Ni  Ni5       1.0  0.004874597345182863  0.00457889800126304  0.9999942027162265  1.0000
  Ni  Ni6       1.0  0.009874597035134365  0.009578897921194424  0.9994693224700968  1.0000
  Ni  Ni7       1.0  0.005125402357687326  0.004328093040865519  0.9997317625766562  1.0000
  Ni  Ni8       1.0  0.002625402512711575  0.0018280927880658538  0.9999942026998386  1.0000
  Ni  Ni9       1.0  0.007625402525630262  0.006828092571776566  0.9994693224536338  1.0000
  Ni  Ni10      1.0  0.0013754025902236995  0.0055780927787996105  0.9996005424986902  1.0000
  Ni  Ni11      1.0  0.008875402448118137  0.00307809258104281  0.9998629826547822  1.0000
  Ni  Ni12      1.0  0.0038754024351994503  0.008078093031599275  0.9993381023755078  1.0000
  Ni  Ni13      1.0  0.00012540264755037502  0.00932809277804716  0.9997317625766454  1.0000
  Ni  Ni14      1.0  0.007625402525630262  0.006828092571776566  0.9999942027327328  1.0000
  Ni  Ni15      1.0  0.002625402512711575  0.0018280927880658538  0.9994693224207397  1.0000
