data_image0
_chemical_formula_structural       COW32
_chemical_formula_sum              "C1 O1 W32"
_cell_length_a       5.510211944580078
_cell_length_b       8.998138427734375
_cell_length_c       101.17046356201172
_cell_angle_alpha    90.0
_cell_angle_beta     90.0
_cell_angle_gamma    90.0

_space_group_name_H-M_alt    "P 1"
_space_group_IT_number       1

loop_
  _space_group_symop_operation_xyz
  'x, y, z'

loop_
  _atom_site_type_symbol
  _atom_site_label
  _atom_site_symmetry_multiplicity
  _atom_site_fract_x
  _atom_site_fract_y
  _atom_site_fract_z
  _atom_site_occupancy
  C   C1        1.0  0.004999999810700333  0.008749999304468613  0.00019768596705356425  1.0000
  O   O1        1.0  0.004999999810700333  0.008749999304468613  0.0003162979007760952  1.0000
  W   W1        1.0  0.0041666665089169445  0.0037499997019151197  0.9994865024760352  1.0000
  W   W2        1.0  0.0041666665089169445  0.0012500000041400677  0.9991013794067055  1.0000
  W   W3        1.0  0.0024999999053501665  0.0037499997019151197  0.9992297538613405  1.0000
  W   W4        1.0  0.0008333333017833889  0.0012500000041400677  0.9993581280214002  1.0000
  W   W5        1.0  0.0024999999053501665  0.0037499997019151197  0.0  1.0000
  W   W6        1.0  0.0024999999053501665  0.0012500000041400677  0.9996148769306703  1.0000
  W   W7        1.0  0.0008333333017833889  0.0037499997019151197  0.9997432510907299  1.0000
  W   W8        1.0  0.0041666665089169445  0.0012500000041400677  0.9998716258399403  1.0000
  W   W9        1.0  0.0041666665089169445  0.008749999304468613  0.9994865024760352  1.0000
  W   W10       1.0  0.0041666665089169445  0.006249999917198644  0.9991013794067055  1.0000
  W   W11       1.0  0.0024999999053501665  0.008749999304468613  0.9992297538613405  1.0000
  W   W12       1.0  0.0008333333017833889  0.006249999917198644  0.9993581280214002  1.0000
  W   W13       1.0  0.0024999999053501665  0.008749999304468613  0.0  1.0000
  W   W14       1.0  0.0024999999053501665  0.006249999917198644  0.9996148769306703  1.0000
  W   W15       1.0  0.0008333333017833889  0.008749999304468613  0.9997432510907299  1.0000
  W   W16       1.0  0.0041666665089169445  0.006249999917198644  0.9998716258399403  1.0000
  W   W17       1.0  0.009166666657652396  0.0037499997019151197  0.9994865024760352  1.0000
  W   W18       1.0  0.009166666657652396  0.0012500000041400677  0.9991013794067055  1.0000
  W   W19       1.0  0.0075000000540856185  0.0037499997019151197  0.9992297538613405  1.0000
  W   W20       1.0  0.0058333334505188406  0.0012500000041400677  0.9993581280214002  1.0000
  W   W21       1.0  0.0075000000540856185  0.0037499997019151197  0.0  1.0000
  W   W22       1.0  0.0075000000540856185  0.0012500000041400677  0.9996148769306703  1.0000
  W   W23       1.0  0.0058333334505188406  0.0037499997019151197  0.9997432510907299  1.0000
  W   W24       1.0  0.009166666657652396  0.0012500000041400677  0.9998716258399403  1.0000
  W   W25       1.0  0.009166666657652396  0.008749999304468613  0.9994865024760352  1.0000
  W   W26       1.0  0.009166666657652396  0.006249999917198644  0.9991013794067055  1.0000
  W   W27       1.0  0.0075000000540856185  0.008749999304468613  0.9992297538613405  1.0000
  W   W28       1.0  0.0058333334505188406  0.006249999917198644  0.9993581280214002  1.0000
  W   W29       1.0  0.0075000000540856185  0.008749999304468613  0.0  1.0000
  W   W30       1.0  0.0075000000540856185  0.006249999917198644  0.9996148769306703  1.0000
  W   W31       1.0  0.0058333334505188406  0.008749999304468613  0.9997432510907299  1.0000
  W   W32       1.0  0.009166666657652396  0.006249999917198644  0.9998716258399403  1.0000
