data_image0
_chemical_formula_structural       COIr6W2Ir6W2
_chemical_formula_sum              "C1 O1 Ir12 W4"
_cell_length_a       5.5583038330078125
_cell_length_b       5.558303977559186
_cell_length_c       101.07500457763672
_cell_angle_alpha    90.0
_cell_angle_beta     90.0
_cell_angle_gamma    119.99999913971583

_space_group_name_H-M_alt    "P 1"
_space_group_IT_number       1

loop_
  _space_group_symop_operation_xyz
  'x, y, z'

loop_
  _atom_site_type_symbol
  _atom_site_label
  _atom_site_symmetry_multiplicity
  _atom_site_fract_x
  _atom_site_fract_y
  _atom_site_fract_z
  _atom_site_occupancy
  C   C1        1.0  0.004185426554151397  0.0034049694331376016  0.0001679910323764844  1.0000
  O   O1        1.0  0.004185426554151397  0.0034049694331376016  0.00028671439790285447  1.0000
  Ir  Ir1       1.0  0.0066580292045654585  0.008346073653488453  0.9995651865685978  1.0000
  Ir  Ir2       1.0  0.003319224716387942  0.0016766715296328777  0.9993455831940619  1.0000
  Ir  Ir3       1.0  0.008323328397321538  0.0016766715296328777  0.9993455831940619  1.0000
  Ir  Ir4       1.0  0.0016539259212268508  0.0033419705373564663  0.9995651865685978  1.0000
  Ir  Ir5       1.0  0.0016539258587422146  0.008346073653488453  0.9995651865685978  1.0000
  Ir  Ir6       1.0  0.008323328308396778  0.006680775032716954  0.9993455831940619  1.0000
  W   W1        1.0  0.006655293742876737  0.0033447059016768737  0.9995651865685978  1.0000
  W   W2        1.0  0.003321960246145953  0.006678039281444457  0.9993455831940619  1.0000
  Ir  Ir7       1.0  0.006534766608447536  0.008284442246391478  0.0  1.0000
  Ir  Ir8       1.0  0.00327373676192534  0.0016539260988622099  0.9997846354398815  1.0000
  Ir  Ir9       1.0  0.00834607154633789  0.001653926679290344  0.9997846354398815  1.0000
  Ir  Ir10      1.0  0.0017155582480381242  0.0034652321906941505  0.9999999994102929  1.0000
  Ir  Ir11      1.0  0.0017155568043063253  0.008284446115912373  0.0  1.0000
  Ir  Ir12      1.0  0.008346073842850922  0.006726267442066648  0.9997846360295886  1.0000
  W   W3        1.0  0.006655294800049529  0.0033447066755810523  0.9999932561099503  1.0000
  W   W4        1.0  0.0033219624602261596  0.006678038507540279  0.9997879089038257  1.0000
