data_image0
_chemical_formula_structural       COCa3Zn6Sb6
_chemical_formula_sum              "C1 O1 Ca3 Zn6 Sb6"
_cell_length_a       4.550691233423478
_cell_length_b       11.841640269688066
_cell_length_c       105.34925079345703
_cell_angle_alpha    81.22104485623693
_cell_angle_beta     104.92001118386794
_cell_angle_gamma    67.39997818529874

_space_group_name_H-M_alt    "P 1"
_space_group_IT_number       1

loop_
  _space_group_symop_operation_xyz
  'x, y, z'

loop_
  _atom_site_type_symbol
  _atom_site_label
  _atom_site_symmetry_multiplicity
  _atom_site_fract_x
  _atom_site_fract_y
  _atom_site_fract_z
  _atom_site_occupancy
  C   C1        1.0  0.0014019031772518906  0.009697707166922287  2.363337318138422e-05  1.0000
  O   O1        1.0  0.0014019031772518906  0.009697707166922287  0.00013754044160678547  1.0000
  Ca  Ca1       1.0  0.00012083617488191488  0.006757270319465393  0.9993147614861955  1.0000
  Ca  Ca2       1.0  0.009879162958028332  0.0001633899592536475  0.9998462888937564  1.0000
  Ca  Ca3       1.0  0.00012083617407849572  0.0034239369198328733  0.9995943807250834  1.0000
  Zn  Zn1       1.0  0.006892904148611323  0.007747866107665272  0.9997782452612802  1.0000
  Zn  Zn2       1.0  0.00678750260534738  0.0010927721272623405  0.9994828970894797  1.0000
  Zn  Zn3       1.0  0.006787502396507196  0.004426105704481965  0.9992032772794321  1.0000
  Zn  Zn4       1.0  0.003641098775662102  0.0056885095670634375  0.9997267286474837  1.0000
  Zn  Zn5       1.0  0.003454169682158239  0.009088434934448822  0.9994262452599498  1.0000
  Zn  Zn6       1.0  0.0034541694709077963  0.0024217683127708872  0.9991466257022315  1.0000
  Sb  Sb1       1.0  0.006787503120150329  0.006503276717920257  0.9995517680487368  1.0000
  Sb  Sb2       1.0  0.006787502273771264  0.009836610117552776  0.999272148517536  1.0000
  Sb  Sb3       1.0  0.006828033222502162  0.0031121660640714725  0.9998277541841041  1.0000
  Sb  Sb4       1.0  0.0033607036296900267  0.007096701077156432  0.9999156304008082  1.0000
  Sb  Sb5       1.0  0.003380466854302337  0.00037833498673557874  0.9996313737577066  1.0000
  Sb  Sb6       1.0  0.0034541689577116856  0.0036779305213780096  0.9993573742953146  1.0000
