data_image0
_chemical_formula_structural       HIn12Ag6Se24
_chemical_formula_sum              "H1 In12 Ag6 Se24"
_cell_length_a       16.921791819893485
_cell_length_b       6.052707672119141
_cell_length_c       109.84934997558594
_cell_angle_alpha    90.0
_cell_angle_beta     107.21811386500984
_cell_angle_gamma    90.0

_space_group_name_H-M_alt    "P 1"
_space_group_IT_number       1

loop_
  _space_group_symop_operation_xyz
  'x, y, z'

loop_
  _atom_site_type_symbol
  _atom_site_label
  _atom_site_symmetry_multiplicity
  _atom_site_fract_x
  _atom_site_fract_y
  _atom_site_fract_z
  _atom_site_occupancy
  H   H1        1.0  0.002390646082132241  0.0044139408698290646  0.00010901106675972705  1.0000
  In  In1       1.0  0.006055114641810406  9.628204433081343e-05  0.9994707950835909  1.0000
  In  In2       1.0  0.009402004083642572  0.00973873120408261  0.9998803831220687  1.0000
  In  In3       1.0  0.00272178135764536  9.628204433081343e-05  0.9990677243778737  1.0000
  In  In4       1.0  0.006893772427376572  0.009903717896429718  0.9998787996383304  1.0000
  In  In5       1.0  0.00022178143773588977  9.628204433081343e-05  0.9990677243598216  1.0000
  In  In6       1.0  0.0035551146786866215  9.628204433081343e-05  0.9994707947922665  1.0000
  In  In7       1.0  0.009388447465022763  0.005096282005094282  0.9992692597497586  1.0000
  In  In8       1.0  0.00272178135764536  0.005096282005094282  0.999672330667706  1.0000
  In  In9       1.0  0.006020151841208775  0.005191890508197615  4.982023060204317e-05  1.0000
  In  In10      1.0  0.006888447962851668  0.005096282005094282  0.999269259750755  1.0000
  In  In11      1.0  0.00022178143773588977  0.005096282005094282  0.9996723303783522  1.0000
  In  In12      1.0  0.0036070110373167237  0.005495406468754589  5.5786092573471164e-05  1.0000
  Ag  Ag1       1.0  0.005221781320769145  0.005096282005094282  0.9996723304164269  1.0000
  Ag  Ag2       1.0  0.00853123771653271  0.005507096801042554  3.2861248683312586e-05  1.0000
  Ag  Ag3       1.0  0.0018884480366040983  0.005096282005094282  0.9992692597107097  1.0000
  Ag  Ag4       1.0  0.008555114143981501  9.628204433081343e-05  0.9994707950825946  1.0000
  Ag  Ag5       1.0  0.0021978533108705065  0.009182709851570669  0.9998909502088775  1.0000
  Ag  Ag6       1.0  0.005221781320769145  9.628204433081343e-05  0.9990677243978964  1.0000
  Se  Se1       1.0  0.0047742252985704895  0.002785629727537388  0.9994554227835015  1.0000
  Se  Se2       1.0  0.008133571986856256  0.0023438166867170373  0.9998634377464208  1.0000
  Se  Se3       1.0  0.0014408922448817878  0.002785629727537388  0.999052351816992  1.0000
  Se  Se4       1.0  0.006566829747057485  0.0074069339749136725  0.9996721862977505  1.0000
  Se  Se5       1.0  9.983685008215136e-05  0.0062146850288432275  4.4743646237755666e-05  1.0000
  Se  Se6       1.0  0.003233496232416093  0.0074069339749136725  0.9992691155815238  1.0000
  Se  Se7       1.0  0.0055432524926551435  0.0074073758859688876  0.9992693857697024  1.0000
  Se  Se8       1.0  0.0088765853158675  0.0074073758859688876  0.9996724564544006  1.0000
  Se  Se9       1.0  0.0025022146103240188  0.007718321860813547  0.00011695583006799457  1.0000
  Se  Se10      1.0  0.007336151028958508  0.0027851881242196763  0.9994861852121075  1.0000
  Se  Se11      1.0  0.0005398809279548499  0.0033324749631660367  0.9999231240397507  1.0000
  Se  Se12      1.0  0.004002817744793462  0.0027851881242196763  0.9990831145063904  1.0000
  Se  Se13      1.0  0.008107558582735536  0.007785629592132887  0.9992538871993865  1.0000
  Se  Se14      1.0  0.0014408922448817878  0.007785629592132887  0.9996569578355227  1.0000
  Se  Se15      1.0  0.005112132660532195  0.006528368021045189  0.00018475455802607923  1.0000
  Se  Se16      1.0  0.006566829747057485  0.0024069342641869257  0.9990675802792199  1.0000
  Se  Se17      1.0  0.009900163031222532  0.0024069342641869257  0.9994706509849371  1.0000
  Se  Se18      1.0  0.0032853651643611264  0.0024961359802021486  0.9998758640326486  1.0000
  Se  Se19      1.0  0.0088765853158675  0.0024073758675046374  0.9990678504358701  1.0000
  Se  Se20      1.0  0.0022099189780137515  0.0024073758675046374  0.9994709213433081  1.0000
  Se  Se21      1.0  0.0055462933975526235  0.0021759614192298263  0.9998780380097527  1.0000
  Se  Se22      1.0  0.007378508893569579  0.007590218739226726  9.918945567583696e-05  1.0000
  Se  Se23      1.0  0.000669484345390243  0.007785188296552678  0.9992846498139489  1.0000
  Se  Se24      1.0  0.004002817744793462  0.007785188296552678  0.9996877205249209  1.0000
