data_image0
_chemical_formula_structural       HCo16Si16
_chemical_formula_sum              "H1 Co16 Si16"
_cell_length_a       7.716185093785972
_cell_length_b       6.300238609313965
_cell_length_c       99.21300506591797
_cell_angle_alpha    90.0
_cell_angle_beta     84.94884765454566
_cell_angle_gamma    90.0

_space_group_name_H-M_alt    "P 1"
_space_group_IT_number       1

loop_
  _space_group_symop_operation_xyz
  'x, y, z'

loop_
  _atom_site_type_symbol
  _atom_site_label
  _atom_site_symmetry_multiplicity
  _atom_site_fract_x
  _atom_site_fract_y
  _atom_site_fract_z
  _atom_site_occupancy
  H   H1        1.0  0.0031507253862947037  0.006308520083696132  0.9999762646690187  1.0000
  Co  Co1       1.0  0.0080048723623797  0.009073497302717611  0.9997110248597876  1.0000
  Co  Co2       1.0  0.0048798723623797  0.004073497078026071  0.999526995111653  1.0000
  Co  Co3       1.0  0.0017548722412118612  0.009073497302717611  0.9993429656647353  1.0000
  Co  Co4       1.0  0.0011298721685111578  0.004073497078026071  0.9998950541526611  1.0000
  Co  Co5       1.0  0.006562500096934271  0.003024499199454791  0.9997496343076651  1.0000
  Co  Co6       1.0  0.0034375000969342714  0.00802449942414633  0.9995656045595305  1.0000
  Co  Co7       1.0  0.00031250000605839197  0.003024499199454791  0.9993815751124053  1.0000
  Co  Co8       1.0  0.009687499612262914  0.00802449942414633  0.9999336637587313  1.0000
  Co  Co9       1.0  0.004567372265445429  0.009475501214450677  0.9998030398066116  1.0000
  Co  Co10      1.0  0.00144237214427759  0.004475500989759137  0.9996190100593066  1.0000
  Co  Co11      1.0  0.008317372459313972  0.009475501214450677  0.9994349804652162  1.0000
  Co  Co12      1.0  0.007692372265445429  0.004475500989759137  0.999987069254359  1.0000
  Co  Co13      1.0  0.005061247531665712  0.0005244990131973309  0.9993667788767427  1.0000
  Co  Co14      1.0  0.0044362473377971695  0.0055244991639771795  0.9999188676658854  1.0000
  Co  Co15      1.0  0.0013112474589650088  0.0005244990131973309  0.9997348382173084  1.0000
  Co  Co16      1.0  0.008186247531665712  0.0055244991639771795  0.9995508083244901  1.0000
  Si  Si1       1.0  0.005387013568316483  0.0020925412221936886  0.9999679654770469  1.0000
  Si  Si2       1.0  0.002262013810652161  0.0070925415947086096  0.9997839354268656  1.0000
  Si  Si3       1.0  0.009137013762185025  0.0020925412221936886  0.9995999061356515  1.0000
  Si  Si4       1.0  0.006012013762185025  0.0070925415947086096  0.9994158766879042  1.0000
  Si  Si5       1.0  0.006668455556334476  0.00802449942414633  0.9999336637501127  1.0000
  Si  Si6       1.0  0.003543455798670155  0.003024499199454791  0.999749634300706  1.0000
  Si  Si7       1.0  0.00041845579867015484  0.00802449942414633  0.9995656045525714  1.0000
  Si  Si8       1.0  0.0072934557502030185  0.003024499199454791  0.99938157496097  1.0000
  Si  Si9       1.0  0.008824514149922112  0.0014564567687233615  0.9998759505269041  1.0000
  Si  Si10      1.0  0.005699513665250754  0.006456456993414901  0.9996919210824756  1.0000
  Si  Si11      1.0  0.0025745139075864327  0.0014564567687233615  0.9995078913326816  1.0000
  Si  Si12      1.0  0.00944951337444794  0.006456456993414901  0.999323861744399  1.0000
  Si  Si13      1.0  0.005816008303312143  0.0005244990131973309  0.9995890163369521  1.0000
  Si  Si14      1.0  0.0026910085456478216  0.0055244991639771795  0.999404986587158  1.0000
  Si  Si15      1.0  0.0020660085941149576  0.0005244990131973309  0.9999570756750287  1.0000
  Si  Si16      1.0  0.0089410087879835  0.0055244991639771795  0.9997730457813806  1.0000
