data_image0
_chemical_formula_structural       Ga6Pd14H
_chemical_formula_sum              "Ga6 Pd14 H1"
_cell_length_a       5.569997774317495
_cell_length_b       7.226641760806602
_cell_length_c       38.18131637573242
_cell_angle_alpha    85.91963834194677
_cell_angle_beta     86.7653618459025
_cell_angle_gamma    104.38510024967299

_space_group_name_H-M_alt    "P 1"
_space_group_IT_number       1

loop_
  _space_group_symop_operation_xyz
  'x, y, z'

loop_
  _atom_site_type_symbol
  _atom_site_label
  _atom_site_symmetry_multiplicity
  _atom_site_fract_x
  _atom_site_fract_y
  _atom_site_fract_z
  _atom_site_occupancy
  Ga  Ga1       1.0  0.0006922688864158854  0.0048948930731015335  0.9989221918012545  1.0000
  Ga  Ga2       1.0  0.004069487198277526  6.347545342009894e-05  0.998079468512635  1.0000
  Ga  Ga3       1.0  0.007315050937326165  0.008476310716323576  0.9987232184124146  1.0000
  Ga  Ga4       1.0  0.0007601740341686849  0.0062041981087819  0.9999101861810967  1.0000
  Ga  Ga5       1.0  0.004069486895794882  0.00131347542987949  0.9991211652286254  1.0000
  Ga  Ga6       1.0  0.00724236475783345  0.009816341823126152  0.9997590864774819  1.0000
  Pd  Pd1       1.0  0.005692268916560523  0.0048948930731015335  0.9989221916253832  1.0000
  Pd  Pd2       1.0  0.009307731593173022  0.009780295641136038  0.9980952009710293  1.0000
  Pd  Pd3       1.0  0.0020768064932103238  0.008759490419586236  0.9987074858153953  1.0000
  Pd  Pd4       1.0  0.004543115418039528  0.00662517445347684  0.9982704904828772  1.0000
  Pd  Pd5       1.0  0.006841422900120513  0.0019146117621793718  0.9985321960497777  1.0000
  Pd  Pd6       1.0  0.009246735791260003  0.005810629043412481  0.9983157443994038  1.0000
  Pd  Pd7       1.0  0.0021378021480726642  0.0027291570386799905  0.9984869421381682  1.0000
  Pd  Pd8       1.0  0.0057222945106503095  0.006303850014750566  0.999930476762772  1.0000
  Pd  Pd9       1.0  0.009307731630964187  0.0010302955930530922  0.9991368978250478  1.0000
  Pd  Pd10      1.0  0.002064828006893956  0.009936524612860907  0.9997490937725467  1.0000
  Pd  Pd11      1.0  0.004415268469193083  0.00783177111057604  0.9993008994147486  1.0000
  Pd  Pd12      1.0  0.0068459204781438476  0.0031445010004843  0.9995867386705684  1.0000
  Pd  Pd13      1.0  0.009142275443500153  0.007081816590632071  0.9993381393787129  1.0000
  Pd  Pd14      1.0  0.002110761139846231  0.003883052382612988  0.9995324185565019  1.0000
  H   H1        1.0  0.0014125011042664254  0.008070361360821404  0.00022250229780925007  1.0000
