data_image0
_chemical_formula_structural       HSn4Pt4Sn4Pt4Sn4Pt4Sn4Pt4
_chemical_formula_sum              "H1 Sn16 Pt16"
_cell_length_a       6.955391698341676
_cell_length_b       8.406040770503088
_cell_length_c       111.73235321044922
_cell_angle_alpha    72.41374845598175
_cell_angle_beta     105.6455655063835
_cell_angle_gamma    72.41374648645859

_space_group_name_H-M_alt    "P 1"
_space_group_IT_number       1

loop_
  _space_group_symop_operation_xyz
  'x, y, z'

loop_
  _atom_site_type_symbol
  _atom_site_label
  _atom_site_symmetry_multiplicity
  _atom_site_fract_x
  _atom_site_fract_y
  _atom_site_fract_z
  _atom_site_occupancy
  H   H1        1.0  0.005089091403339928  0.0015056739986290205  4.3275531009127465e-05  1.0000
  Sn  Sn1       1.0  0.0018750000673457812  0.00416666665553936  0.999625511667515  1.0000
  Sn  Sn2       1.0  0.006875000195915  0.004166666499053851  0.9999367642590563  1.0000
  Sn  Sn3       1.0  0.0010416667380940103  0.0008333332262514459  0.9998848887623826  1.0000
  Sn  Sn4       1.0  0.006041666560546042  0.000833333292919628  0.9995736366735123  1.0000
  Pt  Pt1       1.0  0.003958333390475208  0.0025000000637210693  0.9999108265048642  1.0000
  Pt  Pt2       1.0  0.008958333365985834  0.0024999997282524095  0.9995995738942453  1.0000
  Pt  Pt3       1.0  0.0014583332496613023  0.0025000001686962476  0.9994439481388306  1.0000
  Pt  Pt4       1.0  0.006458333684347708  0.0024999996728330472  0.9997552002097664  1.0000
  Sn  Sn5       1.0  0.0018750000673457812  0.00416666665553936  0.9990030069973149  1.0000
  Sn  Sn6       1.0  0.006875000195915  0.004166666499053851  0.9993142595888563  1.0000
  Sn  Sn7       1.0  0.0010416667380940103  0.0008333332262514459  0.9992623840921826  1.0000
  Sn  Sn8       1.0  0.006041666560546042  0.000833333292919628  0.9989511317365827  1.0000
  Pt  Pt5       1.0  0.003958333390475208  0.0025000000637210693  0.9992883218346641  1.0000
  Pt  Pt6       1.0  0.008958333365985834  0.0024999997282524095  0.9989770694907748  1.0000
  Pt  Pt7       1.0  0.0014583332496613023  0.0025000001686962476  0.998821443201901  1.0000
  Pt  Pt8       1.0  0.006458333684347708  0.0024999996728330472  0.9991326955395664  1.0000
  Sn  Sn9       1.0  0.0018750000673457812  0.0091666667671144  0.9996255117823398  1.0000
  Sn  Sn10      1.0  0.006875000195915  0.009166666610628888  0.9999367643738811  1.0000
  Sn  Sn11      1.0  0.0010416667380940103  0.005833333221602486  0.9998848888798493  1.0000
  Sn  Sn12      1.0  0.006041666560546042  0.00583333317204667  0.9995736362601617  1.0000
  Pt  Pt9       1.0  0.003958333390475208  0.0074999999428481115  0.9999108266249728  1.0000
  Pt  Pt10      1.0  0.008958333365985834  0.007499999839827448  0.9995995740090701  1.0000
  Pt  Pt11      1.0  0.0014583332496613023  0.0075000005127192826  0.9994439482483716  1.0000
  Pt  Pt12      1.0  0.006458333684347708  0.00750000024930408  0.9997552003140235  1.0000
  Sn  Sn13      1.0  0.0018750000673457812  0.0091666667671144  0.9990030071121397  1.0000
  Sn  Sn14      1.0  0.006875000195915  0.009166666610628888  0.999314259703681  1.0000
  Sn  Sn15      1.0  0.0010416667380940103  0.005833333221602486  0.9992623842096493  1.0000
  Sn  Sn16      1.0  0.006041666560546042  0.00583333317204667  0.9989511315899617  1.0000
  Pt  Pt13      1.0  0.003958333390475208  0.0074999999428481115  0.9992883219547728  1.0000
  Pt  Pt14      1.0  0.008958333365985834  0.007499999839827448  0.9989770693388701  1.0000
  Pt  Pt15      1.0  0.0014583332496613023  0.0075000005127192826  0.9988214430447124  1.0000
  Pt  Pt16      1.0  0.006458333684347708  0.00750000024930408  0.9991326956438235  1.0000
