data_image0
_chemical_formula_structural       HHf18
_chemical_formula_sum              "H1 Hf18"
_cell_length_a       6.02672858285846
_cell_length_b       7.547964612356472
_cell_length_c       101.07386779785156
_cell_angle_alpha    92.56794891736291
_cell_angle_beta     85.3124675664756
_cell_angle_gamma    76.64341816910076

_space_group_name_H-M_alt    "P 1"
_space_group_IT_number       1

loop_
  _space_group_symop_operation_xyz
  'x, y, z'

loop_
  _atom_site_type_symbol
  _atom_site_label
  _atom_site_symmetry_multiplicity
  _atom_site_fract_x
  _atom_site_fract_y
  _atom_site_fract_z
  _atom_site_occupancy
  H   H1        1.0  0.00976827805419415  0.008512572354927375  0.00015594538660034218  1.0000
  Hf  Hf1       1.0  0.006953943368810207  0.00361111090211559  0.9998954265974862  1.0000
  Hf  Hf2       1.0  0.003287276783235629  0.0069444442185033406  0.9997929474081173  1.0000
  Hf  Hf3       1.0  0.0006206102637997829  0.0002777778081386137  0.9999979052907318  1.0000
  Hf  Hf4       1.0  0.0058983882104392815  0.009722222109251671  0.9999125063683031  1.0000
  Hf  Hf5       1.0  0.0022317213369338522  0.0030555554764761694  0.9998100270478217  1.0000
  Hf  Hf6       1.0  0.009565054871222488  0.006388888538680177  1.4985556454906456e-05  1.0000
  Hf  Hf7       1.0  0.005953943646660954  0.00361111090211559  0.9995879893920553  1.0000
  Hf  Hf8       1.0  0.0022872770610863763  0.0069444442185033406  0.9994855102026865  1.0000
  Hf  Hf9       1.0  0.00962061016642798  0.0002777778081386137  0.9996904685824889  1.0000
  Hf  Hf10      1.0  0.004898387868087468  0.009722222109251671  0.9996050691658943  1.0000
  Hf  Hf11      1.0  0.0012317214597339587  0.0030555554764761694  0.9995025901380034  1.0000
  Hf  Hf12      1.0  0.008565055149073235  0.006388888538680177  0.999707548351024  1.0000
  Hf  Hf13      1.0  0.0049539439245117  0.00361111090211559  0.9992805518917676  1.0000
  Hf  Hf14      1.0  0.001287277028835843  0.0069444442185033406  0.9991780729987667  1.0000
  Hf  Hf15      1.0  0.008620610444278727  0.0002777778081386137  0.9993830310822012  1.0000
  Hf  Hf16      1.0  0.003898388145938215  0.009722222109251671  0.9992976319604635  1.0000
  Hf  Hf17      1.0  0.00023172142748342558  0.0030555554764761694  0.9991951526392266  1.0000
  Hf  Hf18      1.0  0.007565054806721421  0.006388888538680177  0.9994001108537585  1.0000
