data_image0
_chemical_formula_structural       HIn24Rh8
_chemical_formula_sum              "H1 In24 Rh8"
_cell_length_a       7.304290294647217
_cell_length_b       10.113171577453613
_cell_length_c       100.33951568603516
_cell_angle_alpha    90.0
_cell_angle_beta     90.0
_cell_angle_gamma    90.0

_space_group_name_H-M_alt    "P 1"
_space_group_IT_number       1

loop_
  _space_group_symop_operation_xyz
  'x, y, z'

loop_
  _atom_site_type_symbol
  _atom_site_label
  _atom_site_symmetry_multiplicity
  _atom_site_fract_x
  _atom_site_fract_y
  _atom_site_fract_z
  _atom_site_occupancy
  H   H1        1.0  1.5000000433562952e-10  0.0024999141499627182  0.0  1.0000
  In  In1       1.0  5.000000144520984e-11  0.008275102259159828  0.9990892715013632  1.0000
  In  In2       1.0  5.000000144520984e-11  0.003275102303363057  0.9995932192060175  1.0000
  In  In3       1.0  0.00500000026520728  0.008275102259159828  0.9990892715013632  1.0000
  In  In4       1.0  0.00500000026520728  0.003275102303363057  0.9995932192060175  1.0000
  In  In5       1.0  0.00500000026520728  0.003275102303363057  0.9990892715013632  1.0000
  In  In6       1.0  0.00500000026520728  0.008275102259159828  0.9995932192060175  1.0000
  In  In7       1.0  5.000000144520984e-11  0.003275102303363057  0.9990892715013632  1.0000
  In  In8       1.0  5.000000144520984e-11  0.008275102259159828  0.9995932192060175  1.0000
  In  In9       1.0  0.007435005488893054  0.005775102465441562  0.9996922166189758  1.0000
  In  In10      1.0  0.007435005488893054  0.0007751023254646714  0.9991882689143214  1.0000
  In  In11      1.0  0.002414464919915236  0.009050273652169297  0.9998772069483636  1.0000
  In  In12      1.0  0.002435005223685775  0.004257323092902975  0.999341245205183  1.0000
  In  In13      1.0  0.0024142904951277916  0.0024999139657825987  0.9998772117006005  1.0000
  In  In14      1.0  0.002435005223685775  0.007292882206340388  0.999341245205183  1.0000
  In  In15      1.0  0.007585710035286767  0.0024999141499627182  0.9998772117006005  1.0000
  In  In16      1.0  0.0075649953067287844  0.007292882206340388  0.999341245205183  1.0000
  In  In17      1.0  0.007585535610499324  0.009050273652169297  0.9998772069483636  1.0000
  In  In18      1.0  0.0075649953067287844  0.004257323092902975  0.999341245205183  1.0000
  In  In19      1.0  0.007499174430140552  0.005775095466597022  7.687931393817423e-06  1.0000
  In  In20      1.0  0.007435005488893054  0.0007751023254646714  0.9994942214960445  1.0000
  In  In21      1.0  0.0025649950415215046  0.005775102465441562  0.9996922166189758  1.0000
  In  In22      1.0  0.0025649950415215046  0.0007751023254646714  0.9991882689143214  1.0000
  In  In23      1.0  0.0025008258452670082  0.005775095466597022  7.687931393817423e-06  1.0000
  In  In24      1.0  0.0025649950415215046  0.0007751023254646714  0.9994942214960445  1.0000
  Rh  Rh1       1.0  5.000000144520984e-11  0.005775102465441562  0.9994974895500209  1.0000
  Rh  Rh2       1.0  0.01000000053041456  0.0007751143892624959  0.9999630038350172  1.0000
  Rh  Rh3       1.0  0.00500000026520728  0.007262387872322027  0.999838523145219  1.0000
  Rh  Rh4       1.0  0.00500000026520728  0.002325307160574134  0.999341245205183  1.0000
  Rh  Rh5       1.0  0.00500000026520728  0.004287931986955639  0.9998385267093968  1.0000
  Rh  Rh6       1.0  0.00500000026520728  0.009224897770308991  0.999341245205183  1.0000
  Rh  Rh7       1.0  5.000000144520984e-11  0.005775102465441562  0.999185000860345  1.0000
  Rh  Rh8       1.0  5.000000144520984e-11  0.0007751023254646714  0.9996889482679845  1.0000
