data_image0
_chemical_formula_structural       COV8Rh8V8Rh8V8Rh8
_chemical_formula_sum              "C1 O1 V24 Rh24"
_cell_length_a       14.65377426147461
_cell_length_b       6.48478631697069
_cell_length_c       103.6567153930664
_cell_angle_alpha    64.37312713074708
_cell_angle_beta     90.0
_cell_angle_gamma    68.91506323888103

_space_group_name_H-M_alt    "P 1"
_space_group_IT_number       1

loop_
  _space_group_symop_operation_xyz
  'x, y, z'

loop_
  _atom_site_type_symbol
  _atom_site_label
  _atom_site_symmetry_multiplicity
  _atom_site_fract_x
  _atom_site_fract_y
  _atom_site_fract_z
  _atom_site_occupancy
  C   C1        1.0  0.00771390490801766  0.005171366327495891  0.9998512302184607  1.0000
  O   O1        1.0  0.00771390490801766  0.005171366327495891  0.9999669971928742  1.0000
  V   V1        1.0  0.005018148325336671  0.002036459970397434  0.9991536524074538  1.0000
  V   V2        1.0  1.814837926565313e-05  0.0070364600468308175  0.9992889415833031  1.0000
  V   V3        1.0  0.005018148268755282  0.007963540008757097  0.9992638568061205  1.0000
  V   V4        1.0  1.8148531021956987e-05  0.0029635397586114795  0.9991285676349716  1.0000
  V   V5        1.0  0.007518148841521234  0.004536459921758008  0.9990860078198112  1.0000
  V   V6        1.0  0.002518148541774772  0.009536459824479157  0.9992212970003608  1.0000
  V   V7        1.0  0.007518148842634131  0.0004635399809631402  0.9991962122179139  1.0000
  V   V8        1.0  0.002518148542887669  0.005463539883684289  0.9990609230426287  1.0000
  Rh  Rh1       1.0  0.008589022942496033  0.006429125246999342  0.9991700852830339  1.0000
  Rh  Rh2       1.0  0.003589022885526003  0.0014291256048465457  0.9993053744512687  1.0000
  Rh  Rh3       1.0  0.006447274258490045  0.008570874113739633  0.9991121341943365  1.0000
  Rh  Rh4       1.0  0.0014472742430030469  0.003570874211018485  0.9992474233696217  1.0000
  Rh  Rh5       1.0  0.00608902290709718  0.003929125469351003  0.9992377298659761  1.0000
  Rh  Rh6       1.0  0.0010890229168819565  0.008929125024647681  0.9991024407000915  1.0000
  Rh  Rh7       1.0  0.008947274296272475  0.0010708742596579111  0.9990444898889393  1.0000
  Rh  Rh8       1.0  0.003947274223091192  0.006070874336091294  0.9991797787772788  1.0000
  V   V9        1.0  0.005018148325336671  0.002036459970397434  0.9994242307632886  1.0000
  V   V10       1.0  3.8193258404079606e-05  0.006976632163470095  0.9995609725714998  1.0000
  V   V11       1.0  0.005018148268755282  0.007963540008757097  0.9995344351619553  1.0000
  V   V12       1.0  1.8148531021956987e-05  0.0029635397586114795  0.9993991459908063  1.0000
  V   V13       1.0  0.007518148841521234  0.004536459921758008  0.9993565861756459  1.0000
  V   V14       1.0  0.002518148541774772  0.009536459824479157  0.9994918753561954  1.0000
  V   V15       1.0  0.007518148842634131  0.0004635399809631402  0.9994667905737487  1.0000
  V   V16       1.0  0.002518148542887669  0.005463539883684289  0.9993315013984634  1.0000
  Rh  Rh9       1.0  0.008589022942496033  0.006429125246999342  0.9994406636388685  1.0000
  Rh  Rh10      1.0  0.0035349033117666184  0.0015055382295435806  0.9995748840559424  1.0000
  Rh  Rh11      1.0  0.006447274258490045  0.008570874113739633  0.9993827125501712  1.0000
  Rh  Rh12      1.0  0.0014472742430030469  0.003570874211018485  0.9995180017254565  1.0000
  Rh  Rh13      1.0  0.00608902290709718  0.003929125469351003  0.9995083082218109  1.0000
  Rh  Rh14      1.0  0.0010890229168819565  0.008929125024647681  0.9993730190559262  1.0000
  Rh  Rh15      1.0  0.008947274296272475  0.0010708742596579111  0.9993150679572643  1.0000
  Rh  Rh16      1.0  0.003947274223091192  0.006070874336091294  0.9994503571331136  1.0000
  V   V17       1.0  0.004937470188039223  0.0024164745923538067  0.9996970282474543  1.0000
  V   V18       1.0  5.723422843695123e-05  0.006663356739847934  0.9997891112202207  1.0000
  V   V19       1.0  0.004991150659833094  0.008268778809548776  0.9997762647424951  1.0000
  V   V20       1.0  0.009981851748127494  0.0029724918449193223  0.9996771793351535  1.0000
  V   V21       1.0  0.007543640172756547  0.004583958752966504  0.9996327070988466  1.0000
  V   V22       1.0  0.0023988940272135135  0.009511534203333123  0.9997461535662978  1.0000
  V   V23       1.0  0.007445211883535803  0.0006478542642985014  0.9997227249045628  1.0000
  V   V24       1.0  0.002516405727776837  0.005451527682648325  0.9996125412242657  1.0000
  Rh  Rh17      1.0  0.008508981489397792  0.0066690322659831046  0.9996990107842123  1.0000
  Rh  Rh18      1.0  0.0037121234961592755  0.0014549039793531808  0.999835780012937  1.0000
  Rh  Rh19      1.0  0.006373853103019668  0.008753761828774813  0.9996562356545636  1.0000
  Rh  Rh20      1.0  0.00160040898576442  0.003355502308076942  0.9997825834504478  1.0000
  Rh  Rh21      1.0  0.006093916177196188  0.004033814189922649  0.9997665954297784  1.0000
  Rh  Rh22      1.0  0.0010260062317963507  0.009110083839027715  0.9996422178778911  1.0000
  Rh  Rh23      1.0  0.008919125115375886  0.0011522611341982546  0.9995925070446112  1.0000
  Rh  Rh24      1.0  0.0038816919534510773  0.006369317514257855  0.9997222767837489  1.0000
