data_image0
_chemical_formula_structural       COSi9Pd18Si9Pd18
_chemical_formula_sum              "C1 O1 Si18 Pd36"
_cell_length_a       9.65652988943329
_cell_length_b       6.576270834513594
_cell_length_c       114.7986068725586
_cell_angle_alpha    63.87129772600463
_cell_angle_beta     75.3404055536837
_cell_angle_gamma    70.09211010929525

_space_group_name_H-M_alt    "P 1"
_space_group_IT_number       1

loop_
  _space_group_symop_operation_xyz
  'x, y, z'

loop_
  _atom_site_type_symbol
  _atom_site_label
  _atom_site_symmetry_multiplicity
  _atom_site_fract_x
  _atom_site_fract_y
  _atom_site_fract_z
  _atom_site_occupancy
  C   C1        1.0  0.008168466393649163  0.0038313218652445955  0.9998084210225975  1.0000
  O   O1        1.0  0.008168466393649163  0.0038313218652445955  0.9999129521196692  1.0000
  Si  Si1       1.0  0.008328835272595776  0.008222090788359705  0.9994935212092613  1.0000
  Si  Si2       1.0  0.001720244176504525  0.0082730204205486  0.9992722660884031  1.0000
  Si  Si3       1.0  0.005053577522239687  0.008273020112515945  0.9990554681426397  1.0000
  Si  Si4       1.0  0.009507193411439326  0.0019021743452071512  0.9996254591028365  1.0000
  Si  Si5       1.0  0.0029518928716640996  0.00145486741585076  0.99941730976799  1.0000
  Si  Si6       1.0  0.006164688809732369  0.0016063535068535902  0.9992000001823437  1.0000
  Si  Si7       1.0  0.0022649702330305673  0.004869547158990234  0.999665304022975  1.0000
  Si  Si8       1.0  0.00562554657341232  0.004838404391862987  0.9994590908024842  1.0000
  Si  Si9       1.0  0.008942466201675462  0.004939687261979138  0.9992361333313527  1.0000
  Pd  Pd1       1.0  0.00814140890969627  0.0021378216943929384  0.9994641795080287  1.0000
  Pd  Pd2       1.0  0.0014936467397251474  0.0022861457821360953  0.9992427908276492  1.0000
  Pd  Pd3       1.0  0.004718385845918775  0.0023332674546986416  0.999669087993089  1.0000
  Pd  Pd4       1.0  0.009744601625998193  0.005108960227325706  0.9996636689811502  1.0000
  Pd  Pd5       1.0  0.003056485144301995  0.005041907837567592  0.9994412005698502  1.0000
  Pd  Pd6       1.0  0.0063912859364660185  0.004939687071917247  0.9992294756231391  1.0000
  Pd  Pd7       1.0  0.0006091330440347083  0.007593228202103739  0.9991277343055076  1.0000
  Pd  Pd8       1.0  0.003988166148210681  0.007409325821192563  0.9995683274198403  1.0000
  Pd  Pd9       1.0  0.007275800097225049  0.007593228066056317  0.9993445321293714  1.0000
  Pd  Pd10      1.0  0.0009635719974067147  0.008999111296963758  0.9995170199740663  1.0000
  Pd  Pd11      1.0  0.004296200299157253  0.008878485454934979  0.9992821467291538  1.0000
  Pd  Pd12      1.0  0.007629534161635294  0.00887848493127991  0.9990653482586191  1.0000
  Pd  Pd13      1.0  0.0002553990054616068  0.004939686976400769  0.9994069177983693  1.0000
  Pd  Pd14      1.0  0.003588732583731065  0.0049396868868148164  0.9991901198421448  1.0000
  Pd  Pd15      1.0  0.007061914845324123  0.004922221098040059  0.999614535843976  1.0000
  Pd  Pd16      1.0  0.002077581902406984  0.001242075858348957  0.9996410150829904  1.0000
  Pd  Pd17      1.0  0.005551376194266378  0.0010481949715030043  0.9994436285604895  1.0000
  Pd  Pd18      1.0  0.008942466201675462  0.0010008885752792272  0.9992361330398719  1.0000
  Si  Si10      1.0  0.00838691138471773  0.008273020219814452  0.9988386701753978  1.0000
  Si  Si11      1.0  0.001720244176504525  0.0082730204205486  0.9986218718339918  1.0000
  Si  Si12      1.0  0.005053577522239687  0.008273020112515945  0.9984050738882283  1.0000
  Si  Si13      1.0  0.009498021845421803  0.0016063533281943836  0.9989832022399167  1.0000
  Si  Si14      1.0  0.0028313553606486297  0.0016063535425339397  0.9987664038827667  1.0000
  Si  Si15      1.0  0.006164688809732369  0.0016063535068535902  0.9985496059279323  1.0000
  Si  Si16      1.0  0.0022757997169022895  0.004939687160841905  0.9990193349821617  1.0000
  Si  Si17      1.0  0.0056091331659860275  0.004939686809684768  0.998802537035286  1.0000
  Si  Si18      1.0  0.008942466201675462  0.004939687261979138  0.9985857390769414  1.0000
  Pd  Pd19      1.0  0.008160313431195472  0.0022861454815475742  0.998809194408953  1.0000
  Pd  Pd20      1.0  0.0014936467397251474  0.0022861457821360953  0.998592396573238  1.0000
  Pd  Pd21      1.0  0.0048269803955060375  0.0022861456602067806  0.9990259928705906  1.0000
  Pd  Pd22      1.0  0.00972461979894406  0.004939686548262179  0.9990126776718149  1.0000
  Pd  Pd23      1.0  0.0030579526940794316  0.004939686705871843  0.9987958798485072  1.0000
  Pd  Pd24      1.0  0.0063912859364660185  0.004939687071917247  0.9985790813687278  1.0000
  Pd  Pd25      1.0  0.0006091330440347083  0.007593228202103739  0.9984773400510962  1.0000
  Pd  Pd26      1.0  0.003942466234747007  0.007593228589711385  0.9989109363454948  1.0000
  Pd  Pd27      1.0  0.007275800097225049  0.007593228066056317  0.99869413787496  1.0000
  Pd  Pd28      1.0  0.0009628670567706658  0.008878485088889575  0.9988485504353114  1.0000
  Pd  Pd29      1.0  0.004296200299157253  0.008878485454934979  0.9986317524747425  1.0000
  Pd  Pd30      1.0  0.007629534161635294  0.00887848493127991  0.9984149540042078  1.0000
  Pd  Pd31      1.0  0.0002553990054616068  0.004939686976400769  0.998756523543958  1.0000
  Pd  Pd32      1.0  0.003588732583731065  0.0049396868868148164  0.9985397255877334  1.0000
  Pd  Pd33      1.0  0.006922066032814803  0.004939686535657678  0.9989733218952691  1.0000
  Pd  Pd34      1.0  0.0022757997169022895  0.0010008887896187832  0.9990193352019325  1.0000
  Pd  Pd35      1.0  0.0056091331659860275  0.0010008887539384342  0.9988025372470981  1.0000
  Pd  Pd36      1.0  0.008942466201675462  0.0010008885752792272  0.9985857387854605  1.0000
