data_image0
_chemical_formula_structural       COCo12Pt4Co12Pt4
_chemical_formula_sum              "C1 O1 Co24 Pt8"
_cell_length_a       5.1816816329956055
_cell_length_b       11.150795176373332
_cell_length_c       102.92748260498047
_cell_angle_alpha    68.33889972640239
_cell_angle_beta     90.0
_cell_angle_gamma    62.30973070809446

_space_group_name_H-M_alt    "P 1"
_space_group_IT_number       1

loop_
  _space_group_symop_operation_xyz
  'x, y, z'

loop_
  _atom_site_type_symbol
  _atom_site_label
  _atom_site_symmetry_multiplicity
  _atom_site_fract_x
  _atom_site_fract_y
  _atom_site_fract_z
  _atom_site_occupancy
  C   C1        1.0  0.004889326412702623  0.0076760575273701155  0.9998426342226193  1.0000
  O   O1        1.0  0.004889326412702623  0.0076760575273701155  0.9999592213965692  1.0000
  Co  Co1       1.0  0.0032306159213714367  0.004208545645805722  0.999234664336188  1.0000
  Co  Co2       1.0  0.003230616730154325  0.009208545297140987  0.9990347208937547  1.0000
  Co  Co3       1.0  0.008481890790034165  0.001582908426136153  0.9989397731385411  1.0000
  Co  Co4       1.0  0.008481890879882438  0.006582908077471418  0.9991397166899327  1.0000
  Co  Co5       1.0  0.008481891219357758  0.004208545645805722  0.999234664336188  1.0000
  Co  Co6       1.0  0.008481890590271412  0.009208545297140987  0.9990347208937547  1.0000
  Co  Co7       1.0  0.006898982140092615  0.0007914542649527096  0.9991713657067901  1.0000
  Co  Co8       1.0  0.006898982793221604  0.005791454071941875  0.9989714222581325  1.0000
  Co  Co9       1.0  0.0016477073233145195  0.003417091432737645  0.9990663699126869  1.0000
  Co  Co10      1.0  0.0016477079245588754  0.008417091291611443  0.9992663137453263  1.0000
  Co  Co11      1.0  0.0016477072015736029  0.0007914542649527096  0.9991713657067901  1.0000
  Co  Co12      1.0  0.0016477074952352838  0.005791454071941875  0.9989714222581325  1.0000
  Pt  Pt1       1.0  0.00673146597692112  0.0033333332392491985  0.9990697192932281  1.0000
  Pt  Pt2       1.0  0.006731466066769393  0.008333332890584464  0.999269662555073  1.0000
  Pt  Pt3       1.0  0.003398132136427565  0.0016666666196245993  0.9989364237579998  1.0000
  Pt  Pt4       1.0  0.0033981327376719213  0.006666666478498397  0.9991363673010923  1.0000
  Co  Co13      1.0  0.003028297068653327  0.00432112492286872  0.9996178783326606  1.0000
  Co  Co14      1.0  0.0032808766830165104  0.00918192391447452  0.9994328676020592  1.0000
  Co  Co15      1.0  0.008481890790034165  0.001582908426136153  0.999339660132366  1.0000
  Co  Co16      1.0  0.008438392682245317  0.006624803050913393  0.9995406949781954  1.0000
  Co  Co17      1.0  0.008455014876746473  0.0043211477521073165  0.9996178947925567  1.0000
  Co  Co18      1.0  0.008483916004271803  0.009181922254166258  0.9994328555074875  1.0000
  Co  Co19      1.0  0.006851291000520118  0.0008035401676352153  0.9995667253011413  1.0000
  Co  Co20      1.0  0.006898982793221604  0.005791454071941875  0.9993713089624107  1.0000
  Co  Co21      1.0  0.0017744654761708833  0.0032892369045908775  0.999475612370908  1.0000
  Co  Co22      1.0  0.0015160854714293837  0.008549340655726661  0.9996513818275025  1.0000
  Co  Co23      1.0  0.0016725752288520798  0.000803863357015262  0.9995667523346783  1.0000
  Co  Co24      1.0  0.0016477074952352838  0.005791454071941875  0.9993713089624107  1.0000
  Pt  Pt5       1.0  0.006823491859212098  0.0032402181710139825  0.9994812770275674  1.0000
  Pt  Pt6       1.0  0.0066536023538397385  0.008411740118084312  0.9996636255213308  1.0000
  Pt  Pt7       1.0  0.003398132136427565  0.0016666666196245993  0.9993363107518248  1.0000
  Pt  Pt8       1.0  0.003432272062388043  0.006631279083287757  0.9995478281397336  1.0000
