data_image0
_chemical_formula_structural       HPd8Sb4Pd8Sb4
_chemical_formula_sum              "H1 Pd16 Sb8"
_cell_length_a       6.975674152374268
_cell_length_b       9.110724236018992
_cell_length_c       41.66167068481445
_cell_angle_alpha    90.0
_cell_angle_beta     90.0
_cell_angle_gamma    101.03530467960204

_space_group_name_H-M_alt    "P 1"
_space_group_IT_number       1

loop_
  _space_group_symop_operation_xyz
  'x, y, z'

loop_
  _atom_site_type_symbol
  _atom_site_label
  _atom_site_symmetry_multiplicity
  _atom_site_fract_x
  _atom_site_fract_y
  _atom_site_fract_z
  _atom_site_occupancy
  H   H1        1.0  0.0049242681156512124  0.009481838632299136  0.00021696987551546936  1.0000
  Pd  Pd1       1.0  0.00018514404816944433  0.0005181615405872689  0.9986529647254457  1.0000
  Pd  Pd2       1.0  0.004814855912159789  0.009033348802625588  0.9994979622409789  1.0000
  Pd  Pd3       1.0  0.004118245004738155  0.006250565484350952  0.9988284297712501  1.0000
  Pd  Pd4       1.0  0.0008768729469115305  0.0032727344322316487  0.9996735420990954  1.0000
  Pd  Pd5       1.0  0.0033420243639824465  0.0031456829213281174  0.998568884199784  1.0000
  Pd  Pd6       1.0  0.001636745787985035  0.006319362192175215  0.9994136027321284  1.0000
  Pd  Pd7       1.0  0.0020547093282042884  0.007994495643482565  0.0  1.0000
  Pd  Pd8       1.0  0.002927850272473757  0.0014889865552933615  0.9992025469425411  1.0000
  Sb  Sb1       1.0  0.0022084229294528474  0.008611276848767058  0.9989830808828289  1.0000
  Sb  Sb2       1.0  0.0027938270370938953  0.0009691807712644646  0.9998424850186887  1.0000
  Sb  Sb3       1.0  0.0039699474161404924  0.005647212345284414  0.9999034106550359  1.0000
  Sb  Sb4       1.0  0.0010216393557850273  0.003864142370519464  0.9990359696573191  1.0000
  Pd  Pd9       1.0  0.005185143922670001  0.0005181615405872689  0.9986529647254457  1.0000
  Pd  Pd10      1.0  0.009814855719905324  0.009033348802625588  0.9994979622409789  1.0000
  Pd  Pd11      1.0  0.009118245079503779  0.006250565484350952  0.9988284297712501  1.0000
  Pd  Pd12      1.0  0.005876872829756465  0.0032727344322316487  0.9996735420990954  1.0000
  Pd  Pd13      1.0  0.00834202443874807  0.0031456829213281174  0.998568884199784  1.0000
  Pd  Pd14      1.0  0.006636745541492113  0.006319362192175215  0.9994136027321284  1.0000
  Pd  Pd15      1.0  0.007054709152638578  0.007994495643482565  0.0  1.0000
  Pd  Pd16      1.0  0.007927850347239382  0.0014889865552933615  0.9992025469425411  1.0000
  Sb  Sb5       1.0  0.007208422749714948  0.008611276848767058  0.9989830808828289  1.0000
  Sb  Sb6       1.0  0.0077938268448394295  0.0009691807712644646  0.9998424850186887  1.0000
  Sb  Sb7       1.0  0.008969947223886027  0.005647212345284414  0.9999034106550359  1.0000
  Sb  Sb8       1.0  0.0060216391301530494  0.003864142370519464  0.9990359696573191  1.0000
