data_image0
_chemical_formula_structural       COZn4Si4As8
_chemical_formula_sum              "C1 O1 Zn4 Si4 As8"
_cell_length_a       5.728379249572754
_cell_length_b       5.728379249572754
_cell_length_c       103.46656799316406
_cell_angle_alpha    90.0
_cell_angle_beta     90.0
_cell_angle_gamma    90.0

_space_group_name_H-M_alt    "P 1"
_space_group_IT_number       1

loop_
  _space_group_symop_operation_xyz
  'x, y, z'

loop_
  _atom_site_type_symbol
  _atom_site_label
  _atom_site_symmetry_multiplicity
  _atom_site_fract_x
  _atom_site_fract_y
  _atom_site_fract_z
  _atom_site_occupancy
  C   C1        1.0  0.006184605843973362  0.005000017571696894  0.00016740203199187113  1.0000
  O   O1        1.0  0.006184605843973362  0.005000017571696894  0.0002833811830046226  1.0000
  Zn  Zn1       1.0  0.00118460119742361  0.005000002289132978  0.9991611334339424  1.0000
  Zn  Zn2       1.0  0.006184601291720281  0.005000002289132978  0.9994306775506081  1.0000
  Zn  Zn3       1.0  0.006184609745904575  0.009999997424725399  0.9996988468610197  1.0000
  Zn  Zn4       1.0  0.0011846017664552452  0.00999996685959757  0.9999105007753527  1.0000
  Si  Si1       1.0  0.001184602172906413  0.004999995135592422  0.9996976964365114  1.0000
  Si  Si2       1.0  0.00118460119742361  2.4999999754041473e-09  0.9994306775506081  1.0000
  Si  Si3       1.0  0.006184601291720281  2.4999999754041473e-09  0.9991611334339424  1.0000
  Si  Si4       1.0  0.006184605843973362  0.005000017571696894  0.0  1.0000
  As  As1       1.0  0.003684601122636595  0.002369204996134695  0.9992959056362943  1.0000
  As  As2       1.0  0.0035538038361415305  0.007500002133055729  0.9995654494649219  1.0000
  As  As3       1.0  0.008815398422138097  0.0025000024452102266  0.9995654494649219  1.0000
  As  As4       1.0  0.008684601135643032  0.007630800069872662  0.9992959056362943  1.0000
  As  As5       1.0  0.008434445074002258  0.007108313921832518  0.9998390626970182  1.0000
  As  As6       1.0  0.008553803849147968  0.0025000024452102266  0.9990263615196286  1.0000
  As  As7       1.0  0.003815398734292594  0.007500002133055729  0.9990263615196286  1.0000
  As  As8       1.0  0.003934840100315634  0.0028917654434483433  0.9998390621209418  1.0000
