data_image0
_chemical_formula_structural       COW16
_chemical_formula_sum              "C1 O1 W16"
_cell_length_a       5.510211944580078
_cell_length_b       5.510211720991476
_cell_length_c       101.49348449707031
_cell_angle_alpha    90.0
_cell_angle_beta     90.0
_cell_angle_gamma    109.47122101821896

_space_group_name_H-M_alt    "P 1"
_space_group_IT_number       1

loop_
  _space_group_symop_operation_xyz
  'x, y, z'

loop_
  _atom_site_type_symbol
  _atom_site_label
  _atom_site_symmetry_multiplicity
  _atom_site_fract_x
  _atom_site_fract_y
  _atom_site_fract_z
  _atom_site_occupancy
  C   C1        1.0  0.0054166666731345365  0.007083333514993804  0.00019705679655811787  1.0000
  O   O1        1.0  0.0054166666731345365  0.007083333514993804  0.0003152912268583354  1.0000
  W   W1        1.0  0.0037499998400630486  0.0037499998852670714  0.0  1.0000
  W   W2        1.0  0.006250000115342045  0.0012500000215124242  0.9997783569113672  1.0000
  W   W3        1.0  0.0037499998400630486  0.0037499998852670714  0.9995567135290966  1.0000
  W   W4        1.0  0.006249999892789701  0.006250000286832322  0.999335070146826  1.0000
  W   W5        1.0  0.0037499998957890896  0.008749999971316768  0.0  1.0000
  W   W6        1.0  0.006249999892789701  0.006250000286832322  0.9997783569113672  1.0000
  W   W7        1.0  0.0037499998957890896  0.008749999971316768  0.9995567135290966  1.0000
  W   W8        1.0  0.006250000115342045  0.0012500000215124242  0.999335070146826  1.0000
  W   W9        1.0  0.008749999988798501  0.0037499998852670714  0.0  1.0000
  W   W10       1.0  0.0012499999666065937  0.0012500000215124242  0.9997783569113672  1.0000
  W   W11       1.0  0.008749999988798501  0.0037499998852670714  0.9995567135290966  1.0000
  W   W12       1.0  0.0012500000820893672  0.006250000286832322  0.999335070146826  1.0000
  W   W13       1.0  0.008750000044524541  0.008749999971316768  0.0  1.0000
  W   W14       1.0  0.0012500000820893672  0.006250000286832322  0.9997783569113672  1.0000
  W   W15       1.0  0.008750000044524541  0.008749999971316768  0.9995567135290966  1.0000
  W   W16       1.0  0.0012499999666065937  0.0012500000215124242  0.999335070146826  1.0000
