data_image0
_chemical_formula_structural       HSi18Pt12Si18Pt12
_chemical_formula_sum              "H1 Si36 Pt24"
_cell_length_a       12.780169361091575
_cell_length_b       10.461450687148156
_cell_length_c       101.63245391845703
_cell_angle_alpha    100.89339477162947
_cell_angle_beta     81.10089199218801
_cell_angle_gamma    76.47457314240819

_space_group_name_H-M_alt    "P 1"
_space_group_IT_number       1

loop_
  _space_group_symop_operation_xyz
  'x, y, z'

loop_
  _atom_site_type_symbol
  _atom_site_label
  _atom_site_symmetry_multiplicity
  _atom_site_fract_x
  _atom_site_fract_y
  _atom_site_fract_z
  _atom_site_occupancy
  H   H1        1.0  0.0068363162940874075  0.0014930704064308234  2.362725594204122e-06  1.0000
  Si  Si1       1.0  0.005604875490869319  0.002688178657692032  0.9999432622930641  1.0000
  Si  Si2       1.0  0.005646447663009655  0.005934323042769788  0.9998099521307984  1.0000
  Si  Si3       1.0  0.0056627550435074045  0.009206753333099857  0.9996672084910698  1.0000
  Si  Si4       1.0  0.0006852137518467312  0.0020048125167544065  0.9996303732179377  1.0000
  Si  Si5       1.0  0.0005476027183873607  0.005495437874291414  0.9998924719596076  1.0000
  Si  Si6       1.0  0.0006613799175163376  0.00877031703008062  0.9997559304119705  1.0000
  Si  Si7       1.0  0.004136107432591125  0.0017302676938887698  0.9998937960516547  1.0000
  Si  Si8       1.0  0.004421888145220024  0.00391344994415141  0.9998058404006709  1.0000
  Si  Si9       1.0  0.0043807546170927004  0.007439632641738818  0.9996642069423742  1.0000
  Si  Si10      1.0  0.009452397157468108  0.001406553354927889  0.9998473459737318  1.0000
  Si  Si11      1.0  0.0093859703304353  0.004659604218704463  0.9997049532890072  1.0000
  Si  Si12      1.0  0.009394186552744729  0.008034893966067592  0.9999558260548815  1.0000
  Si  Si13      1.0  0.0025349367787135257  0.0024135052373669397  0.9997885486305899  1.0000
  Si  Si14      1.0  0.002532984184469716  0.005833333094433543  0.9996689042095598  1.0000
  Si  Si15      1.0  0.002627601782478593  0.008848227928126898  0.9998923336958108  1.0000
  Si  Si16      1.0  0.007532984141555557  0.0008333333553275794  0.9996689040277985  1.0000
  Si  Si17      1.0  0.007221752880280659  0.004849352591544547  0.9999029175497063  1.0000
  Si  Si18      1.0  0.007521258767142024  0.0076864794527146995  0.9997909877563854  1.0000
  Pt  Pt1       1.0  0.0036612481606255695  0.003235023165429363  0.9995964121851229  1.0000
  Pt  Pt2       1.0  0.0036966146388152108  0.006392540564793669  0.9998369648839731  1.0000
  Pt  Pt3       1.0  0.0036804844324890337  0.009838691165045276  0.9997198712417893  1.0000
  Pt  Pt4       1.0  0.008661551122328366  0.009476752369551191  0.9998049705675791  1.0000
  Pt  Pt5       1.0  0.008692354292746014  0.0026822932794015133  0.9996836420978744  1.0000
  Pt  Pt6       1.0  0.00851795053667908  0.006188549365915861  0.999917579503783  1.0000
  Pt  Pt7       1.0  0.006348796732097076  0.00022889872115001902  0.9998469657973512  1.0000
  Pt  Pt8       1.0  0.006464378663201675  0.003431087182339713  0.9997301367996765  1.0000
  Pt  Pt9       1.0  0.006404720012134849  0.006764976784795408  0.9996117114001621  1.0000
  Pt  Pt10      1.0  0.0014047202083138626  0.003987199149533265  0.9996549396811105  1.0000
  Pt  Pt11      1.0  0.0013933025897277687  0.007339163929122475  0.9998924241987004  1.0000
  Pt  Pt12      1.0  0.0014317795781354722  0.0006685495801754009  0.99977693187987  1.0000
  Si  Si19      1.0  0.005685213862197426  0.0025603679315720777  0.9995439166490686  1.0000
  Si  Si20      1.0  0.005685213862197426  0.005893701743578788  0.999414231706838  1.0000
  Si  Si21      1.0  0.005685213862197426  0.009227034467691459  0.9992845467434448  1.0000
  Si  Si22      1.0  0.0006852137518467312  0.0020048125167544065  0.9992413184688762  1.0000
  Si  Si23      1.0  0.0006852137518467312  0.005338145784814097  0.9995006882651257  1.0000
  Si  Si24      1.0  0.0006852137518467312  0.008671479596820809  0.9993710033228951  1.0000
  Si  Si25      1.0  0.0043807546170927004  0.0007729655616724166  0.9995345220883554  1.0000
  Si  Si26      1.0  0.0043807546170927004  0.004106298829732107  0.9994048371355435  1.0000
  Si  Si27      1.0  0.0043807546170927004  0.007439632641738818  0.9992751521933128  1.0000
  Si  Si28      1.0  0.009380754420913687  0.001328521078666657  0.9994480655274367  1.0000
  Si  Si29      1.0  0.009380754420913687  0.004661854890673368  0.9993183805852061  1.0000
  Si  Si30      1.0  0.009380754420913687  0.007995187614786039  0.9995777503708744  1.0000
  Si  Si31      1.0  0.002532984184469716  0.002500000007689526  0.9994095344168373  1.0000
  Si  Si32      1.0  0.002532984184469716  0.005833333094433543  0.9992798494604983  1.0000
  Si  Si33      1.0  0.002532984184469716  0.009166666543808908  0.999539219260275  1.0000
  Si  Si34      1.0  0.007532984141555557  0.0008333333553275794  0.9992798495719734  1.0000
  Si  Si35      1.0  0.007532984141555557  0.004166667167334291  0.9995392193788041  1.0000
  Si  Si36      1.0  0.007532984141555557  0.007499999891446962  0.9994095344154109  1.0000
  Pt  Pt13      1.0  0.0036612481606255695  0.003235023165429363  0.9992073574360614  1.0000
  Pt  Pt14      1.0  0.0036612481606255695  0.00656835625217338  0.9994667272287838  1.0000
  Pt  Pt15      1.0  0.0036612481606255695  0.009901689701548744  0.999337042279499  1.0000
  Pt  Pt16      1.0  0.008661248270976264  0.009346134873152995  0.9994234989610474  1.0000
  Pt  Pt17      1.0  0.008661248270976264  0.0026794676117709196  0.9992938141035015  1.0000
  Pt  Pt18      1.0  0.008661248270976264  0.006012800698514936  0.9995531838962239  1.0000
  Pt  Pt19      1.0  0.006404720012134849  9.831024867602697e-05  0.9994820265567245  1.0000
  Pt  Pt20      1.0  0.006404720012134849  0.0034316436980513913  0.9993523416074397  1.0000
  Pt  Pt21      1.0  0.006404720012134849  0.006764976784795408  0.9992226566511007  1.0000
  Pt  Pt22      1.0  0.0014047202083138626  0.003987199149533265  0.9992658849320492  1.0000
  Pt  Pt23      1.0  0.0014047202083138626  0.007320532236277283  0.9995252547247716  1.0000
  Pt  Pt24      1.0  0.0014047202083138626  0.0006538657908157379  0.9993955698830975  1.0000
