data_image0
_chemical_formula_structural       HZr12
_chemical_formula_sum              "H1 Zr12"
_cell_length_a       5.646965503692627
_cell_length_b       6.142476603317553
_cell_length_c       102.60276794433594
_cell_angle_alpha    105.3899987916737
_cell_angle_beta     90.0
_cell_angle_gamma    117.36550574437395

_space_group_name_H-M_alt    "P 1"
_space_group_IT_number       1

loop_
  _space_group_symop_operation_xyz
  'x, y, z'

loop_
  _atom_site_type_symbol
  _atom_site_label
  _atom_site_symmetry_multiplicity
  _atom_site_fract_x
  _atom_site_fract_y
  _atom_site_fract_z
  _atom_site_occupancy
  H   H1        1.0  0.005157361658995448  0.008074028328020412  0.0001861276792972623  1.0000
  Zr  Zr1       1.0  0.005416666967992009  0.006925972015467777  0.9999511601893086  1.0000
  Zr  Zr2       1.0  0.0004166668360524638  0.006925972015467777  0.00011003888074665243  1.0000
  Zr  Zr3       1.0  0.009583333224081505  0.0019259717220716168  0.9998717208795931  1.0000
  Zr  Zr4       1.0  0.004583333421990823  0.0019259717220716168  3.059957103106338e-05  1.0000
  Zr  Zr5       1.0  0.005416666967992009  0.006925972015467777  0.9996334030968959  1.0000
  Zr  Zr6       1.0  0.0004166668360524638  0.006925972015467777  0.9997922814978707  1.0000
  Zr  Zr7       1.0  0.009583333224081505  0.0019259717220716168  0.9995539637871803  1.0000
  Zr  Zr8       1.0  0.004583333421990823  0.0019259717220716168  0.9997128421881551  1.0000
  Zr  Zr9       1.0  0.005416666967992009  0.006925972015467777  0.9993156457140199  1.0000
  Zr  Zr10      1.0  0.0004166668360524638  0.006925972015467777  0.9994745244054578  1.0000
  Zr  Zr11      1.0  0.009583333224081505  0.0019259717220716168  0.9992362064043043  1.0000
  Zr  Zr12      1.0  0.004583333421990823  0.0019259717220716168  0.9993950850957423  1.0000
