data_image0
_chemical_formula_structural       COV4Pt4V4Pt4V4Pt4V4Pt4
_chemical_formula_sum              "C1 O1 V16 Pt16"
_cell_length_a       8.307213152055168
_cell_length_b       7.6654767990112305
_cell_length_c       100.66191101074219
_cell_angle_alpha    90.0
_cell_angle_beta     76.6624562170435
_cell_angle_gamma    76.6624562170435

_space_group_name_H-M_alt    "P 1"
_space_group_IT_number       1

loop_
  _space_group_symop_operation_xyz
  'x, y, z'

loop_
  _atom_site_type_symbol
  _atom_site_label
  _atom_site_symmetry_multiplicity
  _atom_site_fract_x
  _atom_site_fract_y
  _atom_site_fract_z
  _atom_site_occupancy
  C   C1        1.0  0.009113537052308803  0.003880731597257081  0.9999936598415614  1.0000
  O   O1        1.0  0.009113537052308803  0.003880731597257081  0.0001128704207523329  1.0000
  V   V1        1.0  0.0008864630805221597  0.004687500187400313  0.999602370091544  1.0000
  V   V2        1.0  0.005886463384135788  0.0009375000628986202  0.9996975582464166  1.0000
  V   V3        1.0  0.005886463384135788  0.003437500111496906  0.9998879353967001  1.0000
  V   V4        1.0  0.0008864630805221597  0.0021875001388020274  0.9997927466497003  1.0000
  Pt  Pt1       1.0  0.008386463061546308  0.00031250014354598977  0.9998403412040896  1.0000
  Pt  Pt2       1.0  0.003386463232328974  0.0015625001008503236  0.999554775889902  1.0000
  Pt  Pt3       1.0  0.003386463232328974  0.004062500149448609  0.9997451524480585  1.0000
  Pt  Pt4       1.0  0.008386463061546308  0.002812500192144275  0.9996499640538061  1.0000
  V   V5        1.0  0.0008864630805221597  0.004687500187400313  0.999221616383104  1.0000
  V   V6        1.0  0.005886463384135788  0.0009375000628986202  0.9993168048340403  1.0000
  V   V7        1.0  0.005886463384135788  0.003437500111496906  0.9995071816882602  1.0000
  V   V8        1.0  0.0008864630805221597  0.0021875001388020274  0.999411993237324  1.0000
  Pt  Pt5       1.0  0.008386463061546308  0.00031250014354598977  0.9994595874956498  1.0000
  Pt  Pt6       1.0  0.003386463232328974  0.0015625001008503236  0.9991740221814622  1.0000
  Pt  Pt7       1.0  0.003386463232328974  0.004062500149448609  0.9993643990356821  1.0000
  Pt  Pt8       1.0  0.008386463061546308  0.002812500192144275  0.9992692106414298  1.0000
  V   V9        1.0  0.0008864630805221597  0.009687499798614028  0.999602370091544  1.0000
  V   V10       1.0  0.005886463384135788  0.005937499917103764  0.9996975582464166  1.0000
  V   V11       1.0  0.005886463384135788  0.008437499722710622  0.9998879353967001  1.0000
  V   V12       1.0  0.0008864630805221597  0.007187499993007171  0.9997927466497003  1.0000
  Pt  Pt9       1.0  0.008386463061546308  0.005312500483733988  0.9998403412040896  1.0000
  Pt  Pt10      1.0  0.003386463232328974  0.006562500441038323  0.999554775889902  1.0000
  Pt  Pt11      1.0  0.003386463232328974  0.009062499760662326  0.9997451524480585  1.0000
  Pt  Pt12      1.0  0.008386463061546308  0.007812500775323701  0.9996499640538061  1.0000
  V   V13       1.0  0.0008864630805221597  0.009687499798614028  0.999221616383104  1.0000
  V   V14       1.0  0.005886463384135788  0.005937499917103764  0.9993168048340403  1.0000
  V   V15       1.0  0.005886463384135788  0.008437499722710622  0.9995071816882602  1.0000
  V   V16       1.0  0.0008864630805221597  0.007187499993007171  0.999411993237324  1.0000
  Pt  Pt13      1.0  0.008386463061546308  0.005312500483733988  0.9994595874956498  1.0000
  Pt  Pt14      1.0  0.003386463232328974  0.006562500441038323  0.9991740221814622  1.0000
  Pt  Pt15      1.0  0.003386463232328974  0.009062499760662326  0.9993643990356821  1.0000
  Pt  Pt16      1.0  0.008386463061546308  0.007812500775323701  0.9992692106414298  1.0000
