data_image0
_chemical_formula_structural       CONi24Sb8
_chemical_formula_sum              "C1 O1 Ni24 Sb8"
_cell_length_a       7.077652257805756
_cell_length_b       8.283946453898135
_cell_length_c       99.45291900634766
_cell_angle_alpha    92.58339727071096
_cell_angle_beta     93.99385275745743
_cell_angle_gamma    97.1124191047122

_space_group_name_H-M_alt    "P 1"
_space_group_IT_number       1

loop_
  _space_group_symop_operation_xyz
  'x, y, z'

loop_
  _atom_site_type_symbol
  _atom_site_label
  _atom_site_symmetry_multiplicity
  _atom_site_fract_x
  _atom_site_fract_y
  _atom_site_fract_z
  _atom_site_occupancy
  C   C1        1.0  0.009332720377112025  0.008829130670970542  9.771906298142498e-05  1.0000
  O   O1        1.0  0.009332720377112025  0.008829130670970542  0.00021837941602676053  1.0000
  Ni  Ni1       1.0  0.0007506876918308479  0.005052985585784569  0.9999745097076346  1.0000
  Ni  Ni2       1.0  0.0059209855692749025  0.003858284291049094  0.9994366296182974  1.0000
  Ni  Ni3       1.0  0.0009209854696912798  0.007608284127661146  0.9996217227835039  1.0000
  Ni  Ni4       1.0  0.005895632516816272  0.0013665325412585791  0.9997986433542755  1.0000
  Ni  Ni5       1.0  0.0014102612915388633  0.0004987092020839936  0.9999997378188674  1.0000
  Ni  Ni6       1.0  0.006614078583448674  0.00937810418945868  0.9994622870003819  1.0000
  Ni  Ni7       1.0  0.0016140782819751745  0.0031281040079165164  0.9996473802424318  1.0000
  Ni  Ni8       1.0  0.006697549458042834  0.0068752913025560206  0.9998349053330674  1.0000
  Ni  Ni9       1.0  0.007061740910601765  0.0040746117488453335  0.9999371531981743  1.0000
  Ni  Ni10      1.0  0.0021101513473448727  0.002874173040950916  0.9993880555083864  1.0000
  Ni  Ni11      1.0  0.007110151309346105  0.006624173104490673  0.9995731487047164  1.0000
  Ni  Ni12      1.0  0.002110151416299381  0.0003741730080463989  0.9997582422487729  1.0000
  Ni  Ni13      1.0  0.0004249123440439184  0.00036221519447493706  0.9995108608553694  1.0000
  Ni  Ni14      1.0  0.005424912601927459  0.0041122150310869895  0.9996959543519767  1.0000
  Ni  Ni15      1.0  0.0003911631809987814  0.007791541864901027  0.999883923473095  1.0000
  Ni  Ni16      1.0  0.005574597252928955  0.001536534863945331  3.340017161483878e-05  1.0000
  Ni  Ni17      1.0  0.009438296027522693  0.002210313060311734  0.9998652943322814  1.0000
  Ni  Ni18      1.0  0.0046752399715073245  0.005878058411786658  9.662058293815e-06  1.0000
  Ni  Ni19      1.0  0.009608837504171604  0.004750158733206333  0.9994806507020599  1.0000
  Ni  Ni20      1.0  0.004608836977706744  0.008500159023673796  0.9996657441665172  1.0000
  Ni  Ni21      1.0  0.002926226712689777  0.008486229293446031  0.9994182656155706  1.0000
  Ni  Ni22      1.0  0.007926227001335715  0.0022362295657592773  0.9996033588922157  1.0000
  Ni  Ni23      1.0  0.002929638791666274  0.005999177897203797  0.9997842575790842  1.0000
  Ni  Ni24      1.0  0.007898872845317902  0.00963778482367928  0.999961835982292  1.0000
  Sb  Sb1       1.0  0.009140463766039103  0.007522893047789101  0.9993707169764815  1.0000
  Sb  Sb2       1.0  0.004140463745321232  0.0012728929797107896  0.999555810220349  1.0000
  Sb  Sb3       1.0  0.009140463592357987  0.005022893156714399  0.9997409037161978  1.0000
  Sb  Sb4       1.0  0.004067029513436525  0.008693317162816074  0.9999406471936398  1.0000
  Sb  Sb5       1.0  0.0031841768291755316  0.003153018400619927  0.9999094186777739  1.0000
  Sb  Sb6       1.0  0.008394599857895714  0.0019634951422512112  0.99934310617251  1.0000
  Sb  Sb7       1.0  0.0033946001228710686  0.005713495432718673  0.9995281993412275  1.0000
  Sb  Sb8       1.0  0.00839459991908115  0.009463495269330725  0.9997132928355463  1.0000
