data_image0
_chemical_formula_structural       HCo9Sn9Co9Sn9
_chemical_formula_sum              "H1 Co18 Sn18"
_cell_length_a       6.825543386745365
_cell_length_b       9.239594459533691
_cell_length_c       104.12771606445312
_cell_angle_alpha    90.0
_cell_angle_beta     94.80567959462182
_cell_angle_gamma    47.402840270089584

_space_group_name_H-M_alt    "P 1"
_space_group_IT_number       1

loop_
  _space_group_symop_operation_xyz
  'x, y, z'

loop_
  _atom_site_type_symbol
  _atom_site_label
  _atom_site_symmetry_multiplicity
  _atom_site_fract_x
  _atom_site_fract_y
  _atom_site_fract_z
  _atom_site_occupancy
  H   H1        1.0  0.0006141076341853668  0.008969225366338417  7.056460970350297e-05  1.0000
  Co  Co1       1.0  0.007719225335338939  0.004166666289976553  0.9997872811551325  1.0000
  Co  Co2       1.0  0.001052558941062621  0.007499999487114711  5.780164033048192e-06  1.0000
  Co  Co3       1.0  0.004385892091558596  0.0008333334198831517  0.9995687817818716  1.0000
  Co  Co4       1.0  0.0060525587134487675  0.0024999999557267626  0.9996780314685021  1.0000
  Co  Co5       1.0  0.009385892330366574  0.005833333244032893  0.999896530843812  1.0000
  Co  Co6       1.0  0.0027192254696684257  0.009166666674381967  0.9994595326676599  1.0000
  Co  Co7       1.0  0.007719225335338939  0.009166666386741587  0.9997872811551325  1.0000
  Co  Co8       1.0  0.001052558941062621  0.00249999999513114  5.780164033048192e-06  1.0000
  Co  Co9       1.0  0.004385892091558596  0.005833332911866723  0.9995687817818716  1.0000
  Sn  Sn1       1.0  0.009385892330366574  0.009166666104292728  0.9995687822525663  1.0000
  Sn  Sn2       1.0  0.0027192254696684257  0.002500000147487017  0.9997872812589055  1.0000
  Sn  Sn3       1.0  0.0060525587134487675  0.0058333336223618795  5.780059747745055e-06  1.0000
  Sn  Sn4       1.0  0.009385892330366574  0.002499999577397776  0.9995687822525663  1.0000
  Sn  Sn5       1.0  0.0027192254696684257  0.0058333330077468505  0.9997872812589055  1.0000
  Sn  Sn6       1.0  0.0060525587134487675  0.009166666482621714  5.780059747745055e-06  1.0000
  Sn  Sn7       1.0  0.009385892330366574  0.0008333331472678593  0.999896530843812  1.0000
  Sn  Sn8       1.0  0.0027192254696684257  0.004166666577616934  0.9994595326676599  1.0000
  Sn  Sn9       1.0  0.0060525587134487675  0.007500000052491796  0.9996780314685021  1.0000
  Co  Co10      1.0  0.007719225335338939  0.004166666289976553  0.9991317839726411  1.0000
  Co  Co11      1.0  0.001052558941062621  0.007499999487114711  0.9993502829815417  1.0000
  Co  Co12      1.0  0.004385892091558596  0.0008333334198831517  0.9989132848855895  1.0000
  Co  Co13      1.0  0.0060525587134487675  0.0024999999557267626  0.9990225342860106  1.0000
  Co  Co14      1.0  0.009385892330366574  0.005833333244032893  0.9992410333751113  1.0000
  Co  Co15      1.0  0.0027192254696684257  0.009166666674381967  0.9988040351989591  1.0000
  Co  Co16      1.0  0.007719225335338939  0.009166666386741587  0.9991317839726411  1.0000
  Co  Co17      1.0  0.001052558941062621  0.00249999999513114  0.9993502829815417  1.0000
  Co  Co18      1.0  0.004385892091558596  0.005833332911866723  0.9989132848855895  1.0000
  Sn  Sn10      1.0  0.009385892330366574  0.009166666104292728  0.9989132847838657  1.0000
  Sn  Sn11      1.0  0.0027192254696684257  0.002500000147487017  0.9991317837902048  1.0000
  Sn  Sn12      1.0  0.0060525587134487675  0.0058333336223618795  0.9993502828772564  1.0000
  Sn  Sn13      1.0  0.009385892330366574  0.002499999577397776  0.9989132847838657  1.0000
  Sn  Sn14      1.0  0.0027192254696684257  0.0058333330077468505  0.9991317837902048  1.0000
  Sn  Sn15      1.0  0.0060525587134487675  0.009166666482621714  0.9993502828772564  1.0000
  Sn  Sn16      1.0  0.009385892330366574  0.0008333331472678593  0.9992410333751113  1.0000
  Sn  Sn17      1.0  0.0027192254696684257  0.004166666577616934  0.9988040351989591  1.0000
  Sn  Sn18      1.0  0.0060525587134487675  0.007500000052491796  0.9990225342860106  1.0000
