data_image0
_chemical_formula_structural       COIn16
_chemical_formula_sum              "C1 O1 In16"
_cell_length_a       6.728524684906006
_cell_length_b       6.728524684906006
_cell_length_c       100.59578704833984
_cell_angle_alpha    90.0
_cell_angle_beta     90.0
_cell_angle_gamma    90.0

_space_group_name_H-M_alt    "P 1"
_space_group_IT_number       1

loop_
  _space_group_symop_operation_xyz
  'x, y, z'

loop_
  _atom_site_type_symbol
  _atom_site_label
  _atom_site_symmetry_multiplicity
  _atom_site_fract_x
  _atom_site_fract_y
  _atom_site_fract_z
  _atom_site_occupancy
  C   C1        1.0  0.006249999889268733  0.003750000155023773  0.0001988152934963665  1.0000
  O   O1        1.0  0.006249999889268733  0.003750000155023773  0.0003181048251039738  1.0000
  In  In1       1.0  0.0012500000055365634  0.0012500000055365634  0.999493090148238  1.0000
  In  In2       1.0  0.003750000155023773  0.003750000155023773  0.999239635370486  1.0000
  In  In3       1.0  0.0012500000055365634  0.0012500000055365634  0.0  1.0000
  In  In4       1.0  0.003750000155023773  0.003750000155023773  0.9997465449259899  1.0000
  In  In5       1.0  0.0012500000055365634  0.006249999889268733  0.999493090148238  1.0000
  In  In6       1.0  0.003750000155023773  0.008750000177170026  0.999239635370486  1.0000
  In  In7       1.0  0.0012500000055365634  0.006249999889268733  0.0  1.0000
  In  In8       1.0  0.003750000155023773  0.008750000177170026  0.9997465449259899  1.0000
  In  In9       1.0  0.006249999889268733  0.0012500000055365634  0.999493090148238  1.0000
  In  In10      1.0  0.008750000177170026  0.003750000155023773  0.999239635370486  1.0000
  In  In11      1.0  0.006249999889268733  0.0012500000055365634  0.0  1.0000
  In  In12      1.0  0.008750000177170026  0.003750000155023773  0.9997465449259899  1.0000
  In  In13      1.0  0.006249999889268733  0.006249999889268733  0.999493090148238  1.0000
  In  In14      1.0  0.008750000177170026  0.008750000177170026  0.999239635370486  1.0000
  In  In15      1.0  0.006249999889268733  0.006249999889268733  0.0  1.0000
  In  In16      1.0  0.008750000177170026  0.008750000177170026  0.9997465449259899  1.0000
