data_image0
_chemical_formula_structural       COAs2Au2Ca4
_chemical_formula_sum              "C1 O1 As2 Au2 Ca4"
_cell_length_a       5.212230205535889
_cell_length_b       5.212230205535889
_cell_length_c       99.48482513427734
_cell_angle_alpha    90.0
_cell_angle_beta     90.0
_cell_angle_gamma    90.0

_space_group_name_H-M_alt    "P 1"
_space_group_IT_number       1

loop_
  _space_group_symop_operation_xyz
  'x, y, z'

loop_
  _atom_site_type_symbol
  _atom_site_label
  _atom_site_symmetry_multiplicity
  _atom_site_fract_x
  _atom_site_fract_y
  _atom_site_fract_z
  _atom_site_occupancy
  C   C1        1.0  0.0025000184183597437  0.0024999978701314694  0.00017410206734446985  1.0000
  O   O1        1.0  0.0025000184183597437  0.0024999978701314694  0.0002947231238508629  1.0000
  As  As1       1.0  0.005000013965648017  0.005000006103717199  0.9994537093044881  1.0000
  As  As2       1.0  0.00999998576275801  0.009999986477478994  0.9998528020013919  1.0000
  Au  Au1       1.0  1.404999940101468e-08  6.449999438792848e-09  0.9994537093044881  1.0000
  Au  Au2       1.0  0.004999999313867856  0.004999990737216055  0.9998348795359163  1.0000
  Ca  Ca1       1.0  1.404999940101468e-08  0.005000006103717199  0.9996389435631065  1.0000
  Ca  Ca2       1.0  0.005000013965648017  6.449999438792848e-09  0.9996389435631065  1.0000
  Ca  Ca3       1.0  0.005000015037729492  0.009999992909967845  0.0  1.0000
  Ca  Ca4       1.0  2.174999851969419e-08  0.00500000217275179  0.0  1.0000
