data_image0
_chemical_formula_structural       COV6Pt6V6Pt6V6Pt6V6Pt6
_chemical_formula_sum              "C1 O1 V24 Pt24"
_cell_length_a       8.830039978027344
_cell_length_b       7.258870115825841
_cell_length_c       103.18589782714844
_cell_angle_alpha    77.78840767425707
_cell_angle_beta     90.0
_cell_angle_gamma    90.0

_space_group_name_H-M_alt    "P 1"
_space_group_IT_number       1

loop_
  _space_group_symop_operation_xyz
  'x, y, z'

loop_
  _atom_site_type_symbol
  _atom_site_label
  _atom_site_symmetry_multiplicity
  _atom_site_fract_x
  _atom_site_fract_y
  _atom_site_fract_z
  _atom_site_occupancy
  C   C1        1.0  0.0012499986246442367  0.003722433293621685  3.002600263448221e-05  1.0000
  O   O1        1.0  0.0012499986246442367  0.003722433293621685  0.00014632119966612381  1.0000
  V   V1        1.0  0.003749999038094742  0.007235444833977283  0.9990903261745063  1.0000
  V   V2        1.0  0.003749999038094742  0.0005687779021420229  0.9994476737974993  1.0000
  V   V3        1.0  0.003749999038094742  0.0039021115321491284  0.9992689999835612  1.0000
  V   V4        1.0  0.0012499990465325078  0.009431222462792972  0.9993257232239133  1.0000
  V   V5        1.0  0.0012499990465325078  0.002764555596593502  0.9991470493249359  1.0000
  V   V6        1.0  0.0012499990465325078  0.006097888898421656  0.998968375515881  1.0000
  Pt  Pt1       1.0  0.003749999038094742  0.007271752452833638  0.9993622290762495  1.0000
  Pt  Pt2       1.0  0.003749999038094742  0.0006050855866341688  0.9991835554660937  1.0000
  Pt  Pt3       1.0  0.003749999038094742  0.003938418888462323  0.9990048816570388  1.0000
  Pt  Pt4       1.0  0.0012499990465325078  0.0060615812795653005  0.9992324938463101  1.0000
  Pt  Pt5       1.0  0.0012499990465325078  0.009394914843936616  0.9990538200333485  1.0000
  Pt  Pt6       1.0  0.0012499990465325078  0.0027282477151939852  0.9994111673704499  1.0000
  V   V7        1.0  0.003749999038094742  0.007235444833977283  0.9996263474066786  1.0000
  V   V8        1.0  0.0037499998818712843  0.0007592814515659368  0.999963886272088  1.0000
  V   V9        1.0  0.0037500019913126385  0.003931598017132903  0.9998056975948302  1.0000
  V   V10       1.0  0.0012499999957811172  0.009403508406690833  0.9998517881459081  1.0000
  V   V11       1.0  0.0012499990465325078  0.002764555596593502  0.9996830702682864  1.0000
  V   V12       1.0  0.0012499990465325078  0.006097888898421656  0.9995043967480532  1.0000
  Pt  Pt7       1.0  0.0037499986162064713  0.0073302428684707994  0.9998909253797215  1.0000
  Pt  Pt8       1.0  0.0037499998818712843  0.0006685616969035735  0.9997165307020895  1.0000
  Pt  Pt9       1.0  0.003749999038094742  0.003938418888462323  0.9995409031780327  1.0000
  Pt  Pt10      1.0  0.0012499980972838982  0.005987285240534231  0.9997738633998872  1.0000
  Pt  Pt11      1.0  0.0012499990465325078  0.009394914843936616  0.9995898409766991  1.0000
  Pt  Pt12      1.0  0.0012499990465325078  0.0024903854488985654  0.9999427016588665  1.0000
  V   V13       1.0  0.008749999021219212  0.007235444833977283  0.9990903261745063  1.0000
  V   V14       1.0  0.008749999021219212  0.0005687779021420229  0.9994476737974993  1.0000
  V   V15       1.0  0.008749999021219212  0.0039021115321491284  0.9992689999835612  1.0000
  V   V16       1.0  0.006249999240601112  0.009431222462792972  0.9993257232239133  1.0000
  V   V17       1.0  0.006249999240601112  0.002764555596593502  0.9991470493249359  1.0000
  V   V18       1.0  0.006249999240601112  0.006097888898421656  0.998968375515881  1.0000
  Pt  Pt13      1.0  0.008749999021219212  0.007271752452833638  0.9993622290762495  1.0000
  Pt  Pt14      1.0  0.008749999021219212  0.0006050855866341688  0.9991835554660937  1.0000
  Pt  Pt15      1.0  0.008749999021219212  0.003938418888462323  0.9990048816570388  1.0000
  Pt  Pt16      1.0  0.006249999240601112  0.0060615812795653005  0.9992324938463101  1.0000
  Pt  Pt17      1.0  0.006249999240601112  0.009394914843936616  0.9990538200333485  1.0000
  Pt  Pt18      1.0  0.006249999240601112  0.0027282477151939852  0.9994111673704499  1.0000
  V   V19       1.0  0.008749999021219212  0.007235444833977283  0.9996263474066786  1.0000
  V   V20       1.0  0.008749999864995753  0.0007592814515659368  0.999963886272088  1.0000
  V   V21       1.0  0.008750002396325379  0.003931598017132903  0.9998056975948302  1.0000
  V   V22       1.0  0.0062500000843776545  0.009403508406690833  0.9998517881459081  1.0000
  V   V23       1.0  0.006249999240601112  0.002764555596593502  0.9996830702682864  1.0000
  V   V24       1.0  0.006249999240601112  0.006097888898421656  0.9995043967480532  1.0000
  Pt  Pt19      1.0  0.008749999021219212  0.0073302428684707994  0.9998909253797215  1.0000
  Pt  Pt20      1.0  0.008749999864995753  0.0006685616969035735  0.9997165307020895  1.0000
  Pt  Pt21      1.0  0.008749999021219212  0.003938418888462323  0.9995409031780327  1.0000
  Pt  Pt22      1.0  0.00624999839682457  0.005987285240534231  0.9997738633998872  1.0000
  Pt  Pt23      1.0  0.006249999240601112  0.009394914843936616  0.9995898409766991  1.0000
  Pt  Pt24      1.0  0.006249999240601112  0.0024903854488985654  0.9999427016588665  1.0000
