data_image0
_chemical_formula_structural       COV6Si12V6Si12
_chemical_formula_sum              "C1 O1 V12 Si24"
_cell_length_a       13.590015831034895
_cell_length_b       4.582751862097735
_cell_length_c       106.66201782226562
_cell_angle_alpha    119.99999919767241
_cell_angle_beta     80.29314559665298
_cell_angle_gamma    80.29314488351659

_space_group_name_H-M_alt    "P 1"
_space_group_IT_number       1

loop_
  _space_group_symop_operation_xyz
  'x, y, z'

loop_
  _atom_site_type_symbol
  _atom_site_label
  _atom_site_symmetry_multiplicity
  _atom_site_fract_x
  _atom_site_fract_y
  _atom_site_fract_z
  _atom_site_occupancy
  C   C1        1.0  0.007932232646399117  0.005004347567856715  6.895342541325034e-05  1.0000
  O   O1        1.0  0.007932232646399117  0.005004347567856715  0.00018145855670273237  1.0000
  V   V1        1.0  0.004166666744313164  0.0016857904138017962  0.9999467043630916  1.0000
  V   V2        1.0  0.009166666953958708  0.006685790185383277  0.9997318785473237  1.0000
  V   V3        1.0  0.005833333674977923  0.0050191232390883415  0.9996602696660718  1.0000
  V   V4        1.0  0.0008333333925387878  1.9123892293764558e-05  0.9998750954925291  1.0000
  V   V5        1.0  0.002500000104822772  0.0033524570532921885  0.9998034871725877  1.0000
  V   V6        1.0  0.00750000002329395  0.008352457116048035  0.99958866136933  1.0000
  Si  Si1       1.0  0.002500000104822772  0.00672403813005366  0.9996586266978992  1.0000
  Si  Si2       1.0  0.00750000002329395  0.0017240382115824814  0.9998734524630538  1.0000
  Si  Si3       1.0  0.005833333674977923  0.001762285880708673  0.9998051301867004  1.0000
  Si  Si4       1.0  0.0008333333925387878  0.006762286163147809  0.9995903044371836  1.0000
  Si  Si5       1.0  0.004166666744313164  0.008314208848942935  0.9996569833677745  1.0000
  Si  Si6       1.0  0.009166666953958708  0.0033142086392973914  0.999871809120419  1.0000
  Si  Si7       1.0  0.002500000104822772  0.009980875488433327  0.9999483476814961  1.0000
  Si  Si8       1.0  0.00750000002329395  0.00498087556996215  0.9997335218339363  1.0000
  Si  Si9       1.0  0.005833333674977923  0.00827596059746801  0.9999450607581577  1.0000
  Si  Si10      1.0  0.0008333333925387878  0.0032759613680045365  0.999730234974421  1.0000
  Si  Si11      1.0  0.004166666744313164  0.005057371490563266  0.9998067737799141  1.0000
  Si  Si12      1.0  0.009166666953958708  5.73712809177232e-05  0.999591947919844  1.0000
  V   V7        1.0  0.004166666744313164  0.0016857904138017962  0.9995170527503772  1.0000
  V   V8        1.0  0.009166666953958708  0.006685790185383277  0.9993022266552003  1.0000
  V   V9        1.0  0.005833333674977923  0.0050191232390883415  0.9992306180533573  1.0000
  V   V10       1.0  0.0008333333925387878  1.9123892293764558e-05  0.9994454438798146  1.0000
  V   V11       1.0  0.002500000104822772  0.0033524570532921885  0.9993738352804642  1.0000
  V   V12       1.0  0.00750000002329395  0.008352457116048035  0.9991590094772066  1.0000
  Si  Si13      1.0  0.002500000104822772  0.00672403813005366  0.9992289748057757  1.0000
  Si  Si14      1.0  0.00750000002329395  0.0017240382115824814  0.9994438008503393  1.0000
  Si  Si15      1.0  0.005833333674977923  0.001762285880708673  0.9993754785739859  1.0000
  Si  Si16      1.0  0.0008333333925387878  0.006762286163147809  0.9991606528244691  1.0000
  Si  Si17      1.0  0.004166666744313164  0.008314208848942935  0.9992273314756511  1.0000
  Si  Si18      1.0  0.009166666953958708  0.0033142086392973914  0.9994421575077044  1.0000
  Si  Si19      1.0  0.002500000104822772  0.009980875488433327  0.9995186960687815  1.0000
  Si  Si20      1.0  0.00750000002329395  0.00498087556996215  0.9993038702212218  1.0000
  Si  Si21      1.0  0.005833333674977923  0.00827596059746801  0.9995154091454432  1.0000
  Si  Si22      1.0  0.0008333333925387878  0.0032759613680045365  0.9993005833617066  1.0000
  Si  Si23      1.0  0.004166666744313164  0.005057371490563266  0.9993771221671996  1.0000
  Si  Si24      1.0  0.009166666953958708  5.73712809177232e-05  0.9991622963071295  1.0000
