data_image0
_chemical_formula_structural       HMo4Pt8Mo4Pt8Mo4Pt8Mo4Pt8
_chemical_formula_sum              "H1 Mo16 Pt32"
_cell_length_a       17.23687425531389
_cell_length_b       5.576281547546387
_cell_length_c       101.91576385498047
_cell_angle_alpha    90.0
_cell_angle_beta     76.61755872868603
_cell_angle_gamma    90.0

_space_group_name_H-M_alt    "P 1"
_space_group_IT_number       1

loop_
  _space_group_symop_operation_xyz
  'x, y, z'

loop_
  _atom_site_type_symbol
  _atom_site_label
  _atom_site_symmetry_multiplicity
  _atom_site_fract_x
  _atom_site_fract_y
  _atom_site_fract_z
  _atom_site_occupancy
  H   H1        1.0  0.0005730469697715493  0.002500000033402997  0.9997971665887392  1.0000
  Mo  Mo1       1.0  0.005433045429718322  0.0012500000167014985  0.9995971362410169  1.0000
  Mo  Mo2       1.0  0.0004086200811619816  0.0012500000167014985  0.9994063553781052  1.0000
  Mo  Mo3       1.0  0.0029502814287587806  0.0037500001336119877  0.9995064938134537  1.0000
  Mo  Mo4       1.0  0.00791372116869079  0.0037500001336119877  0.999682975810665  1.0000
  Pt  Pt1       1.0  0.004591380322050306  0.0037500001336119877  0.9994383466029704  1.0000
  Pt  Pt2       1.0  0.009499431800797138  0.0037500001336119877  0.9996341917088182  1.0000
  Pt  Pt3       1.0  0.0038115490961305436  0.0012500000167014985  0.9996634037435423  1.0000
  Pt  Pt4       1.0  0.008727651046993067  0.0012500000167014985  0.9994669221421341  1.0000
  Pt  Pt5       1.0  0.002124791243113818  0.0012500001002089907  0.9997088760673676  1.0000
  Pt  Pt6       1.0  0.0071054424827743795  0.0012500000167014985  0.9995324268180511  1.0000
  Pt  Pt7       1.0  0.00120785295487756  0.0037500001336119877  0.9995662053838581  1.0000
  Pt  Pt8       1.0  0.006231655906945652  0.0037500001336119877  0.9997560631658998  1.0000
  Mo  Mo5       1.0  0.005408620317757622  0.0012500000167014985  0.9992106314410925  1.0000
  Mo  Mo6       1.0  0.0004086200811619816  0.0012500000167014985  0.999014907885205  1.0000
  Mo  Mo7       1.0  0.0029086201578056394  0.0037500001336119877  0.9991127698109898  1.0000
  Mo  Mo8       1.0  0.007908620477709603  0.0037500001336119877  0.9993084939484584  1.0000
  Pt  Pt9       1.0  0.004591380322050306  0.0037500001336119877  0.999046898525228  1.0000
  Pt  Pt10      1.0  0.00959138019764321  0.0037500001336119877  0.9992426226800891  1.0000
  Pt  Pt11      1.0  0.003725860375668485  0.0012500000167014985  0.9992765033030003  1.0000
  Pt  Pt12      1.0  0.008725860473416919  0.0012500000167014985  0.9990807793714228  1.0000
  Pt  Pt13      1.0  0.0020913801620983242  0.0012500000167014985  0.9993404846804467  1.0000
  Pt  Pt14      1.0  0.0070913804820022875  0.0012500000167014985  0.9991447607401729  1.0000
  Pt  Pt15      1.0  0.0012258603267942688  0.0037500001336119877  0.9991786410837074  1.0000
  Pt  Pt16      1.0  0.006225860757775998  0.0037500001336119877  0.9993743652168279  1.0000
  Mo  Mo9       1.0  0.005433045429718322  0.00625  0.9995971362410169  1.0000
  Mo  Mo10      1.0  0.0004086200811619816  0.00625  0.9994063553781052  1.0000
  Mo  Mo11      1.0  0.0029502814287587806  0.008749999866388013  0.9995064938134537  1.0000
  Mo  Mo12      1.0  0.00791372116869079  0.008749999866388013  0.999682975810665  1.0000
  Pt  Pt17      1.0  0.004591380322050306  0.008749999866388013  0.9994383466029704  1.0000
  Pt  Pt18      1.0  0.009499431800797138  0.008749999866388013  0.9996341917088182  1.0000
  Pt  Pt19      1.0  0.0038115490961305436  0.00625  0.9996634037435423  1.0000
  Pt  Pt20      1.0  0.008727651046993067  0.00625  0.9994669221421341  1.0000
  Pt  Pt21      1.0  0.002124791243113818  0.00625  0.9997088760673676  1.0000
  Pt  Pt22      1.0  0.0071054424827743795  0.00625  0.9995324268180511  1.0000
  Pt  Pt23      1.0  0.00120785295487756  0.008749999866388013  0.9995662053838581  1.0000
  Pt  Pt24      1.0  0.006231655906945652  0.008749999866388013  0.9997560631658998  1.0000
  Mo  Mo13      1.0  0.005408620317757622  0.00625  0.9992106314410925  1.0000
  Mo  Mo14      1.0  0.0004086200811619816  0.00625  0.999014907885205  1.0000
  Mo  Mo15      1.0  0.0029086201578056394  0.008749999866388013  0.9991127698109898  1.0000
  Mo  Mo16      1.0  0.007908620477709603  0.008749999866388013  0.9993084939484584  1.0000
  Pt  Pt25      1.0  0.004591380322050306  0.008749999866388013  0.999046898525228  1.0000
  Pt  Pt26      1.0  0.00959138019764321  0.008749999866388013  0.9992426226800891  1.0000
  Pt  Pt27      1.0  0.003725860375668485  0.00625  0.9992765033030003  1.0000
  Pt  Pt28      1.0  0.008725860473416919  0.00625  0.9990807793714228  1.0000
  Pt  Pt29      1.0  0.0020913801620983242  0.00625  0.9993404846804467  1.0000
  Pt  Pt30      1.0  0.0070913804820022875  0.00625  0.9991447607401729  1.0000
  Pt  Pt31      1.0  0.0012258603267942688  0.008749999866388013  0.9991786410837074  1.0000
  Pt  Pt32      1.0  0.006225860757775998  0.008749999866388013  0.9993743652168279  1.0000
