data_image0
_chemical_formula_structural       COV3Si6V3Si6
_chemical_formula_sum              "C1 O1 V6 Si12"
_cell_length_a       4.582751862097735
_cell_length_b       6.397009372711182
_cell_length_c       106.66201782226562
_cell_angle_alpha    90.0
_cell_angle_beta     119.99999919767241
_cell_angle_gamma    90.0

_space_group_name_H-M_alt    "P 1"
_space_group_IT_number       1

loop_
  _space_group_symop_operation_xyz
  'x, y, z'

loop_
  _atom_site_type_symbol
  _atom_site_label
  _atom_site_symmetry_multiplicity
  _atom_site_fract_x
  _atom_site_fract_y
  _atom_site_fract_z
  _atom_site_occupancy
  C   C1        1.0  0.009909713696787774  0.008193232030618908  0.00021288626786998622  1.0000
  O   O1        1.0  0.009909713696787774  0.008193232030618908  0.0003253908403415685  1.0000
  V   V1        1.0  0.005090286040390555  0.003377134056529085  0.9995945448659024  1.0000
  V   V2        1.0  0.005090286040390555  0.00671046733550987  0.9993797190595451  1.0000
  V   V3        1.0  9.028590311316327e-05  4.380075025070346e-05  0.9993797190342433  1.0000
  Si  Si1       1.0  0.0068334484379621915  4.380075025070346e-05  0.9995245795972836  1.0000
  Si  Si2       1.0  0.008461867586476442  0.00671046733550987  0.9996645102076533  1.0000
  Si  Si3       1.0  0.008461867586476442  0.003377134056529085  0.9994546142928071  1.0000
  Si  Si4       1.0  0.0033471234081567116  4.380075025070346e-05  0.9996645104088889  1.0000
  Si  Si5       1.0  0.0017187046116357734  0.00671046733550987  0.999524579526672  1.0000
  Si  Si6       1.0  0.0017187046116357734  0.003377134056529085  0.9993048238288037  1.0000
  V   V4        1.0  0.004976987841208613  0.0033776867054760014  1.425258665668595e-05  1.0000
  V   V5        1.0  0.005090286040390555  0.00671046733550987  0.9998093706722596  1.0000
  V   V6        1.0  9.028590311316327e-05  4.380075025070346e-05  0.9998093709263668  1.0000
  Si  Si7       1.0  0.006765648424920229  0.009956199641742788  0.999961730585517  1.0000
  Si  Si8       1.0  0.008689589424788789  0.0064302644194950305  8.902532811223674e-05  1.0000
  Si  Si9       1.0  0.008665860382339153  0.0033774659953064745  0.9999017904774845  1.0000
  Si  Si10      1.0  0.0029993861649650244  0.0003244404551123361  8.900914451188208e-05  1.0000
  Si  Si11      1.0  0.0019608450346422996  0.0067993290932630845  0.9999617604181835  1.0000
  Si  Si12      1.0  0.0017187046116357734  0.003377134056529085  0.9997344754415182  1.0000
