data_image0
_chemical_formula_structural       HAl36Mo12
_chemical_formula_sum              "H1 Al36 Mo12"
_cell_length_a       9.185231586325562
_cell_length_b       8.462565534693871
_cell_length_c       103.4295654296875
_cell_angle_alpha    84.52609062566138
_cell_angle_beta     85.15475144064143
_cell_angle_gamma    105.71006857228654

_space_group_name_H-M_alt    "P 1"
_space_group_IT_number       1

loop_
  _space_group_symop_operation_xyz
  'x, y, z'

loop_
  _atom_site_type_symbol
  _atom_site_label
  _atom_site_symmetry_multiplicity
  _atom_site_fract_x
  _atom_site_fract_y
  _atom_site_fract_z
  _atom_site_occupancy
  H   H1        1.0  0.0007613529474875421  0.0004651813279777497  0.9999753176990596  1.0000
  Al  Al1       1.0  0.0017468633423312473  0.006634419793828566  0.999942969401497  1.0000
  Al  Al2       1.0  0.006031458791281872  0.0071158422100983856  0.9997914177394527  1.0000
  Al  Al3       1.0  0.003411291282211573  0.007427081310456065  0.9997017432453785  1.0000
  Al  Al4       1.0  0.0004662247867604306  0.004839664070438336  0.9997641234036817  1.0000
  Al  Al5       1.0  0.0016718756828511493  0.00945401056915262  0.9998098155802697  1.0000
  Al  Al6       1.0  0.006027766729632611  0.004208094091466509  0.9999174043861234  1.0000
  Al  Al7       1.0  0.0003047743875071186  0.0020046598482620355  0.9998987953200094  1.0000
  Al  Al8       1.0  0.008913166136989068  0.009832063103328407  0.9997135766287508  1.0000
  Al  Al9       1.0  0.007355536010838213  0.009366700790388252  0.9999405392547625  1.0000
  Al  Al10      1.0  0.007724754899698751  0.00502319179225179  0.9996764590640036  1.0000
  Al  Al11      1.0  0.0048630902955535855  0.0022778908611711234  0.9997289950175415  1.0000
  Al  Al12      1.0  0.003302137950115119  0.0017109902180730747  0.9999618763199997  1.0000
  Al  Al13      1.0  0.0005489357684252071  0.0076699750317532995  0.9996193915868266  1.0000
  Al  Al14      1.0  0.005136768977731282  0.008200943942436957  0.9994550354715565  1.0000
  Al  Al15      1.0  0.002378922347897748  0.008452345043596267  0.9993745575757295  1.0000
  Al  Al16      1.0  0.009554741691236867  0.005805561868863131  0.9994316244745278  1.0000
  Al  Al17      1.0  0.0006952255467525533  0.0005632910501384058  0.9994787137579326  1.0000
  Al  Al18      1.0  0.0049669086939963655  0.005274593022947847  0.9995959811639841  1.0000
  Al  Al19      1.0  0.0094084520719587  0.002912246041948196  0.9995723026465038  1.0000
  Al  Al20      1.0  0.00786754374047571  0.000810945211331424  0.9994008206612502  1.0000
  Al  Al21      1.0  0.0062360312406182184  0.0001829787664098469  0.9996410435041516  1.0000
  Al  Al22      1.0  0.006724755442586622  0.006023191908529647  0.9993532479181653  1.0000
  Al  Al23      1.0  0.003867646431109429  0.003292558252041934  0.9994099729004619  1.0000
  Al  Al24      1.0  0.0022361339312519375  0.0026645919176765593  0.9996501963187827  1.0000
  Al  Al25      1.0  0.009548935335811436  0.00866997485009664  0.999296180773349  1.0000
  Al  Al26      1.0  0.0041367690964880036  0.009200943929178067  0.9991318243299107  1.0000
  Al  Al27      1.0  0.0013789223606216826  0.00945234499795319  0.999051346723273  1.0000
  Al  Al28      1.0  0.008554741385862439  0.006805561726067494  0.9991084139133568  1.0000
  Al  Al29      1.0  0.0096952249550896  0.0015632907369883139  0.9991555029466744  1.0000
  Al  Al30      1.0  0.003966908388621938  0.0062745933223770185  0.9992727705993616  1.0000
  Al  Al31      1.0  0.008408451766584274  0.003912246002798999  0.9992490915082414  1.0000
  Al  Al32      1.0  0.006867543435101283  0.0018109451790919895  0.9990776095229339  1.0000
  Al  Al33      1.0  0.00523603135937494  0.0011829788084290582  0.9993178323620743  1.0000
  Al  Al34      1.0  0.0057247551372121945  0.007023192207958819  0.9990300370654015  1.0000
  Al  Al35      1.0  0.0028676463378005763  0.004292558395127075  0.9990867623354689  1.0000
  Al  Al36      1.0  0.0012361339439758718  0.003664591872033483  0.999326985178185  1.0000
  Mo  Mo1       1.0  0.004353481027561874  0.009267056199446294  0.9998789346782039  1.0000
  Mo  Mo2       1.0  0.008808441370281557  0.006960094330725579  0.999852609436202  1.0000
  Mo  Mo3       1.0  0.0032146732005031483  0.0045618859161253526  0.9998347639108105  1.0000
  Mo  Mo4       1.0  0.007695613696735235  0.0022800928950982512  0.9998088259062283  1.0000
  Mo  Mo5       1.0  0.0033650164532348244  0.00016793650482854684  0.9995598029806998  1.0000
  Mo  Mo6       1.0  0.007809184990941916  0.007803319648588848  0.9995359815294353  1.0000
  Mo  Mo7       1.0  0.002294492044589009  0.0056722175647156425  0.9995150351089425  1.0000
  Mo  Mo8       1.0  0.006738661006427249  0.0033076005594110626  0.9994912134251469  1.0000
  Mo  Mo9       1.0  0.0023650163599259716  0.0011679365097184355  0.9992365921286442  1.0000
  Mo  Mo10      1.0  0.006809185533829786  0.008803319764866705  0.999212770383597  1.0000
  Mo  Mo11      1.0  0.001294492163345731  0.006672217551456753  0.9991918242554377  1.0000
  Mo  Mo12      1.0  0.005738661125183971  0.004307600656708375  0.9991680025707794  1.0000
