data_image0
_chemical_formula_structural       COCu8Zn8Cu8Zn8
_chemical_formula_sum              "C1 O1 Cu16 Zn16"
_cell_length_a       5.256327685661698
_cell_length_b       6.539877383239659
_cell_length_c       108.42036437988281
_cell_angle_alpha    89.49197577087428
_cell_angle_beta     88.41584695081583
_cell_angle_gamma    82.6306482780498

_space_group_name_H-M_alt    "P 1"
_space_group_IT_number       1

loop_
  _space_group_symop_operation_xyz
  'x, y, z'

loop_
  _atom_site_type_symbol
  _atom_site_label
  _atom_site_symmetry_multiplicity
  _atom_site_fract_x
  _atom_site_fract_y
  _atom_site_fract_z
  _atom_site_occupancy
  C   C1        1.0  0.0020849114437649194  0.004775116547586602  9.790239434762203e-05  1.0000
  O   O1        1.0  0.0020849114437649194  0.004775116547586602  0.00020858293289155677  1.0000
  Cu  Cu1       1.0  0.0036458335313828256  0.00375000009190073  0.9989536239787796  1.0000
  Cu  Cu2       1.0  0.0007291666764995092  0.0008333333457782239  0.9991012761566458  1.0000
  Cu  Cu3       1.0  0.004895833415219874  0.0049999999310744525  0.9993965800671211  1.0000
  Cu  Cu4       1.0  0.0028124998916002008  0.007916666605399513  0.9992489282512645  1.0000
  Cu  Cu5       1.0  0.0019791667032512984  0.002083333400344282  0.9995442322446804  1.0000
  Cu  Cu6       1.0  0.004062500038377246  0.009166667018952798  0.9996918843389463  1.0000
  Cu  Cu7       1.0  0.0032291665641988616  0.0033333333831128955  0.9999871883329756  1.0000
  Cu  Cu8       1.0  0.001145833349298156  0.006250000344627737  0.9998395359667968  1.0000
  Zn  Zn1       1.0  0.0017708333211729976  0.004375000298677372  0.9991751022037326  1.0000
  Zn  Zn2       1.0  0.0038541668905716408  0.0014583333371625306  0.9993227540196813  1.0000
  Zn  Zn3       1.0  0.004687500010252087  0.007291666973002433  0.9990274500261271  1.0000
  Zn  Zn4       1.0  0.00260416667512614  0.00020833335439391726  0.9988797979318611  1.0000
  Zn  Zn5       1.0  0.00010416660455544045  0.0027083334635260342  0.9997657099198056  1.0000
  Zn  Zn6       1.0  0.0021874999197253595  0.009791666651349878  0.9999133620143287  1.0000
  Zn  Zn7       1.0  0.0030208335595079835  0.005625000137851095  0.9996180582915989  1.0000
  Zn  Zn8       1.0  0.0009374998586393421  0.008541666812176156  0.9994704059262249  1.0000
  Cu  Cu9       1.0  0.008645833389583649  0.00375000009190073  0.9989536241672607  1.0000
  Cu  Cu10      1.0  0.005729166711949302  0.0008333333457782239  0.9991012760700118  1.0000
  Cu  Cu11      1.0  0.009895833627918637  0.0049999999310744525  0.999396580255127  1.0000
  Cu  Cu12      1.0  0.007812500458796902  0.007916666605399513  0.9992489278890404  1.0000
  Cu  Cu13      1.0  0.006979166915950061  0.002083333400344282  0.9995442318829314  1.0000
  Cu  Cu14      1.0  0.00906249989657807  0.009166667018952798  0.9996918839776724  1.0000
  Cu  Cu15      1.0  0.008229167131395562  0.0033333333831128955  0.9999871879707515  1.0000
  Cu  Cu16      1.0  0.006145833207498981  0.006250000344627737  0.9998395361552779  1.0000
  Zn  Zn9       1.0  0.006770833179373822  0.004375000298677372  0.9991751018424587  1.0000
  Zn  Zn10      1.0  0.008854167103270404  0.0014583333371625306  0.9993227542076873  1.0000
  Zn  Zn11      1.0  0.009687499868452912  0.007291666973002433  0.9990274502146083  1.0000
  Zn  Zn12      1.0  0.007604166887824903  0.00020833335439391726  0.9988797981198672  1.0000
  Zn  Zn13      1.0  0.0051041667286297185  0.0027083334635260342  0.9997657101079305  1.0000
  Zn  Zn14      1.0  0.0071874997779261835  0.009791666651349878  0.9999133622028099  1.0000
  Zn  Zn15      1.0  0.008020833417708808  0.005625000137851095  0.999618057930325  1.0000
  Zn  Zn16      1.0  0.005937500248587074  0.008541666812176156  0.9994704061139934  1.0000
