data_image0
_chemical_formula_structural       COCa12Zn12
_chemical_formula_sum              "C1 O1 Ca12 Zn12"
_cell_length_a       9.836406091158404
_cell_length_b       6.201676508421043
_cell_length_c       103.70478820800781
_cell_angle_alpha    92.66727226981463
_cell_angle_beta     96.91622762159767
_cell_angle_gamma    80.94641266066333

_space_group_name_H-M_alt    "P 1"
_space_group_IT_number       1

loop_
  _space_group_symop_operation_xyz
  'x, y, z'

loop_
  _atom_site_type_symbol
  _atom_site_label
  _atom_site_symmetry_multiplicity
  _atom_site_fract_x
  _atom_site_fract_y
  _atom_site_fract_z
  _atom_site_occupancy
  C   C1        1.0  0.006237705914922676  0.005296470091635003  0.00024857926496747837  1.0000
  O   O1        1.0  0.006237705914922676  0.005296470091635003  0.0003642925750860603  1.0000
  Ca  Ca1       1.0  0.005135929513438671  0.00011578258847571427  0.9997423239814038  1.0000
  Ca  Ca2       1.0  0.007338981998179582  0.0023609620968471664  8.411103250880838e-05  1.0000
  Ca  Ca3       1.0  0.0012046301124184172  0.0012465738453286245  0.9999205303605778  1.0000
  Ca  Ca4       1.0  0.002543458235719806  0.005855553462223319  0.9997272971413486  1.0000
  Ca  Ca5       1.0  0.004724872150162671  0.008072748870662137  7.643154574746224e-05  1.0000
  Ca  Ca6       1.0  0.008625512486460523  0.006949949821574474  0.9998993726219374  1.0000
  Ca  Ca7       1.0  0.0068025960771592  0.006782448871062084  0.9992006455879131  1.0000
  Ca  Ca8       1.0  0.009024818934215936  0.009004671613654045  0.999561764345936  1.0000
  Ca  Ca9       1.0  0.002913707428477965  0.007893560236928736  0.9993812050120079  1.0000
  Ca  Ca10      1.0  0.0042101249924643425  0.0025222206243159617  0.9991856186864135  1.0000
  Ca  Ca11      1.0  0.006432347077425048  0.0047444426511380824  0.9995467374336259  1.0000
  Ca  Ca12      1.0  0.0003212359094790909  0.00363333149360234  0.9993661781041658  1.0000
  Zn  Zn1       1.0  0.005774992624938726  0.005057397770060767  0.9998504824539084  1.0000
  Zn  Zn2       1.0  0.00966729007759009  0.003864896894857511  0.9996661682599606  1.0000
  Zn  Zn3       1.0  0.0018843860625919102  0.006091151323566373  2.032261924227351e-05  1.0000
  Zn  Zn4       1.0  0.0019009863202496204  0.0009953283913171978  0.999622893152994  1.0000
  Zn  Zn5       1.0  0.00413566675371792  0.003151846279437176  0.9999956261895353  1.0000
  Zn  Zn6       1.0  0.008012097632963584  0.002106439513932255  0.9998034527713869  1.0000
  Zn  Zn7       1.0  0.0074450679926293855  0.0016426745673642272  0.9993050495119115  1.0000
  Zn  Zn8       1.0  0.0013339569694514337  0.0005315634500755917  0.9991244898968404  1.0000
  Zn  Zn9       1.0  0.0035561793439481504  0.002753785632559716  0.9994856089351695  1.0000
  Zn  Zn10      1.0  0.003567653076994157  0.007661995228684983  0.999081214763252  1.0000
  Zn  Zn11      1.0  0.005789875161954863  0.00988421695483594  0.9994423335096275  1.0000
  Zn  Zn12      1.0  0.009678764196684113  0.008773106097189788  0.9992617740913564  1.0000
