data_image0
_chemical_formula_structural       COAg2Ca4Ge2
_chemical_formula_sum              "C1 O1 Ag2 Ca4 Ge2"
_cell_length_a       5.257835865020752
_cell_length_b       5.257835865020752
_cell_length_c       99.74281311035156
_cell_angle_alpha    90.0
_cell_angle_beta     90.0
_cell_angle_gamma    90.0

_space_group_name_H-M_alt    "P 1"
_space_group_IT_number       1

loop_
  _space_group_symop_operation_xyz
  'x, y, z'

loop_
  _atom_site_type_symbol
  _atom_site_label
  _atom_site_symmetry_multiplicity
  _atom_site_fract_x
  _atom_site_fract_y
  _atom_site_fract_z
  _atom_site_occupancy
  C   C1        1.0  0.005000005781536285  0.007500003004131599  0.00017365114919581535  1.0000
  O   O1        1.0  0.005000005781536285  0.007500003004131599  0.00029396081306521825  1.0000
  Ag  Ag1       1.0  0.007499993084829149  0.00500000082188506  0.9994496517260311  1.0000
  Ag  Ag2       1.0  0.002500010684505782  2.7150001668410066e-08  0.9998231099490266  1.0000
  Ca  Ca1       1.0  0.0075000072552612205  0.010000000226726913  0.9999999988048333  1.0000
  Ca  Ca2       1.0  0.0025000044849417505  0.005000005781536285  0.0  1.0000
  Ca  Ca3       1.0  0.0024999929714656925  0.00500000082188506  0.9996360236320792  1.0000
  Ca  Ca4       1.0  0.007499993084829149  4.5000002368674123e-10  0.9996360236320792  1.0000
  Ge  Ge1       1.0  0.0024999929714656925  4.5000002368674123e-10  0.9994496517260311  1.0000
  Ge  Ge2       1.0  0.00749999733595877  0.004999992319625817  0.9998448264268952  1.0000
