data_image0
_chemical_formula_structural       COZn2Cu4Sn2Se8
_chemical_formula_sum              "C1 O1 Zn2 Cu4 Sn2 Se8"
_cell_length_a       5.837214469909668
_cell_length_b       5.837214469909668
_cell_length_c       105.03931427001953
_cell_angle_alpha    90.0
_cell_angle_beta     90.0
_cell_angle_gamma    90.0

_space_group_name_H-M_alt    "P 1"
_space_group_IT_number       1

loop_
  _space_group_symop_operation_xyz
  'x, y, z'

loop_
  _atom_site_type_symbol
  _atom_site_label
  _atom_site_symmetry_multiplicity
  _atom_site_fract_x
  _atom_site_fract_y
  _atom_site_fract_z
  _atom_site_occupancy
  C   C1        1.0  0.006396461774863689  0.004807259757688706  0.00012474611796454502  1.0000
  O   O1        1.0  0.006396461774863689  0.004807259757688706  0.00023898928874388942  1.0000
  Zn  Zn1       1.0  0.0024999999553262393  0.0012047200102442293  0.9992021834436119  1.0000
  Zn  Zn2       1.0  0.007499041454268038  0.006207110764826215  0.9997455624301945  1.0000
  Cu  Cu1       1.0  0.00249591980505535  0.006217339141378289  0.0  1.0000
  Cu  Cu2       1.0  0.007491610293316372  0.0012109109956961247  0.9999995409322885  1.0000
  Cu  Cu3       1.0  0.0075000000255278625  0.0012047200102442293  0.9994801690874512  1.0000
  Cu  Cu4       1.0  0.0024999999553262393  0.006204720080445853  0.9994801690874512  1.0000
  Sn  Sn1       1.0  0.0024982104521221456  0.0012120580742701113  0.9997640329543113  1.0000
  Sn  Sn2       1.0  0.0075000000255278625  0.006204720080445853  0.9992021834436119  1.0000
  Se  Se1       1.0  0.005301312937312717  0.008403608519681287  0.9999201602373975  1.0000
  Se  Se2       1.0  0.004909439816265553  0.0036141598711835433  0.999051848698473  1.0000
  Se  Se3       1.0  9.055999466871001e-05  0.008795279970609873  0.999051848698473  1.0000
  Se  Se4       1.0  0.009686403425112195  0.004024148840287559  0.9999212582547298  1.0000
  Se  Se5       1.0  9.055999466871001e-05  0.0036141598711835433  0.9993525179050253  1.0000
  Se  Se6       1.0  0.009909439726918032  0.008614159781836023  0.9996078199861517  1.0000
  Se  Se7       1.0  0.005090560005039404  0.003795280059957394  0.9996078199861517  1.0000
  Se  Se8       1.0  0.004909439816265553  0.008795279970609873  0.9993525179050253  1.0000
