data_image0
_chemical_formula_structural       HNi3Si6Ni3Si6Ni3Si6Ni3Si6
_chemical_formula_sum              "H1 Ni12 Si24"
_cell_length_a       7.745227336883545
_cell_length_b       7.745227549301277
_cell_length_c       32.05628967285156
_cell_angle_alpha    90.0
_cell_angle_beta     90.0
_cell_angle_gamma    119.99999909276752

_space_group_name_H-M_alt    "P 1"
_space_group_IT_number       1

loop_
  _space_group_symop_operation_xyz
  'x, y, z'

loop_
  _atom_site_type_symbol
  _atom_site_label
  _atom_site_symmetry_multiplicity
  _atom_site_fract_x
  _atom_site_fract_y
  _atom_site_fract_z
  _atom_site_occupancy
  H   H1        1.0  0.004999995308998533  0.0008333375598244544  1.2877097493337192e-05  1.0000
  Ni  Ni1       1.0  0.001666665472390325  0.004166665167123168  0.9992591801442553  1.0000
  Ni  Ni2       1.0  4.683312992350729e-09  0.0008333291596039279  0.9972959134189445  1.0000
  Ni  Ni3       1.0  0.003333337974487702  0.00249999587903231  0.998282295972482  1.0000
  Si  Si1       1.0  0.0016666713286675858  0.004166662390190762  0.9985288913203391  1.0000
  Si  Si2       1.0  0.00999999571302074  0.0008333375598244544  0.9996285374337884  1.0000
  Si  Si3       1.0  0.003333337974487702  0.00249999587903231  0.9975425089992234  1.0000
  Si  Si4       1.0  4.683312992350729e-09  0.0008333291596039279  0.9980357001597813  1.0000
  Si  Si5       1.0  0.003333337974487702  0.00249999587903231  0.999022082480897  1.0000
  Si  Si6       1.0  0.0016666638603910061  0.0041666707209879784  0.0  1.0000
  Ni  Ni4       1.0  0.0016666653863917527  0.009166664978291763  0.9992591801442553  1.0000
  Ni  Ni5       1.0  4.7014493849521755e-09  0.005833329179042454  0.9972959134189445  1.0000
  Ni  Ni6       1.0  0.0033333378884891295  0.007499995690200907  0.998282295972482  1.0000
  Si  Si7       1.0  0.0016666712126078371  0.009166662201359359  0.9985288913203391  1.0000
  Si  Si8       1.0  0.009999995245527837  0.005833337509839671  0.9996285374337884  1.0000
  Si  Si9       1.0  0.0033333378884891295  0.007499995690200907  0.9975425089992234  1.0000
  Si  Si10      1.0  4.7014493849521755e-09  0.005833329179042454  0.9980357001597813  1.0000
  Si  Si11      1.0  0.0033333378884891295  0.007499995690200907  0.999022082480897  1.0000
  Si  Si12      1.0  0.001666663594025377  0.009166670532156576  0.0  1.0000
  Ni  Ni7       1.0  0.006666665365372538  0.004166665167123168  0.9992591801442553  1.0000
  Ni  Ni8       1.0  0.005000004576295206  0.0008333291596039279  0.9972959134189445  1.0000
  Ni  Ni9       1.0  0.00833333789753109  0.00249999587903231  0.998282295972482  1.0000
  Si  Si13      1.0  0.0066666711915886225  0.004166662390190762  0.9985288913203391  1.0000
  Si  Si14      1.0  0.004999995308998533  0.0008333375598244544  0.9996285374337884  1.0000
  Si  Si15      1.0  0.00833333789753109  0.00249999587903231  0.9975425089992234  1.0000
  Si  Si16      1.0  0.005000004576295206  0.0008333291596039279  0.9980357001597813  1.0000
  Si  Si17      1.0  0.00833333789753109  0.00249999587903231  0.999022082480897  1.0000
  Si  Si18      1.0  0.006666663813495572  0.0041666707209879784  0.0  1.0000
  Ni  Ni10      1.0  0.006666665309435142  0.009166664978291763  0.9992591801442553  1.0000
  Ni  Ni11      1.0  0.005000004624492774  0.005833329179042454  0.9972959134189445  1.0000
  Ni  Ni12      1.0  0.008333337841593694  0.007499995690200907  0.998282295972482  1.0000
  Si  Si19      1.0  0.006666671376140636  0.009166662201359359  0.9985288913203391  1.0000
  Si  Si20      1.0  0.004999995322484447  0.005833337509839671  0.9996285374337884  1.0000
  Si  Si21      1.0  0.008333337841593694  0.007499995690200907  0.9975425089992234  1.0000
  Si  Si22      1.0  0.005000004624492774  0.005833329179042454  0.9980357001597813  1.0000
  Si  Si23      1.0  0.008333337841593694  0.007499995690200907  0.999022082480897  1.0000
  Si  Si24      1.0  0.006666663757558176  0.009166670532156576  0.0  1.0000
