data_image0
_chemical_formula_structural       HMo9Pd36Mo9Pd36Mo9Pd36
_chemical_formula_sum              "H1 Mo27 Pd108"
_cell_length_a       34.39128112792969
_cell_length_b       7.42463935576777
_cell_length_c       100.8687515258789
_cell_angle_alpha    79.10660552547697
_cell_angle_beta     90.0
_cell_angle_gamma    90.0

_space_group_name_H-M_alt    "P 1"
_space_group_IT_number       1

loop_
  _space_group_symop_operation_xyz
  'x, y, z'

loop_
  _atom_site_type_symbol
  _atom_site_label
  _atom_site_symmetry_multiplicity
  _atom_site_fract_x
  _atom_site_fract_y
  _atom_site_fract_z
  _atom_site_occupancy
  H   H1        1.0  0.000989102796368974  0.001148257449481927  0.00012916257179564774  1.0000
  Mo  Mo1       1.0  0.00032443995445868704  0.007222222315329415  0.9993431200011366  1.0000
  Mo  Mo2       1.0  0.00032443995445868704  0.003888888801458965  0.9992503838691241  1.0000
  Mo  Mo3       1.0  0.00032443995445868704  0.0005555555430655664  0.9994358560189468  1.0000
  Mo  Mo4       1.0  0.006991106579963459  0.008333333401460547  0.999188559856066  1.0000
  Mo  Mo5       1.0  0.006991106579963459  0.005000000143067149  0.9993740320058887  1.0000
  Mo  Mo6       1.0  0.006991106579963459  0.001666666629196699  0.9992812958738763  1.0000
  Mo  Mo7       1.0  0.0036577734026120444  0.0061111112291982825  0.9992194718608182  1.0000
  Mo  Mo8       1.0  0.0036577734026120444  0.002777777715327832  0.9994049440141947  1.0000
  Mo  Mo9       1.0  0.0036577734026120444  0.009444444998545784  0.9993122079892769  1.0000
  Pd  Pd1       1.0  0.0009733198092156725  0.008333333401460547  0.999188559856066  1.0000
  Pd  Pd2       1.0  0.0009733198092156725  0.005000000143067149  0.9993740320058887  1.0000
  Pd  Pd3       1.0  0.0009733198092156725  0.001666666629196699  0.9992812958738763  1.0000
  Pd  Pd4       1.0  0.0016537655841188722  0.0061111112291982825  0.9992194718608182  1.0000
  Pd  Pd5       1.0  0.0016537655841188722  0.002777777715327832  0.9994049440141947  1.0000
  Pd  Pd6       1.0  0.0016537655841188722  0.009444444998545784  0.9993122079892769  1.0000
  Pd  Pd7       1.0  0.0023284476104706935  0.007222222315329415  0.9993431200011366  1.0000
  Pd  Pd8       1.0  0.0023284476104706935  0.003888888801458965  0.9992503838691241  1.0000
  Pd  Pd9       1.0  0.0023284476104706935  0.0005555555430655664  0.9994358560189468  1.0000
  Pd  Pd10      1.0  0.0030088933853738933  0.008333333401460547  0.999188559856066  1.0000
  Pd  Pd11      1.0  0.0030088933853738933  0.005000000143067149  0.9993740320058887  1.0000
  Pd  Pd12      1.0  0.0030088933853738933  0.001666666629196699  0.9992812958738763  1.0000
  Pd  Pd13      1.0  0.00763998659720161  0.0061111112291982825  0.9992194718608182  1.0000
  Pd  Pd14      1.0  0.00763998659720161  0.002777777715327832  0.9994049440141947  1.0000
  Pd  Pd15      1.0  0.00763998659720161  0.009444444998545784  0.9993122079892769  1.0000
  Pd  Pd16      1.0  0.008320432588746363  0.007222222315329415  0.9993431200011366  1.0000
  Pd  Pd17      1.0  0.008320432588746363  0.003888888801458965  0.9992503838691241  1.0000
  Pd  Pd18      1.0  0.008320432588746363  0.0005555555430655664  0.9994358560189468  1.0000
  Pd  Pd19      1.0  0.008995114181815077  0.008333333401460547  0.999188559856066  1.0000
  Pd  Pd20      1.0  0.008995114181815077  0.005000000143067149  0.9993740320058887  1.0000
  Pd  Pd21      1.0  0.008995114181815077  0.001666666629196699  0.9992812958738763  1.0000
  Pd  Pd22      1.0  0.00967556017335983  0.0061111112291982825  0.9992194718608182  1.0000
  Pd  Pd23      1.0  0.00967556017335983  0.002777777715327832  0.9994049440141947  1.0000
  Pd  Pd24      1.0  0.00967556017335983  0.009444444998545784  0.9993122079892769  1.0000
  Pd  Pd25      1.0  0.004306653419850195  0.007222222315329415  0.9993431200011366  1.0000
  Pd  Pd26      1.0  0.004306653419850195  0.003888888801458965  0.9992503838691241  1.0000
  Pd  Pd27      1.0  0.004306653419850195  0.0005555555430655664  0.9994358560189468  1.0000
  Pd  Pd28      1.0  0.004987098978111841  0.008333333401460547  0.999188559856066  1.0000
  Pd  Pd29      1.0  0.004987098978111841  0.005000000143067149  0.9993740320058887  1.0000
  Pd  Pd30      1.0  0.004987098978111841  0.001666666629196699  0.9992812958738763  1.0000
  Pd  Pd31      1.0  0.005661781004463662  0.0061111112291982825  0.9992194718608182  1.0000
  Pd  Pd32      1.0  0.005661781004463662  0.002777777715327832  0.9994049440141947  1.0000
  Pd  Pd33      1.0  0.005661781004463662  0.009444444998545784  0.9993122079892769  1.0000
  Pd  Pd34      1.0  0.006342226562725308  0.007222222315329415  0.9993431200011366  1.0000
  Pd  Pd35      1.0  0.006342226562725308  0.003888888801458965  0.9992503838691241  1.0000
  Pd  Pd36      1.0  0.006342226562725308  0.0005555555430655664  0.9994358560189468  1.0000
  Mo  Mo10      1.0  0.00032443995445868704  0.007222222315329415  0.9996213282865256  1.0000
  Mo  Mo11      1.0  0.00032443995445868704  0.003888888801458965  0.9995285918590566  1.0000
  Mo  Mo12      1.0  0.00032443995445868704  0.0005555555430655664  0.9997140643043358  1.0000
  Mo  Mo13      1.0  0.006991106579963459  0.008333333401460547  0.9994667678459986  1.0000
  Mo  Mo14      1.0  0.006991106579963459  0.005000000143067149  0.9996522402912777  1.0000
  Mo  Mo15      1.0  0.006991106579963459  0.001666666629196699  0.9995595038638088  1.0000
  Mo  Mo16      1.0  0.0036577734026120444  0.0061111112291982825  0.9994976798507508  1.0000
  Mo  Mo17      1.0  0.0036577734026120444  0.002777777715327832  0.9996831522995837  1.0000
  Mo  Mo18      1.0  0.0036577734026120444  0.009444444998545784  0.9995904162746659  1.0000
  Pd  Pd37      1.0  0.0009733198092156725  0.008333333401460547  0.9994667678459986  1.0000
  Pd  Pd38      1.0  0.0009733198092156725  0.005000000143067149  0.9996522402912777  1.0000
  Pd  Pd39      1.0  0.0009733198092156725  0.001666666629196699  0.9995595038638088  1.0000
  Pd  Pd40      1.0  0.0016537655841188722  0.0061111112291982825  0.9994976798507508  1.0000
  Pd  Pd41      1.0  0.0016537655841188722  0.002777777715327832  0.9996831522995837  1.0000
  Pd  Pd42      1.0  0.0016537655841188722  0.009444444998545784  0.9995904162746659  1.0000
  Pd  Pd43      1.0  0.0023284476104706935  0.007222222315329415  0.9996213282865256  1.0000
  Pd  Pd44      1.0  0.0023284476104706935  0.003888888801458965  0.9995285918590566  1.0000
  Pd  Pd45      1.0  0.0023284476104706935  0.0005555555430655664  0.9997140643043358  1.0000
  Pd  Pd46      1.0  0.0030088933853738933  0.008333333401460547  0.9994667678459986  1.0000
  Pd  Pd47      1.0  0.0030088933853738933  0.005000000143067149  0.9996522402912777  1.0000
  Pd  Pd48      1.0  0.0030088933853738933  0.001666666629196699  0.9995595038638088  1.0000
  Pd  Pd49      1.0  0.00763998659720161  0.0061111112291982825  0.9994976798507508  1.0000
  Pd  Pd50      1.0  0.00763998659720161  0.002777777715327832  0.9996831522995837  1.0000
  Pd  Pd51      1.0  0.00763998659720161  0.009444444998545784  0.9995904162746659  1.0000
  Pd  Pd52      1.0  0.008320432588746363  0.007222222315329415  0.9996213282865256  1.0000
  Pd  Pd53      1.0  0.008320432588746363  0.003888888801458965  0.9995285918590566  1.0000
  Pd  Pd54      1.0  0.008320432588746363  0.0005555555430655664  0.9997140643043358  1.0000
  Pd  Pd55      1.0  0.008995114181815077  0.008333333401460547  0.9994667678459986  1.0000
  Pd  Pd56      1.0  0.008995114181815077  0.005000000143067149  0.9996522402912777  1.0000
  Pd  Pd57      1.0  0.008995114181815077  0.001666666629196699  0.9995595038638088  1.0000
  Pd  Pd58      1.0  0.00967556017335983  0.0061111112291982825  0.9994976798507508  1.0000
  Pd  Pd59      1.0  0.00967556017335983  0.002777777715327832  0.9996831522995837  1.0000
  Pd  Pd60      1.0  0.00967556017335983  0.009444444998545784  0.9995904162746659  1.0000
  Pd  Pd61      1.0  0.004306653419850195  0.007222222315329415  0.9996213282865256  1.0000
  Pd  Pd62      1.0  0.004306653419850195  0.003888888801458965  0.9995285918590566  1.0000
  Pd  Pd63      1.0  0.004306653419850195  0.0005555555430655664  0.9997140643043358  1.0000
  Pd  Pd64      1.0  0.004987098978111841  0.008333333401460547  0.9994667678459986  1.0000
  Pd  Pd65      1.0  0.004987098978111841  0.005000000143067149  0.9996522402912777  1.0000
  Pd  Pd66      1.0  0.004987098978111841  0.001666666629196699  0.9995595038638088  1.0000
  Pd  Pd67      1.0  0.005661781004463662  0.0061111112291982825  0.9994976798507508  1.0000
  Pd  Pd68      1.0  0.005661781004463662  0.002777777715327832  0.9996831522995837  1.0000
  Pd  Pd69      1.0  0.005661781004463662  0.009444444998545784  0.9995904162746659  1.0000
  Pd  Pd70      1.0  0.006342226562725308  0.007222222315329415  0.9996213282865256  1.0000
  Pd  Pd71      1.0  0.006342226562725308  0.003888888801458965  0.9995285918590566  1.0000
  Pd  Pd72      1.0  0.006342226562725308  0.0005555555430655664  0.9997140643043358  1.0000
  Mo  Mo19      1.0  0.00032443995445868704  0.007222222315329415  0.9998995359810018  1.0000
  Mo  Mo20      1.0  0.00032443995445868704  0.003888888801458965  0.9998068001444457  1.0000
  Mo  Mo21      1.0  0.00032443995445868704  0.0005555555430655664  0.999992271998812  1.0000
  Mo  Mo22      1.0  0.006991106579963459  0.008333333401460547  0.9997449761313877  1.0000
  Mo  Mo23      1.0  0.006991106579963459  0.005000000143067149  0.9999304479857539  1.0000
  Mo  Mo24      1.0  0.006991106579963459  0.001666666629196699  0.9998377121491978  1.0000
  Mo  Mo25      1.0  0.0036577734026120444  0.0061111112291982825  0.9997758881361398  1.0000
  Mo  Mo26      1.0  0.0036577734026120444  0.002777777715327832  0.9999613599940599  1.0000
  Mo  Mo27      1.0  0.0036577734026120444  0.009444444998545784  0.9998686239691421  1.0000
  Pd  Pd73      1.0  0.0009733198092156725  0.008333333401460547  0.9997449761313877  1.0000
  Pd  Pd74      1.0  0.0009733198092156725  0.005000000143067149  0.9999304479857539  1.0000
  Pd  Pd75      1.0  0.0009733198092156725  0.001666666629196699  0.9998377121491978  1.0000
  Pd  Pd76      1.0  0.0016537655841188722  0.0061111112291982825  0.9997758881361398  1.0000
  Pd  Pd77      1.0  0.0016537655841188722  0.002777777715327832  0.9999613599940599  1.0000
  Pd  Pd78      1.0  0.0016537655841188722  0.009444444998545784  0.9998686239691421  1.0000
  Pd  Pd79      1.0  0.0023284476104706935  0.007222222315329415  0.9998995359810018  1.0000
  Pd  Pd80      1.0  0.0023284476104706935  0.003888888801458965  0.9998068001444457  1.0000
  Pd  Pd81      1.0  0.0023284476104706935  0.0005555555430655664  0.999992271998812  1.0000
  Pd  Pd82      1.0  0.0030088933853738933  0.008333333401460547  0.9997449761313877  1.0000
  Pd  Pd83      1.0  0.0030088933853738933  0.005000000143067149  0.9999304479857539  1.0000
  Pd  Pd84      1.0  0.0030088933853738933  0.001666666629196699  0.9998377121491978  1.0000
  Pd  Pd85      1.0  0.00763998659720161  0.0061111112291982825  0.9997758881361398  1.0000
  Pd  Pd86      1.0  0.00763998659720161  0.002777777715327832  0.9999613599940599  1.0000
  Pd  Pd87      1.0  0.00763998659720161  0.009444444998545784  0.9998686239691421  1.0000
  Pd  Pd88      1.0  0.008320432588746363  0.007222222315329415  0.9998995359810018  1.0000
  Pd  Pd89      1.0  0.008320432588746363  0.003888888801458965  0.9998068001444457  1.0000
  Pd  Pd90      1.0  0.008320432588746363  0.0005555555430655664  0.999992271998812  1.0000
  Pd  Pd91      1.0  0.008995114181815077  0.008333333401460547  0.9997449761313877  1.0000
  Pd  Pd92      1.0  0.008995114181815077  0.005000000143067149  0.9999304479857539  1.0000
  Pd  Pd93      1.0  0.008995114181815077  0.001666666629196699  0.9998377121491978  1.0000
  Pd  Pd94      1.0  0.00967556017335983  0.0061111112291982825  0.9997758881361398  1.0000
  Pd  Pd95      1.0  0.00967556017335983  0.002777777715327832  0.9999613599940599  1.0000
  Pd  Pd96      1.0  0.00967556017335983  0.009444444998545784  0.9998686239691421  1.0000
  Pd  Pd97      1.0  0.004306653419850195  0.007222222315329415  0.9998995359810018  1.0000
  Pd  Pd98      1.0  0.004306653419850195  0.003888888801458965  0.9998068001444457  1.0000
  Pd  Pd99      1.0  0.004306653419850195  0.0005555555430655664  0.999992271998812  1.0000
  Pd  Pd100     1.0  0.004987098978111841  0.008333333401460547  0.9997449761313877  1.0000
  Pd  Pd101     1.0  0.004987098978111841  0.005000000143067149  0.9999304479857539  1.0000
  Pd  Pd102     1.0  0.004987098978111841  0.001666666629196699  0.9998377121491978  1.0000
  Pd  Pd103     1.0  0.005661781004463662  0.0061111112291982825  0.9997758881361398  1.0000
  Pd  Pd104     1.0  0.005661781004463662  0.002777777715327832  0.9999613599940599  1.0000
  Pd  Pd105     1.0  0.005661781004463662  0.009444444998545784  0.9998686239691421  1.0000
  Pd  Pd106     1.0  0.006342226562725308  0.007222222315329415  0.9998995359810018  1.0000
  Pd  Pd107     1.0  0.006342226562725308  0.003888888801458965  0.9998068001444457  1.0000
  Pd  Pd108     1.0  0.006342226562725308  0.0005555555430655664  0.999992271998812  1.0000
