data_image0
_chemical_formula_structural       COV18Pt6V18Pt6
_chemical_formula_sum              "C1 O1 V36 Pt12"
_cell_length_a       4.820059299468994
_cell_length_b       10.777980150236171
_cell_length_c       110.8995590209961
_cell_angle_alpha    71.56505117707799
_cell_angle_beta     90.0
_cell_angle_gamma    90.0

_space_group_name_H-M_alt    "P 1"
_space_group_IT_number       1

loop_
  _space_group_symop_operation_xyz
  'x, y, z'

loop_
  _atom_site_type_symbol
  _atom_site_label
  _atom_site_symmetry_multiplicity
  _atom_site_fract_x
  _atom_site_fract_y
  _atom_site_fract_z
  _atom_site_occupancy
  C   C1        1.0  0.003851609474405289  0.007411410337232202  0.9997722237602563  1.0000
  O   O1        1.0  0.003851609474405289  0.007411410337232202  0.999880430000431  1.0000
  V   V1        1.0  1.6000000173216797e-09  0.007527056253587393  0.9987412045105145  1.0000
  V   V2        1.0  1.6000000173216797e-09  0.0041937230951350985  0.9991509801451842  1.0000
  V   V3        1.0  1.6000000173216797e-09  0.000860389481263432  0.998946092409029  1.0000
  V   V4        1.0  1.6000000173216797e-09  0.005860389674361246  0.9986387609041711  1.0000
  V   V5        1.0  1.6000000173216797e-09  0.0025270561515734536  0.9990485365500381  1.0000
  V   V6        1.0  1.6000000173216797e-09  0.00919372283281354  0.998843648654323  1.0000
  V   V7        1.0  0.005000001870350957  0.007527056253587393  0.9988948706254525  1.0000
  V   V8        1.0  0.005000001870350957  0.0041937230951350985  0.9986899828753006  1.0000
  V   V9        1.0  0.005000001870350957  0.000860389481263432  0.9990997585239669  1.0000
  V   V10       1.0  0.005000001870350957  0.00919372283281354  0.998689982539385  1.0000
  V   V11       1.0  0.005000001870350957  0.005860389674361246  0.9990997581740547  1.0000
  V   V12       1.0  0.005000001870350957  0.0025270561515734536  0.9988948704351002  1.0000
  V   V13       1.0  0.007500001452999917  0.005027056384748173  0.9988948702559451  1.0000
  V   V14       1.0  0.007500001452999917  0.0016937228619603802  0.9986899825169906  1.0000
  V   V15       1.0  0.007500001452999917  0.008360389907535964  0.9990997585323649  1.0000
  V   V16       1.0  0.002500001708047775  0.005027056384748173  0.9988948702559451  1.0000
  V   V17       1.0  0.002500001708047775  0.0016937228619603802  0.9986899825169906  1.0000
  V   V18       1.0  0.002500001708047775  0.008360389907535964  0.9990997585323649  1.0000
  Pt  Pt1       1.0  0.005000001870350957  0.006693723328309817  0.9986899826961456  1.0000
  Pt  Pt2       1.0  0.005000001870350957  0.0033603894411865275  0.9990997583532097  1.0000
  Pt  Pt3       1.0  0.005000001870350957  2.705615180116336e-05  0.998894870607082  1.0000
  Pt  Pt4       1.0  1.6000000173216797e-09  0.006693723328309817  0.9989973143885564  1.0000
  Pt  Pt5       1.0  1.6000000173216797e-09  0.0033603894411865275  0.998792426660799  1.0000
  Pt  Pt6       1.0  1.6000000173216797e-09  2.705615180116336e-05  0.9992022022994927  1.0000
  V   V19       1.0  1.6000000173216797e-09  0.007527056253587393  0.9993558684328011  1.0000
  V   V20       1.0  0.009999988283255991  0.004178328827348484  0.9997445073222678  1.0000
  V   V21       1.0  0.00999999833059584  0.0008672152157299852  0.9995573674485767  1.0000
  V   V22       1.0  1.6000000173216797e-09  0.005860389674361246  0.9992534242889927  1.0000
  V   V23       1.0  0.00999999060187288  0.0025558362877153113  0.9996594760014038  1.0000
  V   V24       1.0  1.6000000173216797e-09  0.00919372283281354  0.9994583120391445  1.0000
  V   V25       1.0  0.005000001870350957  0.007527056253587393  0.999509534010274  1.0000
  V   V26       1.0  0.005000001870350957  0.0041937230951350985  0.9993046462601222  1.0000
  V   V27       1.0  0.004999993368755699  0.0009907205774427337  0.9997149332760576  1.0000
  V   V28       1.0  0.005000001870350957  0.00919372283281354  0.9993046464616716  1.0000
  V   V29       1.0  0.0049999980059894766  0.005922344925754372  0.9997022578050455  1.0000
  V   V30       1.0  0.005000001870350957  0.0025270561515734536  0.9995095343573869  1.0000
  V   V31       1.0  0.007500001452999917  0.005027056384748173  0.9995095341782319  1.0000
  V   V32       1.0  0.007500001452999917  0.0016937228619603802  0.9993046464392772  1.0000
  V   V33       1.0  0.007296729083256228  0.0083671009674046  0.9997056543830533  1.0000
  V   V34       1.0  0.002500001708047775  0.005027056384748173  0.9995095341782319  1.0000
  V   V35       1.0  0.002500001708047775  0.0016937228619603802  0.9993046464392772  1.0000
  V   V36       1.0  0.0027032174648957694  0.00836711554082451  0.9997056528602354  1.0000
  Pt  Pt7       1.0  0.005000001870350957  0.006693723328309817  0.9993046460809671  1.0000
  Pt  Pt8       1.0  0.004999992595883403  0.0033744331172829664  0.9997156987327616  1.0000
  Pt  Pt9       1.0  0.005000001870350957  2.705615180116336e-05  0.9995095339919036  1.0000
  Pt  Pt10      1.0  0.009999992147617471  0.006686076654882949  0.9996246411234319  1.0000
  Pt  Pt11      1.0  1.6000000173216797e-09  0.0033603894411865275  0.9994070900456206  1.0000
  Pt  Pt12      1.0  0.009999981327405325  0.009972943921293647  0.9998002139135542  1.0000
