data_image0
_chemical_formula_structural       HV18Ni6V18Ni6
_chemical_formula_sum              "H1 V36 Ni12"
_cell_length_a       4.679924964904785
_cell_length_b       10.46463019513358
_cell_length_c       109.71047973632812
_cell_angle_alpha    71.5650520026764
_cell_angle_beta     90.0
_cell_angle_gamma    90.0

_space_group_name_H-M_alt    "P 1"
_space_group_IT_number       1

loop_
  _space_group_symop_operation_xyz
  'x, y, z'

loop_
  _atom_site_type_symbol
  _atom_site_label
  _atom_site_symmetry_multiplicity
  _atom_site_fract_x
  _atom_site_fract_y
  _atom_site_fract_z
  _atom_site_occupancy
  H   H1        1.0  0.009999995287591419  0.0032187140004903045  0.999902913657184  1.0000
  V   V1        1.0  2.499999961086169e-10  0.007916666526575179  0.9988351390075821  1.0000
  V   V2        1.0  2.499999961086169e-10  0.004583333173228776  0.9992373136221211  1.0000
  V   V3        1.0  2.499999961086169e-10  0.0012499999136936371  0.9990362262368668  1.0000
  V   V4        1.0  2.499999961086169e-10  0.006249999849901978  0.998734595588015  1.0000
  V   V5        1.0  2.499999961086169e-10  0.002916666496555575  0.9991367696592636  1.0000
  V   V6        1.0  2.499999961086169e-10  0.009583333203248381  0.9989356824271493  1.0000
  V   V7        1.0  0.005000000031840599  0.007916666526575179  0.9989859542351779  1.0000
  V   V8        1.0  0.005000000031840599  0.004583333173228776  0.9987848673960436  1.0000
  V   V9        1.0  0.005000000031840599  0.0012499999136936371  0.9991870414644625  1.0000
  V   V10       1.0  0.005000000031840599  0.009583333203248381  0.9987848671995535  1.0000
  V   V11       1.0  0.005000000031840599  0.006249999849901978  0.9991870418140925  1.0000
  V   V12       1.0  0.005000000031840599  0.002916666496555575  0.9989859544316678  1.0000
  V   V13       1.0  0.007499999649753416  0.005416666511565377  0.9989859543334229  1.0000
  V   V14       1.0  0.007499999649753416  0.002083333345841502  0.9987848672169841  1.0000
  V   V15       1.0  0.007499999649753416  0.008749999489666723  0.999187041727166  1.0000
  V   V16       1.0  0.00250000021492404  0.005416666511565377  0.9989859543334229  1.0000
  V   V17       1.0  0.00250000021492404  0.002083333345841502  0.9987848672169841  1.0000
  V   V18       1.0  0.00250000021492404  0.008749999489666723  0.999187041727166  1.0000
  Ni  Ni1       1.0  0.005000000031840599  0.007083332812993523  0.9987848673091171  1.0000
  Ni  Ni2       1.0  0.005000000031840599  0.0037499998348921753  0.9991870419123375  1.0000
  Ni  Ni3       1.0  0.005000000031840599  0.00041666662226266837  0.9989859545256684  1.0000
  Ni  Ni4       1.0  2.499999961086169e-10  0.007083332812993523  0.9990864983075989  1.0000
  Ni  Ni5       1.0  2.499999961086169e-10  0.0037499998348921753  0.9988854109138557  1.0000
  Ni  Ni6       1.0  2.499999961086169e-10  0.00041666662226266837  0.9992875855241502  1.0000
  V   V19       1.0  2.499999961086169e-10  0.007916666526575179  0.9994384004612553  1.0000
  V   V20       1.0  0.009999991307516602  0.0045473088973592745  0.9998261817071751  1.0000
  V   V21       1.0  0.009999999267666234  0.0012720389939472312  0.9996414752673787  1.0000
  V   V22       1.0  2.499999961086169e-10  0.006249999849901978  0.9993378570416882  1.0000
  V   V23       1.0  0.009999999267666234  0.002993551018954234  0.9997379657551733  1.0000
  V   V24       1.0  2.499999961086169e-10  0.009583333203248381  0.9995389444241128  1.0000
  V   V25       1.0  0.005000000031840599  0.007916666526575179  0.9995892162321414  1.0000
  V   V26       1.0  0.005000000031840599  0.004583333173228776  0.9993881288497167  1.0000
  V   V27       1.0  0.004999997643795709  0.0012656738058729683  0.9997931311773571  1.0000
  V   V28       1.0  0.005000000031840599  0.009583333203248381  0.9993881291965171  1.0000
  V   V29       1.0  0.004999996449773264  0.006277448650505905  0.9997782493187979  1.0000
  V   V30       1.0  0.005000000031840599  0.002916666496555575  0.9995892158853411  1.0000
  V   V31       1.0  0.007499999649753416  0.005416666511565377  0.9995892163303864  1.0000
  V   V32       1.0  0.007499999649753416  0.002083333345841502  0.9993881289423026  1.0000
  V   V33       1.0  0.007331492834235093  0.008784483009336146  0.9997787259352068  1.0000
  V   V34       1.0  0.00250000021492404  0.005416666511565377  0.9995892163303864  1.0000
  V   V35       1.0  0.00250000021492404  0.002083333345841502  0.9993881289423026  1.0000
  V   V36       1.0  0.0026684946922104344  0.008784486011296593  0.999778725301368  1.0000
  Ni  Ni7       1.0  0.005000000031840599  0.007083332812993523  0.9993881287627904  1.0000
  Ni  Ni8       1.0  0.004999994459735857  0.0037630729973993898  0.9997867959854063  1.0000
  Ni  Ni9       1.0  0.005000000031840599  0.00041666662226266837  0.9995892159793416  1.0000
  Ni  Ni10      1.0  0.009999997675636307  0.007060406841049989  0.9996996225636781  1.0000
  Ni  Ni11      1.0  2.499999961086169e-10  0.0037499998348921753  0.9994886723675289  1.0000
  Ni  Ni12      1.0  3.549999783425317e-09  0.00043345541440911235  0.9998721848991972  1.0000
