data_image0
_chemical_formula_structural       COAl5Fe5Al5Fe5Al5Fe5Al5Fe5
_chemical_formula_sum              "C1 O1 Al20 Fe20"
_cell_length_a       6.4603338692203875
_cell_length_b       8.171748161315918
_cell_length_c       105.0290756225586
_cell_angle_alpha    90.0
_cell_angle_beta     104.96321827044767
_cell_angle_gamma    71.56505030632633

_space_group_name_H-M_alt    "P 1"
_space_group_IT_number       1

loop_
  _space_group_symop_operation_xyz
  'x, y, z'

loop_
  _atom_site_type_symbol
  _atom_site_label
  _atom_site_symmetry_multiplicity
  _atom_site_fract_x
  _atom_site_fract_y
  _atom_site_fract_z
  _atom_site_occupancy
  C   C1        1.0  0.003799336279196766  0.004800165963023761  0.00017932194535233745  1.0000
  O   O1        1.0  0.003799336279196766  0.004800165963023761  0.0002935762530053856  1.0000
  Al  Al1       1.0  0.007000000318365737  0.0014999998894091105  3.176376495525425e-05  1.0000
  Al  Al2       1.0  0.0010000000454808197  0.0004999999507922249  0.9999364729406042  1.0000
  Al  Al3       1.0  0.0030000001364424585  0.00249999993488993  0.999650600527398  1.0000
  Al  Al4       1.0  0.005000000227404098  0.004499999975971928  0.9998411818624235  1.0000
  Al  Al5       1.0  0.009000000409327377  0.003499999930491108  0.999745891351749  1.0000
  Fe  Fe1       1.0  0.007000000318365737  0.0014999998894091105  0.9997935366070863  1.0000
  Fe  Fe2       1.0  0.0010000000454808197  0.0004999999507922249  0.9996982457827353  1.0000
  Fe  Fe3       1.0  0.0030000001364424585  0.00249999993488993  0.999888827685267  1.0000
  Fe  Fe4       1.0  0.005000000227404098  0.004499999975971928  7.940902029252654e-05  1.0000
  Fe  Fe5       1.0  0.009000000409327377  0.003499999930491108  0.999984118509618  1.0000
  Al  Al6       1.0  0.007000000318365737  0.0014999998894091105  0.9995553097329704  1.0000
  Al  Al7       1.0  0.0010000000454808197  0.0004999999507922249  0.9994600189086194  1.0000
  Al  Al8       1.0  0.0030000001364424585  0.00249999993488993  0.999174146495413  1.0000
  Al  Al9       1.0  0.005000000227404098  0.004499999975971928  0.9993647281141917  1.0000
  Al  Al10      1.0  0.009000000409327377  0.003499999930491108  0.9992694373197641  1.0000
  Fe  Fe6       1.0  0.007000000318365737  0.0014999998894091105  0.9993170825751013  1.0000
  Fe  Fe7       1.0  0.0010000000454808197  0.0004999999507922249  0.9992217917507503  1.0000
  Fe  Fe8       1.0  0.0030000001364424585  0.00249999993488993  0.9994123733695289  1.0000
  Fe  Fe9       1.0  0.005000000227404098  0.004499999975971928  0.9996029552720607  1.0000
  Fe  Fe10      1.0  0.009000000409327377  0.003499999930491108  0.99950766419388  1.0000
  Al  Al11      1.0  0.007000000318365737  0.006499999789116756  3.176376495525425e-05  1.0000
  Al  Al12      1.0  0.0010000000454808197  0.005500000021452747  0.9999364729406042  1.0000
  Al  Al13      1.0  0.0030000001364424585  0.007499999834597575  0.999650600527398  1.0000
  Al  Al14      1.0  0.005000000227404098  0.009500000103616743  0.9998411818624235  1.0000
  Al  Al15      1.0  0.009000000409327377  0.008500000058135922  0.999745891351749  1.0000
  Fe  Fe11      1.0  0.007000000318365737  0.006499999789116756  0.9997935366070863  1.0000
  Fe  Fe12      1.0  0.0010000000454808197  0.005500000021452747  0.9996982457827353  1.0000
  Fe  Fe13      1.0  0.0030000001364424585  0.007499999834597575  0.999888827685267  1.0000
  Fe  Fe14      1.0  0.005000000227404098  0.009500000103616743  7.940902029252654e-05  1.0000
  Fe  Fe15      1.0  0.009000000409327377  0.008500000058135922  0.999984118509618  1.0000
  Al  Al16      1.0  0.007000000318365737  0.006499999789116756  0.9995553097329704  1.0000
  Al  Al17      1.0  0.0010000000454808197  0.005500000021452747  0.9994600189086194  1.0000
  Al  Al18      1.0  0.0030000001364424585  0.007499999834597575  0.999174146495413  1.0000
  Al  Al19      1.0  0.005000000227404098  0.009500000103616743  0.9993647281141917  1.0000
  Al  Al20      1.0  0.009000000409327377  0.008500000058135922  0.9992694373197641  1.0000
  Fe  Fe16      1.0  0.007000000318365737  0.006499999789116756  0.9993170825751013  1.0000
  Fe  Fe17      1.0  0.0010000000454808197  0.005500000021452747  0.9992217917507503  1.0000
  Fe  Fe18      1.0  0.0030000001364424585  0.007499999834597575  0.9994123733695289  1.0000
  Fe  Fe19      1.0  0.005000000227404098  0.009500000103616743  0.9996029552720607  1.0000
  Fe  Fe20      1.0  0.009000000409327377  0.008500000058135922  0.99950766419388  1.0000
