data_image0
_chemical_formula_structural       HIr32
_chemical_formula_sum              "H1 Ir32"
_cell_length_a       5.4964680671691895
_cell_length_b       6.731770992279053
_cell_length_c       108.08064270019531
_cell_angle_alpha    90.0
_cell_angle_beta     90.0
_cell_angle_gamma    90.0

_space_group_name_H-M_alt    "P 1"
_space_group_IT_number       1

loop_
  _space_group_symop_operation_xyz
  'x, y, z'

loop_
  _atom_site_type_symbol
  _atom_site_label
  _atom_site_symmetry_multiplicity
  _atom_site_fract_x
  _atom_site_fract_y
  _atom_site_fract_z
  _atom_site_occupancy
  H   H1        1.0  0.0012500015147952675  0.009133278762061143  4.996822663374169e-05  1.0000
  Ir  Ir1       1.0  0.0012499987190321897  0.0008667210110492282  0.9994277784078901  1.0000
  Ir  Ir2       1.0  0.0012499987190321897  0.0008667210110492282  0.9989873590638687  1.0000
  Ir  Ir3       1.0  0.0012499987190321897  0.00753338757257192  0.9991341655118758  1.0000
  Ir  Ir4       1.0  0.0012499987190321897  0.004200054360984242  0.999280971959883  1.0000
  Ir  Ir5       1.0  0.003749998698699367  0.004200054360984242  0.9990607622878722  1.0000
  Ir  Ir6       1.0  0.003749998698699367  0.0008667210110492282  0.9992075684601378  1.0000
  Ir  Ir7       1.0  0.003749998698699367  0.00753338757257192  0.9993543749081449  1.0000
  Ir  Ir8       1.0  0.003749998698699367  0.00753338757257192  0.9989139558398651  1.0000
  Ir  Ir9       1.0  0.0012500016842354543  0.007370768581468155  0.0  1.0000
  Ir  Ir10      1.0  0.0012499987190321897  0.00753338757257192  0.9995745848558972  1.0000
  Ir  Ir11      1.0  0.0012499987190321897  0.004200054360984242  0.9997213913039044  1.0000
  Ir  Ir12      1.0  0.0012500012606349877  0.0008957889620227579  0.9998719489397618  1.0000
  Ir  Ir13      1.0  0.003749998698699367  0.0008667210110492282  0.9996479878041592  1.0000
  Ir  Ir14      1.0  0.0037500003931012324  0.007618658229011031  0.9997942747551133  1.0000
  Ir  Ir15      1.0  0.003750001070861979  0.0042024109694835795  0.9999348626800094  1.0000
  Ir  Ir16      1.0  0.003749998698699367  0.004200054360984242  0.9995011813561521  1.0000
  Ir  Ir17      1.0  0.006249998508926358  0.0008667210110492282  0.9994277784078901  1.0000
  Ir  Ir18      1.0  0.006249998508926358  0.0008667210110492282  0.9989873590638687  1.0000
  Ir  Ir19      1.0  0.006249998508926358  0.00753338757257192  0.9991341655118758  1.0000
  Ir  Ir20      1.0  0.006249998508926358  0.004200054360984242  0.999280971959883  1.0000
  Ir  Ir21      1.0  0.00874999831915335  0.004200054360984242  0.9990607622878722  1.0000
  Ir  Ir22      1.0  0.00874999831915335  0.0008667210110492282  0.9992075684601378  1.0000
  Ir  Ir23      1.0  0.00874999831915335  0.00753338757257192  0.9993543749081449  1.0000
  Ir  Ir24      1.0  0.00874999831915335  0.00753338757257192  0.9989139558398651  1.0000
  Ir  Ir25      1.0  0.006250001219969343  0.007370768581468155  0.0  1.0000
  Ir  Ir26      1.0  0.006249998508926358  0.00753338757257192  0.9995745848558972  1.0000
  Ir  Ir27      1.0  0.006249998508926358  0.004200054360984242  0.9997213913039044  1.0000
  Ir  Ir28      1.0  0.006250001219969343  0.0008957889620227579  0.9998719489397618  1.0000
  Ir  Ir29      1.0  0.00874999831915335  0.0008667210110492282  0.9996479878041592  1.0000
  Ir  Ir30      1.0  0.008750000352435587  0.007618658229011031  0.9997942747551133  1.0000
  Ir  Ir31      1.0  0.008750001030196334  0.0042024109694835795  0.9999348626800094  1.0000
  Ir  Ir32      1.0  0.00874999831915335  0.004200054360984242  0.9995011813561521  1.0000
