data_image0
_chemical_formula_structural       HIn3As3Pt15In3As3Pt15
_chemical_formula_sum              "H1 In6 As6 Pt30"
_cell_length_a       9.129874803427187
_cell_length_b       7.196530818939209
_cell_length_c       104.64543914794922
_cell_angle_alpha    90.0
_cell_angle_beta     108.43494787662407
_cell_angle_gamma    90.0

_space_group_name_H-M_alt    "P 1"
_space_group_IT_number       1

loop_
  _space_group_symop_operation_xyz
  'x, y, z'

loop_
  _atom_site_type_symbol
  _atom_site_label
  _atom_site_symmetry_multiplicity
  _atom_site_fract_x
  _atom_site_fract_y
  _atom_site_fract_z
  _atom_site_occupancy
  H   H1        1.0  0.005614281209542645  0.0014389734693337675  0.00015489544892419448  1.0000
  In  In1       1.0  0.007474218466303036  4.049999977356997e-09  0.00015967845503358808  1.0000
  In  In2       1.0  0.00416763486069402  2.549999985743294e-09  0.9997967362824236  1.0000
  In  In3       1.0  0.0008323651091986606  9.850000520878688e-09  0.9999860394092592  1.0000
  As  As1       1.0  0.007505381261744263  0.005000000952477565  0.9998961184437184  1.0000
  As  As2       1.0  0.0042204594419524835  0.005000004058382667  7.831355335031738e-05  1.0000
  As  As3       1.0  0.0008343014399060944  0.005000002505430116  0.9997047711390051  1.0000
  Pt  Pt1       1.0  0.0058317855132032324  0.007122053154509619  0.999989308885383  1.0000
  Pt  Pt2       1.0  0.0022947729620503817  0.007002217500289388  0.000133569678991457  1.0000
  Pt  Pt3       1.0  0.009167634723060564  0.007149235518315763  0.9997967363697602  1.0000
  Pt  Pt4       1.0  0.005831791534667005  0.002877949526921787  0.9999893090515124  1.0000
  Pt  Pt5       1.0  0.0022947841447688165  0.0029977849223165928  0.00013357055710418698  1.0000
  Pt  Pt6       1.0  0.009167634723060564  0.002850769751369895  0.9997967363697602  1.0000
  Pt  Pt7       1.0  0.009161969385859692  0.007203132807210127  6.943599210217931e-05  1.0000
  Pt  Pt8       1.0  0.005834301194746498  0.007149235518315763  0.9997047712233752  1.0000
  Pt  Pt9       1.0  0.0025224636469436453  0.007109799841229445  0.9998819774719395  1.0000
  Pt  Pt10      1.0  0.009161972826696134  0.002796885144921367  6.943665661992856e-05  1.0000
  Pt  Pt11      1.0  0.005834301194746498  0.002850769751369895  0.9997047712233752  1.0000
  Pt  Pt12      1.0  0.0025224640770482006  0.002890206204932489  0.9998819780533925  1.0000
  Pt  Pt13      1.0  0.007457105466261415  4.950000219160379e-09  0.9998867513777919  1.0000
  Pt  Pt14      1.0  0.004132021773420314  0.009999997763748327  6.710367295424438e-05  1.0000
  Pt  Pt15      1.0  0.0008343014399060944  2.549999985743294e-09  0.9997047711390051  1.0000
  In  In4       1.0  0.007500967528798975  2.549999985743294e-09  0.9996128058795335  1.0000
  In  In5       1.0  0.00416763486069402  2.549999985743294e-09  0.9992449455161322  1.0000
  In  In6       1.0  0.0008343014399060944  2.549999985743294e-09  0.9994288756134628  1.0000
  As  As4       1.0  0.007500967528798975  0.005000002505430116  0.9993369106387844  1.0000
  As  As5       1.0  0.00416763486069402  0.005000002505430116  0.9995208407568812  1.0000
  As  As6       1.0  0.0008343014399060944  0.005000002505430116  0.9991529803727137  1.0000
  Pt  Pt16      1.0  0.005834301194746498  0.007149235518315763  0.9994288756978328  1.0000
  Pt  Pt17      1.0  0.002500968096536988  0.007149235518315763  0.9996128060888565  1.0000
  Pt  Pt18      1.0  0.009167634723060564  0.007149235518315763  0.9992449453186755  1.0000
  Pt  Pt19      1.0  0.005834301194746498  0.002850769751369895  0.9994288756978328  1.0000
  Pt  Pt20      1.0  0.002500968096536988  0.002850769751369895  0.9996128060888565  1.0000
  Pt  Pt21      1.0  0.009167634723060564  0.002850769751369895  0.9992449453186755  1.0000
  Pt  Pt22      1.0  0.009167634723060564  0.007149235518315763  0.9995208408442178  1.0000
  Pt  Pt23      1.0  0.005834301194746498  0.007149235518315763  0.9991529801722904  1.0000
  Pt  Pt24      1.0  0.002500968096536988  0.007149235518315763  0.9993369105633142  1.0000
  Pt  Pt25      1.0  0.009167634723060564  0.002850769751369895  0.9995208408442178  1.0000
  Pt  Pt26      1.0  0.005834301194746498  0.002850769751369895  0.9991529801722904  1.0000
  Pt  Pt27      1.0  0.002500968096536988  0.002850769751369895  0.9993369105633142  1.0000
  Pt  Pt28      1.0  0.007500967528798975  2.549999985743294e-09  0.9993369106387844  1.0000
  Pt  Pt29      1.0  0.00416763486069402  2.549999985743294e-09  0.9995208407568812  1.0000
  Pt  Pt30      1.0  0.0008343014399060944  2.549999985743294e-09  0.9991529803727137  1.0000
