data_image0
_chemical_formula_structural       Ga4Au4Ga4Au4H
_chemical_formula_sum              "Ga8 Au8 H1"
_cell_length_a       6.406750679016113
_cell_length_b       6.409749984741211
_cell_length_c       99.50091552734375
_cell_angle_alpha    90.0
_cell_angle_beta     90.0
_cell_angle_gamma    90.0

_space_group_name_H-M_alt    "P 1"
_space_group_IT_number       1

loop_
  _space_group_symop_operation_xyz
  'x, y, z'

loop_
  _atom_site_type_symbol
  _atom_site_label
  _atom_site_symmetry_multiplicity
  _atom_site_fract_x
  _atom_site_fract_y
  _atom_site_fract_z
  _atom_site_occupancy
  Ga  Ga1       1.0  0.0008019775670999328  0.006811034328779025  0.9996249003395548  1.0000
  Ga  Ga2       1.0  0.009281231486208994  0.0031889659036974547  0.9994395947982462  1.0000
  Ga  Ga3       1.0  0.00428123160250165  0.0018110342125407855  0.9996249003395548  1.0000
  Ga  Ga4       1.0  0.005801977305441454  0.008188966019935694  0.9994395947982462  1.0000
  Au  Au1       1.0  0.006920841169907851  0.005076642962434776  0.9996249003395548  1.0000
  Au  Au2       1.0  0.0031623677380352533  0.004923357270041704  0.9994395947982462  1.0000
  Au  Au3       1.0  0.008162367621742597  7.664270089873547e-05  0.9996249003395548  1.0000
  Au  Au4       1.0  0.0019208412862005086  0.009923357386279945  0.9994395947982462  1.0000
  Ga  Ga5       1.0  0.0006858513538884171  0.006810053278029968  0.0  1.0000
  Ga  Ga6       1.0  0.009314148704257912  0.0030383382892669513  0.9998095026124302  1.0000
  Ga  Ga7       1.0  0.00439735825181063  0.0018100538882807303  0.0  1.0000
  Ga  Ga8       1.0  0.005769059505929251  0.008038338696100792  0.9998095026124302  1.0000
  Au  Au5       1.0  0.006963394397522167  0.0050862087884292915  0.9999830975961571  1.0000
  Au  Au6       1.0  0.003036111416831585  0.004851570857529485  0.9998218963707343  1.0000
  Au  Au7       1.0  0.008119814975591567  8.620819997320011e-05  0.9999830975961571  1.0000
  Au  Au8       1.0  0.0020470978981358195  0.009851572136150129  0.9998218963707343  1.0000
  H   H1        1.0  0.004015534570829857  0.00456877193648073  0.0001451183030251076  1.0000
