data_image0
_chemical_formula_structural       Pd8V24CO
_chemical_formula_sum              "Pd8 V24 C1 O1"
_cell_length_a       6.821765422821045
_cell_length_b       8.35492185765655
_cell_length_c       101.6312255859375
_cell_angle_alpha    95.05115278167675
_cell_angle_beta     90.0
_cell_angle_gamma    90.0

_space_group_name_H-M_alt    "P 1"
_space_group_IT_number       1

loop_
  _space_group_symop_operation_xyz
  'x, y, z'

loop_
  _atom_site_type_symbol
  _atom_site_label
  _atom_site_symmetry_multiplicity
  _atom_site_fract_x
  _atom_site_fract_y
  _atom_site_fract_z
  _atom_site_occupancy
  Pd  Pd1       1.0  9.215159550200825e-05  0.005285011649671791  0.9996427678589551  1.0000
  Pd  Pd2       1.0  0.005205698272415909  0.0021592985493422063  0.9998452854698667  1.0000
  Pd  Pd3       1.0  0.009907847980596492  0.009010293697033534  2.899931488728392e-05  1.0000
  Pd  Pd4       1.0  0.005092151648063064  0.008410011918242626  0.9994482458438186  1.0000
  Pd  Pd5       1.0  0.0002742258905763948  0.004010817607114357  2.9030419321235007e-05  1.0000
  Pd  Pd6       1.0  0.005092151648063064  0.0034100116675765133  0.999448245589818  1.0000
  Pd  Pd7       1.0  9.215159550200825e-05  0.00028501162281470714  0.9996427678998142  1.0000
  Pd  Pd8       1.0  0.004978805438332358  0.007158333959282427  0.9998452910563934  1.0000
  V   V1        1.0  0.008842151691750176  0.007628761739195403  0.9994968762734828  1.0000
  V   V2        1.0  0.003842151451471064  0.004503761918242626  0.9996913985850989  1.0000
  V   V3        1.0  0.008895435768972492  0.0014071659250244192  0.9998768577602217  1.0000
  V   V4        1.0  0.003842151451471064  0.0007537616183385266  0.999302354044395  1.0000
  V   V5        1.0  0.006342151298566175  0.006066261828719014  0.999594137136051  1.0000
  V   V6        1.0  0.0013560309995701888  0.0028925168487734495  0.9997840153571911  1.0000
  V   V7        1.0  0.006350289115185018  0.009704278049795869  0.999953563839076  1.0000
  V   V8        1.0  0.0013421516043759527  0.00919126209728985  0.9993996151209147  1.0000
  V   V9        1.0  0.0025921515279235083  0.00591001179290957  0.9994482457168183  1.0000
  V   V10       1.0  0.007592151495158175  0.002785011748147764  0.9996427677335747  1.0000
  V   V11       1.0  0.002568210444955673  0.00971498865470849  0.9998394215201236  1.0000
  V   V12       1.0  0.007806337932980337  0.006330418254743921  1.0394042783461457e-05  1.0000
  V   V13       1.0  0.0025921515279235083  0.007785011775004847  0.9996427676927155  1.0000
  V   V14       1.0  0.00761547222114849  0.004714173291557176  0.9998392628816074  1.0000
  V   V15       1.0  0.0023780475495235346  0.0013310730931069628  1.0355130843629358e-05  1.0000
  V   V16       1.0  0.007592151495158175  0.0009100116541479713  0.9994482457568676  1.0000
  V   V17       1.0  0.008842151691750176  0.004191261846623737  0.999399615160154  1.0000
  V   V18       1.0  0.003842151451471064  0.001066261689957416  0.9995941371761002  1.0000
  V   V19       1.0  0.008828343834200354  0.007891979062532802  0.999783977701045  1.0000
  V   V20       1.0  0.0038334669998746707  0.004704444313047656  0.9999536609729693  1.0000
  V   V21       1.0  0.0013421516043759527  0.0026287617123383193  0.999496876314342  1.0000
  V   V22       1.0  0.006342151298566175  0.00950376216890874  0.9996913982526199  1.0000
  V   V23       1.0  0.0012902256502197393  0.006405943059344672  0.9998768632367806  1.0000
  V   V24       1.0  0.006342151298566175  0.005753761757100125  0.9993023542975857  1.0000
  C   C1        1.0  0.0037735080781662374  0.008436661306995458  3.914630642008411e-05  1.0000
  O   O1        1.0  0.0037735080781662374  0.008436661306995458  0.000157219906781258  1.0000
