data_image0
_chemical_formula_structural       CONa16
_chemical_formula_sum              "C1 O1 Na16"
_cell_length_a       7.415143524480968
_cell_length_b       6.054439067840576
_cell_length_c       104.97715759277344
_cell_angle_alpha    90.0
_cell_angle_beta     92.02486808655928
_cell_angle_gamma    90.0

_space_group_name_H-M_alt    "P 1"
_space_group_IT_number       1

loop_
  _space_group_symop_operation_xyz
  'x, y, z'

loop_
  _atom_site_type_symbol
  _atom_site_label
  _atom_site_symmetry_multiplicity
  _atom_site_fract_x
  _atom_site_fract_y
  _atom_site_fract_z
  _atom_site_occupancy
  C   C1        1.0  0.003139121340729438  0.007499992714859851  0.0001727249929084212  1.0000
  O   O1        1.0  0.003139121340729438  0.007499992714859851  0.00028703523895833293  1.0000
  Na  Na1       1.0  0.0026250000361946447  0.00249999998154103  0.9995241955571137  1.0000
  Na  Na2       1.0  0.003056537225822347  0.007499992714859851  7.628482218840181e-06  1.0000
  Na  Na3       1.0  0.0008993324905155552  0.0025000090572012664  0.9998714435011702  1.0000
  Na  Na4       1.0  0.004375000060324408  0.00750000009844784  0.9996907901037737  1.0000
  Na  Na5       1.0  0.0006249999547566937  0.00249999998154103  0.9988578192172379  1.0000
  Na  Na6       1.0  0.0008749999492269564  0.00750000009844784  0.9993576015780836  1.0000
  Na  Na7       1.0  0.0041249998773403695  0.00249999998154103  0.999191007458564  1.0000
  Na  Na8       1.0  0.0023749998532106064  0.00750000009844784  0.9990244131957975  1.0000
  Na  Na9       1.0  0.007624999674248195  0.00249999998154103  0.9995241956995765  1.0000
  Na  Na10      1.0  0.008056537366579299  0.007499992714859851  7.628625936308249e-06  1.0000
  Na  Na11      1.0  0.005899332505596657  0.0025000090572012664  0.9998714436445739  1.0000
  Na  Na12      1.0  0.00937500020108136  0.00750000009844784  0.9996907896797044  1.0000
  Na  Na13      1.0  0.005624999718486095  0.00249999998154103  0.998857819076121  1.0000
  Na  Na14      1.0  0.005874999650118432  0.00750000009844784  0.9993576017207033  1.0000
  Na  Na15      1.0  0.00912499976674562  0.00249999998154103  0.9991910073177608  1.0000
  Na  Na16      1.0  0.007374999742615858  0.00750000009844784  0.9990244133388876  1.0000
