data_image0
_chemical_formula_structural       COAl4Au16
_chemical_formula_sum              "C1 O1 Al4 Au16"
_cell_length_a       7.093369960784912
_cell_length_b       7.093369960784912
_cell_length_c       41.62651824951172
_cell_angle_alpha    90.0
_cell_angle_beta     90.0
_cell_angle_gamma    90.0

_space_group_name_H-M_alt    "P 1"
_space_group_IT_number       1

loop_
  _space_group_symop_operation_xyz
  'x, y, z'

loop_
  _atom_site_type_symbol
  _atom_site_label
  _atom_site_symmetry_multiplicity
  _atom_site_fract_x
  _atom_site_fract_y
  _atom_site_fract_z
  _atom_site_occupancy
  C   C1        1.0  0.0031588840362331626  0.009574244582251463  0.00015647062579464234  1.0000
  O   O1        1.0  0.0031588840362331626  0.009574244582251463  0.00044474826757203123  1.0000
  Al  Al1       1.0  0.0006340655119026612  0.0005520319314200005  0.9983818416018826  1.0000
  Al  Al2       1.0  0.00936593435680254  0.005552032128362197  0.9994499629833217  1.0000
  Al  Al3       1.0  0.004365934619392137  0.00928390136714647  0.9992338669764608  1.0000
  Al  Al4       1.0  0.005634065643197459  0.004283900841967279  0.9985979376087435  1.0000
  Au  Au1       1.0  0.006825557530229314  0.006743524015394052  0.9990308305332033  1.0000
  Au  Au2       1.0  0.003174442469770686  0.0017435238840992546  0.9988009736940282  1.0000
  Au  Au3       1.0  0.008174442469770686  0.0030924089549354238  0.9998828559077815  1.0000
  Au  Au4       1.0  0.0018255575302293142  0.008092408954935423  0.9996529990686063  1.0000
  Au  Au5       1.0  0.009492210542237011  0.0037798535485307587  0.9988560739409595  1.0000
  Au  Au6       1.0  0.007851094368398497  0.009410176502222558  0.9995358549763877  1.0000
  Au  Au7       1.0  0.0038618870633660204  0.007769060853563235  0.9985764195059045  1.0000
  Au  Au8       1.0  0.006138112674044384  0.0027690608535632356  0.9992553847213269  1.0000
  Au  Au9       1.0  0.0071489056316015025  0.0004257559101040275  0.9986838296018096  1.0000
  Au  Au10      1.0  0.008861887325955616  0.007066872116766241  0.9984033593467488  1.0000
  Au  Au11      1.0  0.0021489055003067045  0.00441017702740175  0.0  1.0000
  Au  Au12      1.0  0.002851094630988093  0.005425755942927727  0.9991479746254218  1.0000
  Au  Au13      1.0  0.0011381129366339795  0.002066871854176645  0.9994284448804827  1.0000
  Au  Au14      1.0  0.005507789457762989  0.006056079159209122  0.9997080993155377  1.0000
  Au  Au15      1.0  0.004492210542237011  0.0010560792905039199  0.9998277556608501  1.0000
  Au  Au16      1.0  0.0005077894905866882  0.008779853285941162  0.998975730286272  1.0000
