data_image0
_chemical_formula_structural       HPb8Pd24
_chemical_formula_sum              "H1 Pb8 Pd24"
_cell_length_a       5.862190246582031
_cell_length_b       7.179687339745445
_cell_length_c       103.92987823486328
_cell_angle_alpha    94.04469110378086
_cell_angle_beta     90.0
_cell_angle_gamma    90.0

_space_group_name_H-M_alt    "P 1"
_space_group_IT_number       1

loop_
  _space_group_symop_operation_xyz
  'x, y, z'

loop_
  _atom_site_type_symbol
  _atom_site_label
  _atom_site_symmetry_multiplicity
  _atom_site_fract_x
  _atom_site_fract_y
  _atom_site_fract_z
  _atom_site_occupancy
  H   H1        1.0  0.00624999987290449  0.0073219743211676855  8.207266903698033e-05  1.0000
  Pb  Pb1       1.0  0.0012499999904678368  0.009874999991677428  0.9993659438733683  1.0000
  Pb  Pb2       1.0  0.00624999987290449  0.009374999583871361  0.9988762402844513  1.0000
  Pb  Pb3       1.0  0.0012499999904678368  0.0028750000041612867  0.9990394747122444  1.0000
  Pb  Pb4       1.0  0.00624999987290449  0.006374999737838958  0.999202709148162  1.0000
  Pb  Pb5       1.0  0.0012499999904678368  0.0038750000395322212  1.8881599522479872e-05  1.0000
  Pb  Pb6       1.0  0.00624999987290449  0.003374999891806554  0.9995291782986269  1.0000
  Pb  Pb7       1.0  0.0012499999904678368  0.006874999625484225  0.9996924124477904  1.0000
  Pb  Pb8       1.0  0.00624999987290449  0.00037499998075405045  0.9998556468752666  1.0000
  Pd  Pd1       1.0  0.008749999694970775  0.006125000054096724  0.9989578574996151  1.0000
  Pd  Pd2       1.0  0.0037499997330994288  0.009625000307935195  0.9991210919380673  1.0000
  Pd  Pd3       1.0  0.008749999694970775  0.0031249999479839204  0.9992843263620586  1.0000
  Pd  Pd4       1.0  0.0037499997330994288  0.002625000060338653  0.9987946230624302  1.0000
  Pd  Pd5       1.0  0.0012499999904678368  0.009374999583871361  0.9988762402844513  1.0000
  Pd  Pd6       1.0  0.00624999987290449  0.0028750000041612867  0.9990394747122444  1.0000
  Pd  Pd7       1.0  0.0012499999904678368  0.006374999737838958  0.999202709148162  1.0000
  Pd  Pd8       1.0  0.00624999987290449  0.009874999991677428  0.9993659438733683  1.0000
  Pd  Pd9       1.0  0.0037499997330994288  0.006125000054096724  0.9989578574996151  1.0000
  Pd  Pd10      1.0  0.008749999694970775  0.009625000307935195  0.9991210919380673  1.0000
  Pd  Pd11      1.0  0.0037499997330994288  0.0031249999479839204  0.9992843263620586  1.0000
  Pd  Pd12      1.0  0.008749999694970775  0.002625000060338653  0.9987946230624302  1.0000
  Pd  Pd13      1.0  0.008749999694970775  0.00012499999629385431  0.9996107955120086  1.0000
  Pd  Pd14      1.0  0.0037499997330994288  0.0036249998356291877  0.9997740296616869  1.0000
  Pd  Pd15      1.0  0.008749999694970775  0.0071249998293872584  0.9999372643856259  1.0000
  Pd  Pd16      1.0  0.0037499997330994288  0.006624999941741991  0.9994475610859976  1.0000
  Pd  Pd17      1.0  0.0012499999904678368  0.003374999891806554  0.9995291782986269  1.0000
  Pd  Pd18      1.0  0.00624999987290449  0.006874999625484225  0.9996924124477904  1.0000
  Pd  Pd19      1.0  0.0012499999904678368  0.00037499998075405045  0.9998556468752666  1.0000
  Pd  Pd20      1.0  0.00624999987290449  0.0038750000395322212  1.8881599522479872e-05  1.0000
  Pd  Pd21      1.0  0.0037499997330994288  0.00012499999629385431  0.9996107955120086  1.0000
  Pd  Pd22      1.0  0.008749999694970775  0.0036249998356291877  0.9997740296616869  1.0000
  Pd  Pd23      1.0  0.0037499997330994288  0.0071249998293872584  0.9999372643856259  1.0000
  Pd  Pd24      1.0  0.008749999694970775  0.006624999941741991  0.9994475610859976  1.0000
