data_image0
_chemical_formula_structural       COSn2Pt2Sn2Pt2Sn2Pt2Sn2Pt2
_chemical_formula_sum              "C1 O1 Sn8 Pt8"
_cell_length_a       8.406040784873108
_cell_length_b       5.541849136352539
_cell_length_c       36.37583541870117
_cell_angle_alpha    90.0
_cell_angle_beta     59.999998581538776
_cell_angle_gamma    90.0

_space_group_name_H-M_alt    "P 1"
_space_group_IT_number       1

loop_
  _space_group_symop_operation_xyz
  'x, y, z'

loop_
  _atom_site_type_symbol
  _atom_site_label
  _atom_site_symmetry_multiplicity
  _atom_site_fract_x
  _atom_site_fract_y
  _atom_site_fract_z
  _atom_site_occupancy
  C   C1        1.0  0.0029810216749543996  0.007503086119332995  0.9996555599264411  1.0000
  O   O1        1.0  0.0029810216749543996  0.007503086119332995  0.9999854495160383  1.0000
  Sn  Sn1       1.0  0.002443632228781129  0.0075034175192090925  0.9987484869738906  1.0000
  Sn  Sn2       1.0  0.004170642253661031  0.0025030861193329947  0.9991057447749636  1.0000
  Pt  Pt1       1.0  0.0008352782364644954  0.005009782010135862  0.9983363900162964  1.0000
  Pt  Pt2       1.0  0.0008354483855631262  0.009996694739978145  0.9983363101387946  1.0000
  Sn  Sn3       1.0  0.002496024590404194  0.007503305260021855  0.9975688313146708  1.0000
  Sn  Sn4       1.0  0.004162691045557194  0.00250330542807453  0.9979539791489858  1.0000
  Pt  Pt3       1.0  0.0008293578154220613  0.005003305596127205  0.9971836835173103  1.0000
  Pt  Pt4       1.0  0.0008293578154220613  3.3053000656564997e-06  0.9971836835173103  1.0000
  Sn  Sn5       1.0  0.007443632617693354  0.0075034175192090925  0.9987484866503957  1.0000
  Sn  Sn6       1.0  0.00917064238670995  0.0025030861193329947  0.9991057444810323  1.0000
  Pt  Pt5       1.0  0.005835278433479241  0.005009782010135862  0.9983363901246187  1.0000
  Pt  Pt6       1.0  0.005835448326714566  0.009996694739978145  0.9983363102766805  1.0000
  Sn  Sn7       1.0  0.007496024723453113  0.007503305260021855  0.997568831430384  1.0000
  Sn  Sn8       1.0  0.009162691178606113  0.00250330542807453  0.9979539788550544  1.0000
  Pt  Pt7       1.0  0.0058293577565735  0.005003305596127205  0.9971836836551962  1.0000
  Pt  Pt8       1.0  0.0058293577565735  3.3053000656564997e-06  0.9971836836551962  1.0000
