data_image0
_chemical_formula_structural       COTi2Al2Au2Ti2Al2Au2Ti2Al2Au2Ti2Al2Au2
_chemical_formula_sum              "C1 O1 Ti8 Al8 Au8"
_cell_length_a       8.96271903043613
_cell_length_b       5.794891357421875
_cell_length_c       105.85087585449219
_cell_angle_alpha    90.0
_cell_angle_beta     119.9999997534053
_cell_angle_gamma    90.0

_space_group_name_H-M_alt    "P 1"
_space_group_IT_number       1

loop_
  _space_group_symop_operation_xyz
  'x, y, z'

loop_
  _atom_site_type_symbol
  _atom_site_label
  _atom_site_symmetry_multiplicity
  _atom_site_fract_x
  _atom_site_fract_y
  _atom_site_fract_z
  _atom_site_occupancy
  C   C1        1.0  0.006050099688394863  0.0025895248334576945  0.0003639615588042442  1.0000
  O   O1        1.0  0.006050099688394863  0.0025895248334576945  0.0004773288240424732  1.0000
  Ti  Ti1       1.0  6.511139880849261e-05  9.031279252916393e-05  0.9997738727073456  1.0000
  Ti  Ti2       1.0  6.511139880849261e-05  0.0050903124883771335  0.9997738727073456  1.0000
  Al  Al1       1.0  0.003398444816731788  0.002590312655520125  0.9994916290546301  1.0000
  Al  Al2       1.0  0.001731778145265691  0.007590312321234142  0.9996327507418002  1.0000
  Au  Au1       1.0  0.003398444816731788  0.007590312321234142  0.9994916290546301  1.0000
  Au  Au2       1.0  0.001731778145265691  0.002590312655520125  0.9996327507418002  1.0000
  Ti  Ti3       1.0  0.009933844918836024  0.009909686830193746  0.00017492340784175565  1.0000
  Ti  Ti4       1.0  0.009934888315025463  0.005269362489578506  0.00017510948286221468  1.0000
  Al  Al3       1.0  0.003412968613321818  0.002588558296965761  0.9999175137916342  1.0000
  Al  Al4       1.0  0.0018076758591579552  0.00759226275137483  6.885455387180777e-05  1.0000
  Au  Au3       1.0  0.0033463510782331435  0.007590827250219867  0.9999061574006458  1.0000
  Au  Au4       1.0  0.0018669547050637076  0.0025903105662327297  7.90403962377305e-05  1.0000
  Ti  Ti5       1.0  0.005065111608183647  9.031279252916393e-05  0.9997738725360178  1.0000
  Ti  Ti6       1.0  0.005065111608183647  0.0050903124883771335  0.9997738725360178  1.0000
  Al  Al5       1.0  0.008398444711144317  0.002590312655520125  0.9994916288699678  1.0000
  Al  Al6       1.0  0.0067317781596639824  0.007590312321234142  0.9996327508437678  1.0000
  Au  Au5       1.0  0.008398444711144317  0.007590312321234142  0.9994916288699678  1.0000
  Au  Au6       1.0  0.0067317781596639824  0.002590312655520125  0.9996327508437678  1.0000
  Ti  Ti7       1.0  0.00493384478445197  0.009909686830193746  0.0001749235823444504  1.0000
  Ti  Ti8       1.0  0.00493488866058446  0.005269362489578506  0.0001751096776840359  1.0000
  Al  Al7       1.0  0.008412968747705871  0.002588558296965761  0.9999175136171315  1.0000
  Al  Al8       1.0  0.0068076758735562464  0.00759226275137483  6.88543742893314e-05  1.0000
  Au  Au7       1.0  0.008346350732674148  0.007590827250219867  0.999906157205824  1.0000
  Au  Au8       1.0  0.006866954599476237  0.0025903105662327297  7.904021157547252e-05  1.0000
