data_image0
_chemical_formula_structural       HRh3Pb3Rh3Pb3
_chemical_formula_sum              "H1 Rh6 Pb6"
_cell_length_a       4.534182548522949
_cell_length_b       5.78619085664345
_cell_length_c       104.71714782714844
_cell_angle_alpha    59.99999925684621
_cell_angle_beta     90.0
_cell_angle_gamma    90.0

_space_group_name_H-M_alt    "P 1"
_space_group_IT_number       1

loop_
  _space_group_symop_operation_xyz
  'x, y, z'

loop_
  _atom_site_type_symbol
  _atom_site_label
  _atom_site_symmetry_multiplicity
  _atom_site_fract_x
  _atom_site_fract_y
  _atom_site_fract_z
  _atom_site_occupancy
  H   H1        1.0  0.00249990333860648  0.00662759321850517  5.6951135197959027e-05  1.0000
  Rh  Rh1       1.0  0.007498640907121456  0.006644153737666057  0.9995504146453787  1.0000
  Rh  Rh2       1.0  0.007500353945842145  0.006904805722896726  0.9998092359968387  1.0000
  Rh  Rh3       1.0  0.007501359585839327  0.0016994087915475444  0.9998092553576791  1.0000
  Pb  Pb1       1.0  0.0025003067448471795  0.004809539488270977  0.9997530843062444  1.0000
  Pb  Pb2       1.0  0.00249990333860648  0.008355845756805437  0.9999137076453873  1.0000
  Pb  Pb3       1.0  0.007498640907121456  0.0016441539681275816  0.9995504148894582  1.0000
  Rh  Rh4       1.0  0.007498640907121456  0.006644153737666057  0.9989978604976604  1.0000
  Rh  Rh5       1.0  0.007498640907121456  0.006644153737666057  0.9992741374292204  1.0000
  Rh  Rh6       1.0  0.007498640907121456  0.0016441539681275816  0.9992741376732998  1.0000
  Pb  Pb4       1.0  0.002498640948201521  0.004977487209771921  0.9991820452932147  1.0000
  Pb  Pb5       1.0  0.002498640948201521  0.008310821008984467  0.9993662301138836  1.0000
  Pb  Pb6       1.0  0.007498640907121456  0.0016441539681275816  0.9989978604571415  1.0000
