data_image0
_chemical_formula_structural       COMn20Ge8
_chemical_formula_sum              "C1 O1 Mn20 Ge8"
_cell_length_a       5.868687152862549
_cell_length_b       5.213311672210693
_cell_length_c       103.79004669189453
_cell_angle_alpha    90.0
_cell_angle_beta     90.0
_cell_angle_gamma    90.0

_space_group_name_H-M_alt    "P 1"
_space_group_IT_number       1

loop_
  _space_group_symop_operation_xyz
  'x, y, z'

loop_
  _atom_site_type_symbol
  _atom_site_label
  _atom_site_symmetry_multiplicity
  _atom_site_fract_x
  _atom_site_fract_y
  _atom_site_fract_z
  _atom_site_occupancy
  C   C1        1.0  0.008714467583216746  0.0058336555627554  0.000136616265260528  1.0000
  O   O1        1.0  0.008714467583216746  0.0058336555627554  0.00025223394823231367  1.0000
  Mn  Mn1       1.0  0.0020477015722957063  0.0025004082068116593  0.9999999988514381  1.0000
  Mn  Mn2       1.0  0.004910496821193759  3.3164999482668776e-07  0.9990567171518107  1.0000
  Mn  Mn3       1.0  0.0020477402935126132  0.007500308895495123  0.0  1.0000
  Mn  Mn4       1.0  0.0070477832613679  0.007500251729677575  0.9999545835667517  1.0000
  Mn  Mn5       1.0  0.007047881016571239  0.0025003315688875084  0.9997177897356646  1.0000
  Mn  Mn6       1.0  0.009185265529335743  0.005000331576033235  0.9990567171518107  1.0000
  Mn  Mn7       1.0  0.009696359566774128  0.009999667752268408  0.9998618463846838  1.0000
  Mn  Mn8       1.0  0.004399690971173011  0.005001095096983868  0.9998618417904364  1.0000
  Mn  Mn9       1.0  0.007047881016571239  0.007500331047249423  0.9997177897356646  1.0000
  Mn  Mn10      1.0  0.007047879747023144  0.0025004067776662206  0.999954623766417  1.0000
  Mn  Mn11      1.0  0.007047881016571239  0.007500331047249423  0.9994676771811961  1.0000
  Mn  Mn12      1.0  0.009910496783107316  0.005000331576033235  0.9995993195993023  1.0000
  Mn  Mn13      1.0  0.007047881016571239  0.0025003315688875084  0.9994676771811961  1.0000
  Mn  Mn14      1.0  0.0020478813720447055  0.0025003315688875084  0.9994252992683605  1.0000
  Mn  Mn15      1.0  0.0020478813720447055  0.007500331047249423  0.9991751870010326  1.0000
  Mn  Mn16      1.0  0.004185265567422185  3.3164999482668776e-07  0.9995993195993023  1.0000
  Mn  Mn17      1.0  0.004910496821193759  0.005000331576033235  0.9992936565631141  1.0000
  Mn  Mn18      1.0  0.009185265529335743  3.3164999482668776e-07  0.9992936565631141  1.0000
  Mn  Mn19      1.0  0.0020478813720447055  0.0025003315688875084  0.9991751870010326  1.0000
  Mn  Mn20      1.0  0.0020478813720447055  0.007500331047249423  0.9994252992683605  1.0000
  Ge  Ge1       1.0  0.009187958240845909  3.3164999482668776e-07  0.9990488584043928  1.0000
  Ge  Ge2       1.0  0.004907804427070617  0.005000331576033235  0.9990488584043928  1.0000
  Ge  Ge3       1.0  8.950305145469798e-05  0.0049999492796283795  0.9998344612241472  1.0000
  Ge  Ge4       1.0  0.004006538586563559  9.945499345369302e-07  0.9998344945324412  1.0000
  Ge  Ge5       1.0  0.004187957961545328  0.005000331576033235  0.999591461139025  1.0000
  Ge  Ge6       1.0  0.009907804071597151  3.3164999482668776e-07  0.999591461139025  1.0000
  Ge  Ge7       1.0  0.004907804427070617  3.3164999482668776e-07  0.9993015153105318  1.0000
  Ge  Ge8       1.0  0.009187958240845909  0.005000331576033235  0.9993015153105318  1.0000
