data_image0
_chemical_formula_structural       HTi4Pt4Ti4Pt4
_chemical_formula_sum              "H1 Ti8 Pt8"
_cell_length_a       4.893535137176514
_cell_length_b       5.416894229627415
_cell_length_c       107.91825866699219
_cell_angle_alpha    62.300527750146344
_cell_angle_beta     90.0
_cell_angle_gamma    90.0

_space_group_name_H-M_alt    "P 1"
_space_group_IT_number       1

loop_
  _space_group_symop_operation_xyz
  'x, y, z'

loop_
  _atom_site_type_symbol
  _atom_site_label
  _atom_site_symmetry_multiplicity
  _atom_site_fract_x
  _atom_site_fract_y
  _atom_site_fract_z
  _atom_site_occupancy
  H   H1        1.0  0.0055447531413438085  0.0007073173340390618  2.3102585222145075e-06  1.0000
  Ti  Ti1       1.0  0.003027429040531306  0.004111533313357854  0.9994276073306883  1.0000
  Ti  Ti2       1.0  0.003027429040531306  0.00911153323568464  0.9991766349989223  1.0000
  Ti  Ti3       1.0  0.007039830020003923  0.006611533080338213  0.999051149365978  1.0000
  Ti  Ti4       1.0  0.007039830020003923  0.0016115335463774954  0.9993021211363698  1.0000
  Pt  Pt1       1.0  0.008136580039029525  0.0016115335463774954  0.9990511490568554  1.0000
  Pt  Pt2       1.0  0.008136580039029525  0.006611533080338213  0.9993021214454925  1.0000
  Pt  Pt3       1.0  0.001930678260237991  0.004111533313357854  0.999176635251174  1.0000
  Pt  Pt4       1.0  0.001930678260237991  0.00911153323568464  0.9994276070784367  1.0000
  Ti  Ti5       1.0  0.0033531482792621323  0.003870282253273833  0.9999096983159931  1.0000
  Ti  Ti6       1.0  0.003164371205476314  0.009292682704797545  0.999671300485438  1.0000
  Ti  Ti7       1.0  0.007039830020003923  0.006611533080338213  0.9995530935250068  1.0000
  Ti  Ti8       1.0  0.007736358003425485  0.0009017252323734002  0.9998250434365252  1.0000
  Pt  Pt5       1.0  0.008136580039029525  0.0016115335463774954  0.9995530932158841  1.0000
  Pt  Pt6       1.0  0.00805425807116735  0.006028845718876157  0.9998101361942096  1.0000
  Pt  Pt7       1.0  0.001863420067547954  0.004198897813989928  0.9996742461558027  1.0000
  Pt  Pt8       1.0  0.0025724975492051783  0.008726736251095503  0.9999142082485226  1.0000
