data_image0
_chemical_formula_structural       HSi2Ni4Si2Ni4Si2Ni4Si2Ni4Si2Ni4Si2Ni4Si2Ni4Si2Ni4
_chemical_formula_sum              "H1 Si16 Ni32"
_cell_length_a       7.882988929748535
_cell_length_b       7.88298881125409
_cell_length_c       100.14569091796875
_cell_angle_alpha    90.0
_cell_angle_beta     90.0
_cell_angle_gamma    120.00000049724348

_space_group_name_H-M_alt    "P 1"
_space_group_IT_number       1

loop_
  _space_group_symop_operation_xyz
  'x, y, z'

loop_
  _atom_site_type_symbol
  _atom_site_label
  _atom_site_symmetry_multiplicity
  _atom_site_fract_x
  _atom_site_fract_y
  _atom_site_fract_z
  _atom_site_occupancy
  H   H1        1.0  0.001666665371181813  0.0049999984502668545  5.892394358621808e-05  1.0000
  Si  Si1       1.0  0.003333333824369109  0.0016666684237584726  0.9991385805947276  1.0000
  Si  Si2       1.0  0.0016666670938172666  0.003333334937634547  0.9993894290395211  1.0000
  Ni  Ni1       1.0  0.0016666670938172666  0.003333334937634547  0.9991385805947276  1.0000
  Ni  Ni2       1.0  0.003333333824369109  0.0016666684237584726  0.9993894290395211  1.0000
  Ni  Ni3       1.0  4.000000296657094e-10  1.6500000563570912e-09  0.9992640048171243  1.0000
  Ni  Ni4       1.0  4.000000296657094e-10  1.6500000563570912e-09  0.9995148535595075  1.0000
  Si  Si3       1.0  0.003333333824369109  0.0016666684237584726  0.9996402777819043  1.0000
  Si  Si4       1.0  0.0016666776487254372  0.0033333147474492  0.9999270488700697  1.0000
  Ni  Ni5       1.0  0.0016666670938172666  0.003333334937634547  0.9996402777819043  1.0000
  Ni  Ni6       1.0  0.0033333260148419143  0.0016666726527837816  0.9998806457139546  1.0000
  Ni  Ni7       1.0  0.010000000184327949  0.00999999908325645  0.9997591035487087  1.0000
  Ni  Ni8       1.0  0.009999992773493074  7.550000210567144e-09  0.0  1.0000
  Si  Si5       1.0  0.0033333339169538444  0.006666668783907725  0.9991385805947276  1.0000
  Si  Si6       1.0  0.001666667327542038  0.0083333352977838  0.9993894290395211  1.0000
  Ni  Ni9       1.0  0.001666667327542038  0.0083333352977838  0.9991385805947276  1.0000
  Ni  Ni10      1.0  0.0033333339169538444  0.006666668783907725  0.9993894290395211  1.0000
  Ni  Ni11      1.0  3.0453895784813305e-10  0.005000001724350965  0.9992640048171243  1.0000
  Ni  Ni12      1.0  3.0453895784813305e-10  0.005000001724350965  0.9995148535595075  1.0000
  Si  Si7       1.0  0.0033333339169538444  0.006666668783907725  0.9996402777819043  1.0000
  Si  Si8       1.0  0.0016666777893890512  0.008333315107598452  0.9999270488700697  1.0000
  Ni  Ni13      1.0  0.001666667327542038  0.0083333352977838  0.9996402777819043  1.0000
  Ni  Ni14      1.0  0.003333325976836303  0.00666667260367252  0.9998806457139546  1.0000
  Ni  Ni15      1.0  0.009999999716609687  0.0049999984502668545  0.9997591035487087  1.0000
  Ni  Ni16      1.0  0.009999992540562356  0.0050000077268385  0.0  1.0000
  Si  Si9       1.0  0.008333333758208845  0.0016666684237584726  0.9991385805947276  1.0000
  Si  Si10      1.0  0.006666667166370345  0.003333334937634547  0.9993894290395211  1.0000
  Ni  Ni17      1.0  0.006666667166370345  0.003333334937634547  0.9991385805947276  1.0000
  Ni  Ni18      1.0  0.008333333758208845  0.0016666684237584726  0.9993894290395211  1.0000
  Ni  Ni19      1.0  0.0050000005225531  1.6500000563570912e-09  0.9992640048171243  1.0000
  Ni  Ni20      1.0  0.0050000005225531  1.6500000563570912e-09  0.9995148535595075  1.0000
  Si  Si11      1.0  0.008333333758208845  0.0016666684237584726  0.9996402777819043  1.0000
  Si  Si12      1.0  0.0066666778645040215  0.0033333147474492  0.9999270488700697  1.0000
  Ni  Ni21      1.0  0.006666667166370345  0.003333334937634547  0.9996402777819043  1.0000
  Ni  Ni22      1.0  0.008333325948681648  0.0016666726527837816  0.9998806457139546  1.0000
  Ni  Ni23      1.0  0.004999999966628223  0.00999999908325645  0.9997591035487087  1.0000
  Ni  Ni24      1.0  0.004999992603366675  7.550000210567144e-09  0.0  1.0000
  Si  Si13      1.0  0.008333334089506934  0.006666668783907725  0.9991385805947276  1.0000
  Si  Si14      1.0  0.006666667261381772  0.0083333352977838  0.9993894290395211  1.0000
  Ni  Ni25      1.0  0.006666667261381772  0.0083333352977838  0.9991385805947276  1.0000
  Ni  Ni26      1.0  0.008333334089506934  0.006666668783907725  0.9993894290395211  1.0000
  Ni  Ni27      1.0  0.005000000474665356  0.005000001724350965  0.9992640048171243  1.0000
  Ni  Ni28      1.0  0.005000000474665356  0.005000001724350965  0.9995148535595075  1.0000
  Si  Si15      1.0  0.008333334089506934  0.006666668783907725  0.9996402777819043  1.0000
  Si  Si16      1.0  0.006666677959515449  0.008333315107598452  0.9999270488700697  1.0000
  Ni  Ni29      1.0  0.006666667261381772  0.0083333352977838  0.9996402777819043  1.0000
  Ni  Ni30      1.0  0.008333326075349482  0.00666667260367252  0.9998806457139546  1.0000
  Ni  Ni31      1.0  0.004999999782769952  0.0049999984502668545  0.9997591035487087  1.0000
  Ni  Ni32      1.0  0.004999992606722622  0.0050000077268385  0.0  1.0000
