data_image0
_chemical_formula_structural       COGa12Ti4
_chemical_formula_sum              "C1 O1 Ga12 Ti4"
_cell_length_a       5.205842971801758
_cell_length_b       5.2058431366663624
_cell_length_c       102.54830169677734
_cell_angle_alpha    90.0
_cell_angle_beta     90.0
_cell_angle_gamma    117.1983438351631

_space_group_name_H-M_alt    "P 1"
_space_group_IT_number       1

loop_
  _space_group_symop_operation_xyz
  'x, y, z'

loop_
  _atom_site_type_symbol
  _atom_site_label
  _atom_site_symmetry_multiplicity
  _atom_site_fract_x
  _atom_site_fract_y
  _atom_site_fract_z
  _atom_site_occupancy
  C   C1        1.0  0.007500013571752355  0.0075000095903338905  0.0001516145243534976  1.0000
  O   O1        1.0  0.007500013571752355  0.0075000095903338905  0.0002686327891140166  1.0000
  Ga  Ga1       1.0  4.563928747392879e-09  0.005000001029834512  0.9990614153111836  1.0000
  Ga  Ga2       1.0  0.005000004750432011  1.2499999656994697e-09  0.9993259111613901  1.0000
  Ga  Ga3       1.0  0.005000004750432011  1.2499999656994697e-09  0.9990614153111836  1.0000
  Ga  Ga4       1.0  4.563928747392879e-09  0.005000001029834512  0.9993259111613901  1.0000
  Ga  Ga5       1.0  0.005000004628332558  0.005000001029834512  0.9994581589411847  1.0000
  Ga  Ga6       1.0  4.599999912036275e-09  1.2499999656994697e-09  0.9991936633815957  1.0000
  Ga  Ga7       1.0  4.563928747392879e-09  0.005000001029834512  0.9995904067209792  1.0000
  Ga  Ga8       1.0  0.005000009707497099  5.050000087775376e-09  0.9998734721521744  1.0000
  Ga  Ga9       1.0  0.005000004750432011  1.2499999656994697e-09  0.9995904067209792  1.0000
  Ga  Ga10      1.0  7.863657442098249e-09  0.00500000746630021  0.9998734704084699  1.0000
  Ga  Ga11      1.0  0.0050000151088959235  0.005000009477695741  0.0  1.0000
  Ga  Ga12      1.0  0.009999995620535943  0.009999998841436174  0.9997160383046959  1.0000
  Ti  Ti1       1.0  0.005000004628332558  0.005000001029834512  0.9991936633815957  1.0000
  Ti  Ti2       1.0  4.599999912036275e-09  1.2499999656994697e-09  0.9994581589411847  1.0000
  Ti  Ti3       1.0  0.0050000013733440705  0.004999998213880768  0.9997136790725181  1.0000
  Ti  Ti4       1.0  1.220000017562281e-08  9.649999685326283e-09  0.9999654269898003  1.0000
