data_image0
_chemical_formula_structural       HGa2Ni4Ga2Ni4Ga2Ni4Ga2Ni4
_chemical_formula_sum              "H1 Ga8 Ni16"
_cell_length_a       5.074714183807373
_cell_length_b       8.17378214746801
_cell_length_c       102.69512939453125
_cell_angle_alpha    59.99999918587528
_cell_angle_beta     90.0
_cell_angle_gamma    90.0

_space_group_name_H-M_alt    "P 1"
_space_group_IT_number       1

loop_
  _space_group_symop_operation_xyz
  'x, y, z'

loop_
  _atom_site_type_symbol
  _atom_site_label
  _atom_site_symmetry_multiplicity
  _atom_site_fract_x
  _atom_site_fract_y
  _atom_site_fract_z
  _atom_site_occupancy
  H   H1        1.0  0.008751227660565282  0.002165273634860785  0.9999138300154986  1.0000
  Ga  Ga1       1.0  0.003751391421070737  0.003333119847716245  0.9997763315919115  1.0000
  Ga  Ga2       1.0  0.008745401198615319  0.0016868741070716455  0.9996407043176283  1.0000
  Ni  Ni1       1.0  0.0012580843205632127  0.009996707418790125  0.9995112913994165  1.0000
  Ni  Ni2       1.0  0.0037467450066934796  0.0016275343046746821  0.9996498043133736  1.0000
  Ni  Ni3       1.0  0.008751227660565282  0.003388697364759561  0.9997677667095184  1.0000
  Ni  Ni4       1.0  0.00624004164643714  0.009996816882400918  0.9995112806587225  1.0000
  Ga  Ga3       1.0  0.00374877219261698  0.003336516640388664  0.9993777909827591  1.0000
  Ga  Ga4       1.0  0.008748772133889885  0.0016698501473902257  0.999245136642852  1.0000
  Ni  Ni5       1.0  0.0012487723137416143  3.1833501434705865e-06  0.9991124820248508  1.0000
  Ni  Ni6       1.0  0.00374877219261698  0.0016698501473902257  0.999245136642852  1.0000
  Ni  Ni7       1.0  0.008748772133889885  0.003336516640388664  0.9993777909827591  1.0000
  Ni  Ni8       1.0  0.006248772163253432  3.1833501434705865e-06  0.9991124820248508  1.0000
  Ga  Ga5       1.0  0.003751391421070737  0.008333119984545759  0.9997763320043569  1.0000
  Ga  Ga6       1.0  0.008745401198615319  0.006686874112334319  0.9996407047353096  1.0000
  Ni  Ni9       1.0  0.0012580843205632127  0.004996707018826933  0.9995112915778467  1.0000
  Ni  Ni10      1.0  0.0037467450066934796  0.006627534309937355  0.9996498041506511  1.0000
  Ni  Ni11      1.0  0.008751227660565282  0.008388697501589075  0.9997677665415601  1.0000
  Ni  Ni12      1.0  0.00624004164643714  0.004996817008705085  0.9995112802358054  1.0000
  Ga  Ga7       1.0  0.00374877219261698  0.008336517040351857  0.9993777913847328  1.0000
  Ga  Ga8       1.0  0.008748772133889885  0.0066698504157865785  0.9992451364696577  1.0000
  Ni  Ni13      1.0  0.0012487723137416143  0.005003183264953941  0.9991124821559298  1.0000
  Ni  Ni14      1.0  0.00374877219261698  0.0066698504157865785  0.9992451364696577  1.0000
  Ni  Ni15      1.0  0.008748772133889885  0.008336517040351857  0.9993777913847328  1.0000
  Ni  Ni16      1.0  0.006248772163253432  0.005003183264953941  0.9991124821559298  1.0000
