data_image0
_chemical_formula_structural       COSi20V24
_chemical_formula_sum              "C1 O1 Si20 V24"
_cell_length_a       9.158750163823388
_cell_length_b       4.857553005218506
_cell_length_c       104.01979064941406
_cell_angle_alpha    90.0
_cell_angle_beta     87.2285204629254
_cell_angle_gamma    105.37803236885547

_space_group_name_H-M_alt    "P 1"
_space_group_IT_number       1

loop_
  _space_group_symop_operation_xyz
  'x, y, z'

loop_
  _atom_site_type_symbol
  _atom_site_label
  _atom_site_symmetry_multiplicity
  _atom_site_fract_x
  _atom_site_fract_y
  _atom_site_fract_z
  _atom_site_occupancy
  C   C1        1.0  0.006892606413364306  0.0034447536246460173  0.00013364054747594885  1.0000
  O   O1        1.0  0.006892606413364306  0.0034447536246460173  0.00024900344374575274  1.0000
  Si  Si1       1.0  0.00967595658518773  0.007336428841819365  0.9995300568276195  1.0000
  Si  Si2       1.0  0.00967595658518773  0.002336428864826568  0.9995300568276195  1.0000
  Si  Si3       1.0  0.003062411685106557  0.001529656314440275  0.9999119772306277  1.0000
  Si  Si4       1.0  0.00228950198705807  0.006143201243660894  0.9998022387657333  1.0000
  Si  Si5       1.0  0.003907222322106989  0.0019520616320043251  0.999537699903366  1.0000
  Si  Si6       1.0  0.005444691659240863  0.00772079607975229  0.9995224136166275  1.0000
  Si  Si7       1.0  0.009058307340316563  0.009527604303743525  0.999839865225057  1.0000
  Si  Si8       1.0  0.006293606576829308  0.008145253538546513  0.999874350902054  1.0000
  Si  Si9       1.0  0.007015256272817384  0.00350607860417656  0.9997563425808889  1.0000
  Si  Si10      1.0  0.008336657644328485  0.004166779288621479  0.9999578735462221  1.0000
  Si  Si11      1.0  0.003675956649389711  0.009336428467459766  0.9988759545070085  1.0000
  Si  Si12      1.0  0.003675956649389711  0.004336428873920356  0.9988759545070085  1.0000
  Si  Si13      1.0  0.0070624117830990546  0.0035296563593173952  0.9992578747551594  1.0000
  Si  Si14      1.0  0.006289501873859841  0.00814320118706178  0.9991481365776704  1.0000
  Si  Si15      1.0  0.007907222420099485  0.003952061676975062  0.9988835980009103  1.0000
  Si  Si16      1.0  0.009444691757233361  0.00972079612874854  0.9988683111411593  1.0000
  Si  Si17      1.0  0.0030583069821370898  0.0015276040129467785  0.9991857629062441  1.0000
  Si  Si18      1.0  0.0002936065618347661  0.0001452537056216386  0.9992202482952738  1.0000
  Si  Si19      1.0  0.0010152562314240015  0.00550607836584386  0.9991022402607274  1.0000
  Si  Si20      1.0  0.002336657286149013  0.006166778893206366  0.999303770940903  1.0000
  V   V1        1.0  0.004639322157647194  0.009818111221588507  0.999732966339736  1.0000
  V   V2        1.0  0.0007125916729104783  0.0028547461939540464  0.9999812496559508  1.0000
  V   V3        1.0  0.0007125916729104783  0.007854745979220151  0.9999812496559508  1.0000
  V   V4        1.0  0.004639322157647194  0.0048181114363224035  0.999732966339736  1.0000
  V   V5        1.0  0.0015168538487249405  0.0007568773978409481  0.9996982201445168  1.0000
  V   V6        1.0  0.007835060238218275  0.008915980369240996  0.9993618939480399  1.0000
  V   V7        1.0  0.006926042974021743  0.003461471954872356  0.9995105413067567  1.0000
  V   V8        1.0  0.0024258707961353813  0.006211385648199549  0.9995495722141361  1.0000
  V   V9        1.0  0.005645520102005188  0.0028212104701834735  0.999975965014431  1.0000
  V   V10       1.0  0.009706393392759227  0.004851647161432601  0.9997382511144782  1.0000
  V   V11       1.0  0.0017312750546541328  0.0008640880005246945  0.9994071308603335  1.0000
  V   V12       1.0  0.007620639137884445  0.008808769819074082  0.999652982658761  1.0000
  V   V13       1.0  0.008639321833258237  0.0018181114888618215  0.9990788638660658  1.0000
  V   V14       1.0  0.0047125918237006575  0.004854746269349135  0.9993271477532703  1.0000
  V   V15       1.0  0.0047125918237006575  0.009854746054615239  0.9993271477532703  1.0000
  V   V16       1.0  0.008639321833258237  0.006818111274127925  0.9990788638660658  1.0000
  V   V17       1.0  0.005516853841122074  0.002756877389920387  0.999044117669498  1.0000
  V   V18       1.0  0.0018350596688480744  0.0009159803075280486  0.9987077913436199  1.0000
  V   V19       1.0  0.000926042827032997  0.005461471663648358  0.9988564389870447  1.0000
  V   V20       1.0  0.0064258706829371515  0.008211385591600435  0.9988954700260732  1.0000
  V   V21       1.0  0.00964552062237914  0.004821210726251321  0.9993218625371645  1.0000
  V   V22       1.0  0.0037063934569612086  0.006851646978612464  0.9990841487938671  1.0000
  V   V23       1.0  0.005731275363837357  0.0028640881509971786  0.9987530289569786  1.0000
  V   V24       1.0  0.0016206385685142456  0.0008087697076507466  0.9989988803408473  1.0000
