data_image0
_chemical_formula_structural       COCu12Si4Cu12Si4
_chemical_formula_sum              "C1 O1 Cu24 Si8"
_cell_length_a       5.235018253326416
_cell_length_b       11.281699926011727
_cell_length_c       103.61436462402344
_cell_angle_alpha    68.1336104573853
_cell_angle_beta     90.0
_cell_angle_gamma    62.3527026910511

_space_group_name_H-M_alt    "P 1"
_space_group_IT_number       1

loop_
  _space_group_symop_operation_xyz
  'x, y, z'

loop_
  _atom_site_type_symbol
  _atom_site_label
  _atom_site_symmetry_multiplicity
  _atom_site_fract_x
  _atom_site_fract_y
  _atom_site_fract_z
  _atom_site_occupancy
  C   C1        1.0  0.00874048898922095  0.00589720507075685  0.999733903839595  1.0000
  O   O1        1.0  0.00874048898922095  0.00589720507075685  0.9998497181319689  1.0000
  Cu  Cu1       1.0  0.00297144979387446  0.004182818967735027  0.9992316258017653  1.0000
  Cu  Cu2       1.0  0.0029714494611086674  0.009182818901999332  0.9990288645793629  1.0000
  Cu  Cu3       1.0  0.007939857268024807  0.0016986149799671784  0.9993323658505412  1.0000
  Cu  Cu4       1.0  0.00793985774958084  0.00669861481151946  0.9991296046323039  1.0000
  Cu  Cu5       1.0  0.007939856766639457  0.004182818967735027  0.9992316258017653  1.0000
  Cu  Cu6       1.0  0.007939857857093266  0.009182818901999332  0.9990288645793629  1.0000
  Cu  Cu7       1.0  0.006262659835978288  0.0008600162968976854  0.9991636117537674  1.0000
  Cu  Cu8       1.0  0.006262659811348565  0.00586001592302592  0.9989608505438606  1.0000
  Cu  Cu9       1.0  0.0012942522114470854  0.0033442200792414877  0.9990628717133221  1.0000
  Cu  Cu10      1.0  0.001294252645334285  0.0083442196026577  0.9992656328196556  1.0000
  Cu  Cu11      1.0  0.0012942519737010388  0.0008600162968976854  0.9991636117537674  1.0000
  Cu  Cu12      1.0  0.001294252126973766  0.00586001592302592  0.9989608505438606  1.0000
  Si  Si1       1.0  0.006283721515840963  0.003354750732151023  0.9990624446717051  1.0000
  Si  Si2       1.0  0.006283722100109017  0.008354750460991281  0.9992652057697083  1.0000
  Si  Si3       1.0  0.0029503879636309303  0.001688084327057643  0.999332792892158  1.0000
  Si  Si4       1.0  0.0029503882948061074  0.0066880839531858775  0.9991300316822512  1.0000
  Cu  Cu13      1.0  0.0028829495974138143  0.004244847991201304  0.9996367818490453  1.0000
  Cu  Cu14      1.0  0.0029714494611086674  0.009182818901999332  0.9994343868914382  1.0000
  Cu  Cu15      1.0  0.007822899951243547  0.0018138039463924881  0.9997348110220546  1.0000
  Cu  Cu16      1.0  0.007937339717630297  0.006700354342347502  0.9995496644190119  1.0000
  Cu  Cu17      1.0  0.007905096284127283  0.00424502054740059  0.9996367949854167  1.0000
  Cu  Cu18      1.0  0.007939857857093266  0.009182818901999332  0.9994343868914382  1.0000
  Cu  Cu19      1.0  0.006280246197394994  0.0008183640036146218  0.9995809183036505  1.0000
  Cu  Cu20      1.0  0.006262659811348565  0.00586001592302592  0.9993663728559359  1.0000
  Cu  Cu21      1.0  0.0012595114549280803  0.0033792241313869327  0.9994606985042964  1.0000
  Cu  Cu22      1.0  0.0013139964202686435  0.008322398638713676  0.9996625080513017  1.0000
  Cu  Cu23      1.0  0.0013624492039302036  0.000817181017885289  0.9995809064498944  1.0000
  Cu  Cu24      1.0  0.001294252126973766  0.00586001592302592  0.9993663728559359  1.0000
  Si  Si5       1.0  0.00631134820479397  0.0033291727678156353  0.9994745600370405  1.0000
  Si  Si6       1.0  0.00618314982162104  0.00845718146427996  0.9996628564038559  1.0000
  Si  Si7       1.0  0.0027407837105533953  0.001896502326596599  0.9997232709681929  1.0000
  Si  Si8       1.0  0.0030590233812292397  0.0065800366564585265  0.9995431322448514  1.0000
