data_image0
_chemical_formula_structural       Re4Si4Re4Si4H
_chemical_formula_sum              "Re8 Si8 H1"
_cell_length_a       4.817500114440918
_cell_length_b       4.817500114440918
_cell_length_c       103.72250366210938
_cell_angle_alpha    90.0
_cell_angle_beta     90.0
_cell_angle_gamma    90.0

_space_group_name_H-M_alt    "P 1"
_space_group_IT_number       1

loop_
  _space_group_symop_operation_xyz
  'x, y, z'

loop_
  _atom_site_type_symbol
  _atom_site_label
  _atom_site_symmetry_multiplicity
  _atom_site_fract_x
  _atom_site_fract_y
  _atom_site_fract_z
  _atom_site_occupancy
  Re  Re1       1.0  0.006323018394605381  0.0035279607949298382  0.9995662809396036  1.0000
  Re  Re2       1.0  0.003641416083838215  0.008527960640273264  0.9994586006681554  1.0000
  Re  Re3       1.0  0.008641415929181643  0.0062095631056970045  0.9993340511148452  1.0000
  Re  Re4       1.0  0.001323018549261954  0.0012095631636932188  0.9992263705560696  1.0000
  Si  Si1       1.0  0.003425219726779986  0.006425759462755233  0.9992364120757594  1.0000
  Si  Si2       1.0  0.0065392147516636105  0.0014257597140721646  0.9993240095951553  1.0000
  Si  Si3       1.0  0.0015392150029805416  0.003311764437871609  0.9994686421878453  1.0000
  Si  Si4       1.0  0.008425219958764846  0.008311763896573603  0.9995562399945687  1.0000
  Re  Re5       1.0  0.006478901007915447  0.003735089250452587  0.0  1.0000
  Re  Re6       1.0  0.003446812877547627  0.008342668919621144  0.9999250150063081  1.0000
  Re  Re7       1.0  0.008676981528066332  0.006079797347924336  0.9998032691942459  1.0000
  Re  Re8       1.0  0.001323018549261954  0.0012095631636932188  0.9996908310675687  1.0000
  Si  Si5       1.0  0.003425219726779986  0.006425759462755233  0.9997008725872586  1.0000
  Si  Si6       1.0  0.006484213074567729  0.0011797043923642216  0.9997865950077219  1.0000
  Si  Si7       1.0  0.0014877465519626291  0.003152130049413394  0.9999616245459031  1.0000
  Si  Si8       1.0  0.00842379634500739  0.008820295588303707  2.7685149027047654e-05  1.0000
  H   H1        1.0  0.007451349063102851  0.006277692419378147  0.00015845878953883144  1.0000
