data_image0
_chemical_formula_structural       COAl26Os8Al26Os8
_chemical_formula_sum              "C1 O1 Al52 Os16"
_cell_length_a       19.73282181610676
_cell_length_b       7.856115341186523
_cell_length_c       104.09574890136719
_cell_angle_alpha    90.0
_cell_angle_beta     115.59248602682449
_cell_angle_gamma    66.8659230424825

_space_group_name_H-M_alt    "P 1"
_space_group_IT_number       1

loop_
  _space_group_symop_operation_xyz
  'x, y, z'

loop_
  _atom_site_type_symbol
  _atom_site_label
  _atom_site_symmetry_multiplicity
  _atom_site_fract_x
  _atom_site_fract_y
  _atom_site_fract_z
  _atom_site_occupancy
  C   C1        1.0  0.009221127312474313  0.008459688410026846  0.000307350580839651  1.0000
  O   O1        1.0  0.009221127312474313  0.008459688410026846  0.00042262901096788724  1.0000
  Al  Al1       1.0  0.009149333167813578  0.006479480529381958  0.00010976649431591564  1.0000
  Al  Al2       1.0  0.008238810174398807  0.004209836160803249  8.899762787907657e-05  1.0000
  Al  Al3       1.0  0.00639172995004284  0.006960155375650288  0.9999246953067208  1.0000
  Al  Al4       1.0  0.006362607472249594  0.0013571927956743449  0.9999213549366447  1.0000
  Al  Al5       1.0  0.006715082658871581  0.0036757000023397196  0.00012783978380029036  1.0000
  Al  Al6       1.0  0.007944180890630039  0.0009863312966107078  6.356623286419797e-05  1.0000
  Al  Al7       1.0  0.006231700967168389  0.009339997091310582  0.00010972838299178  1.0000
  Al  Al8       1.0  0.009539083042378932  0.008670627706712139  0.9999669676448282  1.0000
  Al  Al9       1.0  0.005467442427908715  0.005085122047065645  0.9998461465463054  1.0000
  Al  Al10      1.0  0.009593471418403304  0.0031140149691775277  0.9999831076324674  1.0000
  Al  Al11      1.0  0.008057605816357487  0.008934703320869375  0.9998535298192714  1.0000
  Al  Al12      1.0  0.007550716756008838  0.005934046083806944  0.9998120229318507  1.0000
  Al  Al13      1.0  0.009574161545000022  0.0005934036391486995  0.00018321222374347704  1.0000
  Al  Al14      1.0  0.0041617953707293286  0.006562573348249301  0.9999546343554635  1.0000
  Al  Al15      1.0  0.003384168099808592  0.0042361975361344785  0.9998802704470573  1.0000
  Al  Al16      1.0  0.0009450961687693094  0.00892773371802905  0.00012156480248071915  1.0000
  Al  Al17      1.0  0.0016398655812541465  0.0012792912717424498  0.00013428128833439226  1.0000
  Al  Al18      1.0  0.0017713424108273972  0.0035815514580734894  0.9999376456257176  1.0000
  Al  Al19      1.0  0.002877278806911729  0.0012355410027493031  0.9998387635405943  1.0000
  Al  Al20      1.0  0.0013100559387470537  0.009380461365552234  0.9999045155266745  1.0000
  Al  Al21      1.0  0.004571479743197716  0.008750564440935442  0.0001647141608552964  1.0000
  Al  Al22      1.0  0.0005901300419652412  0.004914827992754031  6.236886171972292e-05  1.0000
  Al  Al23      1.0  0.004604480194988663  0.0030401228362723427  0.0001726808539459496  1.0000
  Al  Al24      1.0  0.0029126770633255052  0.009406596156806163  5.8759602007989836e-05  1.0000
  Al  Al25      1.0  0.002618107079351017  0.00578168226237642  3.369780543350757e-05  1.0000
  Al  Al26      1.0  0.004573927080589885  0.00081789279732072  0.9999719662761365  1.0000
  Os  Os1       1.0  0.005470644616799837  0.007100486798188939  4.3660092620477164e-05  1.0000
  Os  Os2       1.0  0.008409427077404904  0.002169541632654769  0.9998823388952939  1.0000
  Os  Os3       1.0  0.00038466264986076576  0.003127749715068571  0.9998393682622202  1.0000
  Os  Os4       1.0  0.007538272636042119  0.007965071229374697  9.76148124050523e-06  1.0000
  Os  Os5       1.0  0.0005502218617853083  0.007042495183410123  0.9998529251686684  1.0000
  Os  Os6       1.0  0.0034158581424200566  0.0021535261222575893  7.927903119221286e-05  1.0000
  Os  Os7       1.0  0.005364873317854131  0.003115171779118126  3.4457277745478925e-05  1.0000
  Os  Os8       1.0  0.0025254570807678864  0.008000704098318418  0.9998099544264872  1.0000
  Al  Al27      1.0  0.009166612430222142  0.006642680596459622  0.9997396274748802  1.0000
  Al  Al28      1.0  0.008384167690523737  0.004236198300416579  0.9996755565602282  1.0000
  Al  Al29      1.0  0.00635098331728143  0.007075289592496862  0.9995090681478966  1.0000
  Al  Al30      1.0  0.006343330155596112  0.0014173817529154606  0.9995084414645741  1.0000
  Al  Al31      1.0  0.006768272481406859  0.0035275633287891275  0.9997479520552834  1.0000
  Al  Al32      1.0  0.007877278630175087  0.001235541063354149  0.9996340496728076  1.0000
  Al  Al33      1.0  0.006319547449866624  0.009393145446237967  0.9997112079611138  1.0000
  Al  Al34      1.0  0.009591554290936463  0.008752862631308063  0.9995697101147418  1.0000
  Al  Al35      1.0  0.005467442427908715  0.005085122047065645  0.9994367189198395  1.0000
  Al  Al36      1.0  0.009583901594347572  0.0030949543327518886  0.999569083469504  1.0000
  Al  Al37      1.0  0.008057605816357487  0.008934703320869375  0.9994441019065083  1.0000
  Al  Al38      1.0  0.007550716756008838  0.005934046083806944  0.9994025950190877  1.0000
  Al  Al39      1.0  0.009615337461762376  0.0007770994273905197  0.9997763715690499  1.0000
  Al  Al40      1.0  0.004166611909314145  0.006642681224316937  0.999534913659074  1.0000
  Al  Al41      1.0  0.003384168099808592  0.0042361975361344785  0.9994708428205915  1.0000
  Al  Al42      1.0  0.001350983145195752  0.007075289876123097  0.9997137819871198  1.0000
  Al  Al43      1.0  0.0013433299835104342  0.0014173822736366288  0.9997131553037973  1.0000
  Al  Al44      1.0  0.0017682724255952877  0.0035275634976716687  0.9995432379912648  1.0000
  Al  Al45      1.0  0.002877278806911729  0.0012355410027493031  0.9994293359141284  1.0000
  Al  Al46      1.0  0.00131954716150684  0.009393145844607893  0.9995064938780528  1.0000
  Al  Al47      1.0  0.004591554700221318  0.00875286234121583  0.9997744240015709  1.0000
  Al  Al48      1.0  0.00046744225582303706  0.00508512233069188  0.9996414327590628  1.0000
  Al  Al49      1.0  0.004583901538536  0.003094954501634429  0.9997737973182483  1.0000
  Al  Al50      1.0  0.003057605993094129  0.008934703260264529  0.9996488157742951  1.0000
  Al  Al51      1.0  0.0025507164676490538  0.0059340464821768715  0.9996073088487897  1.0000
  Al  Al52      1.0  0.004615337405950806  0.0007770991220831936  0.9995716577913283  1.0000
  Os  Os9       1.0  0.005550222150145092  0.007042494785040195  0.9996482113389664  1.0000
  Os  Os10      1.0  0.008409427077404904  0.002169541632654769  0.9994729109825308  1.0000
  Os  Os11      1.0  0.00038466264986076576  0.003127749715068571  0.9994299403494571  1.0000
  Os  Os12      1.0  0.00752545736912767  0.008000703699948491  0.9996052405967851  1.0000
  Os  Os13      1.0  0.0005502218617853083  0.007042495183410123  0.9994434972559054  1.0000
  Os  Os14      1.0  0.003409427486689759  0.002169540868372668  0.9996776248693598  1.0000
  Os  Os15      1.0  0.005384662705672337  0.0031277493090910956  0.9996346544134758  1.0000
  Os  Os16      1.0  0.0025254570807678864  0.008000704098318418  0.9994005268000213  1.0000
