data_image0
_chemical_formula_structural       COCa5Al10Si10
_chemical_formula_sum              "C1 O1 Ca5 Al10 Si10"
_cell_length_a       7.247246246657137
_cell_length_b       8.289684622772718
_cell_length_c       110.73993682861328
_cell_angle_alpha    72.81184093617411
_cell_angle_beta     69.15869005006351
_cell_angle_gamma    90.000000498857

_space_group_name_H-M_alt    "P 1"
_space_group_IT_number       1

loop_
  _space_group_symop_operation_xyz
  'x, y, z'

loop_
  _atom_site_type_symbol
  _atom_site_label
  _atom_site_symmetry_multiplicity
  _atom_site_fract_x
  _atom_site_fract_y
  _atom_site_fract_z
  _atom_site_occupancy
  C   C1        1.0  0.0070722614752331305  0.005040310784171774  0.9998542700093396  1.0000
  O   O1        1.0  0.0070722614752331305  0.005040310784171774  0.9999626322195986  1.0000
  Ca  Ca1       1.0  0.00022840538720619288  0.00020532854909791802  0.9997483107882091  1.0000
  Ca  Ca2       1.0  0.0019999999982448285  0.004015073292141936  0.9993995185418906  1.0000
  Ca  Ca3       1.0  0.005925266332684417  0.002023524718173376  0.9995848651344904  1.0000
  Ca  Ca4       1.0  0.003999999713059332  0.008015072738868997  0.9990316301772426  1.0000
  Ca  Ca5       1.0  0.00799999999315615  0.006015073015505466  0.9992155743456003  1.0000
  Al  Al1       1.0  0.003406800454261173  0.009794671355571449  0.9994473195092559  1.0000
  Al  Al2       1.0  0.005406800371694189  0.00379467147494198  0.9990794309958331  1.0000
  Al  Al3       1.0  0.0094068006028745  0.0017946713963090115  0.9992633751731885  1.0000
  Al  Al4       1.0  0.0076002321681491476  0.007593024488648476  0.9996385965813213  1.0000
  Al  Al5       1.0  0.0008383239258455879  0.006328146865649687  0.9997363446561565  1.0000
  Al  Al6       1.0  0.004593199377309655  0.006235475069551713  0.9995356618920624  1.0000
  Al  Al7       1.0  0.0065931989993526525  0.00023547504089331235  0.9991677733887919  1.0000
  Al  Al8       1.0  0.0005931994030669707  0.008235475266607829  0.9993517177061049  1.0000
  Al  Al9       1.0  0.008462355389866297  0.0038803970429850325  0.9997171266770885  1.0000
  Al  Al10      1.0  0.002593199289653993  0.0022354749122857754  0.9989838292038787  1.0000
  Si  Si1       1.0  0.004138971150502548  0.007598159316261361  0.9993126408664912  1.0000
  Si  Si2       1.0  0.006138971310332699  0.0015981591987856006  0.9989447523526638  1.0000
  Si  Si3       1.0  0.00013897128291794016  0.009598159039624892  0.9991286966885289  1.0000
  Si  Si4       1.0  0.008138971365377355  0.0055981591192052465  0.999496585046846  1.0000
  Si  Si5       1.0  0.002070581894309087  0.0036772760049498068  0.9996964874309036  1.0000
  Si  Si6       1.0  0.003860452636904622  0.008338968569792183  0.9996807037430172  1.0000
  Si  Si7       1.0  0.005861028598501296  0.0024319872282323324  0.9993024520214042  1.0000
  Si  Si8       1.0  0.009861028291894454  0.0004319872384167232  0.9994863962093167  1.0000
  Si  Si9       1.0  0.007861028620934947  0.006431986911805686  0.9989345636443544  1.0000
  Si  Si10      1.0  0.0018610286260236242  0.004431987188442155  0.9991185078406448  1.0000
