data_image0
_chemical_formula_structural       COAl6Ge6Ru12
_chemical_formula_sum              "C1 O1 Al6 Ge6 Ru12"
_cell_length_a       7.413355116871564
_cell_length_b       6.052978992462158
_cell_length_c       102.5962905883789
_cell_angle_alpha    90.0
_cell_angle_beta     85.6522469852413
_cell_angle_gamma    114.09484207093789

_space_group_name_H-M_alt    "P 1"
_space_group_IT_number       1

loop_
  _space_group_symop_operation_xyz
  'x, y, z'

loop_
  _atom_site_type_symbol
  _atom_site_label
  _atom_site_symmetry_multiplicity
  _atom_site_fract_x
  _atom_site_fract_y
  _atom_site_fract_z
  _atom_site_occupancy
  C   C1        1.0  0.0022064619565251974  0.002558885829037968  0.0001230546578376699  1.0000
  O   O1        1.0  0.0022064619565251974  0.002558885829037968  0.00024001818790173163  1.0000
  Al  Al1       1.0  0.003541666696126984  0.0019791666460085983  0.9995354643711217  1.0000
  Al  Al2       1.0  0.005238277168180962  0.007826500741396557  0.9997994968535492  1.0000
  Al  Al3       1.0  0.0018749999668571428  0.006145833316761904  0.9992707025850167  1.0000
  Al  Al4       1.0  0.009374999558095239  0.004895833134690921  0.9996678450374474  1.0000
  Al  Al5       1.0  0.0009776471690449745  0.000694580542640532  0.9999285606596734  1.0000
  Al  Al6       1.0  0.007708333105015873  0.009062499885841268  0.9994030835403109  1.0000
  Ge  Ge1       1.0  0.003541666696126984  0.0069791666813968254  0.9995354643711217  1.0000
  Ge  Ge2       1.0  0.0052406540634132625  0.0028241063264744927  0.9997996040926554  1.0000
  Ge  Ge3       1.0  0.0018749999668571428  0.0011458333390718736  0.9992707025850167  1.0000
  Ge  Ge4       1.0  0.009374999558095239  0.009895833112380951  0.9996678450374474  1.0000
  Ge  Ge5       1.0  0.000986708011880026  0.005700354280163689  0.9999306460648035  1.0000
  Ge  Ge6       1.0  0.007708333105015873  0.004062499811987579  0.9994030835403109  1.0000
  Ru  Ru1       1.0  0.004791666674031745  0.0001041665595686707  0.9993368929166666  1.0000
  Ru  Ru2       1.0  0.006458333127111111  0.005937499859962043  0.9996016547042846  1.0000
  Ru  Ru3       1.0  0.008144177694429433  0.0018027478864790407  0.9998630847691775  1.0000
  Ru  Ru4       1.0  0.008140093942058437  0.006751990805278061  0.9998630699576471  1.0000
  Ru  Ru5       1.0  0.004791666674031745  0.00510416663342236  0.9993368929166666  1.0000
  Ru  Ru6       1.0  0.006458333127111111  0.0009374997861083534  0.9996016547042846  1.0000
  Ru  Ru7       1.0  0.003861841609632081  0.00463647350978327  0.999978734526322  1.0000
  Ru  Ru8       1.0  0.0006249999889523809  0.0030208332908826787  0.9994692737489903  1.0000
  Ru  Ru9       1.0  0.002297903789635587  0.008852138586036184  0.9997275337993177  1.0000
  Ru  Ru10      1.0  0.002298596337252946  0.0038597618362739955  0.9997275799684746  1.0000
  Ru  Ru11      1.0  0.003859548123923387  0.009636255243214245  0.9999788580535712  1.0000
  Ru  Ru12      1.0  0.0006249999889523809  0.008020833672460077  0.9994692737489903  1.0000
