data_image0
_chemical_formula_structural       COSi4Pt12
_chemical_formula_sum              "C1 O1 Si4 Pt12"
_cell_length_a       7.792972087860107
_cell_length_b       5.465289939714834
_cell_length_c       101.7491455078125
_cell_angle_alpha    90.0
_cell_angle_beta     90.0
_cell_angle_gamma    133.24271991379297

_space_group_name_H-M_alt    "P 1"
_space_group_IT_number       1

loop_
  _space_group_symop_operation_xyz
  'x, y, z'

loop_
  _atom_site_type_symbol
  _atom_site_label
  _atom_site_symmetry_multiplicity
  _atom_site_fract_x
  _atom_site_fract_y
  _atom_site_fract_z
  _atom_site_occupancy
  C   C1        1.0  0.0010730701308145152  0.005000000243285223  7.184836437904381e-06  1.0000
  O   O1        1.0  0.0010730701308145152  0.005000000243285223  0.00012512159801128696  1.0000
  Si  Si1       1.0  0.008222914699841589  0.009269614268509155  0.9998394468775607  1.0000
  Si  Si2       1.0  0.003923229125297005  0.0007303903118030252  0.9998394468775607  1.0000
  Si  Si3       1.0  0.0032192097038435475  0.009264102922494806  0.99944589035885  1.0000
  Si  Si4       1.0  0.008926930009661936  0.0007358993185363817  0.99944589035885  1.0000
  Pt  Pt1       1.0  0.006073069944605069  0.005000001178997619  0.999659724037421  1.0000
  Pt  Pt2       1.0  0.0060730683284107  0.004999999307572826  0.0  1.0000
  Pt  Pt3       1.0  0.00607307011722677  1.1999999756212538e-09  0.999589792703392  1.0000
  Pt  Pt4       1.0  0.00607307011722677  1.1999999756212538e-09  0.999301988014308  1.0000
  Pt  Pt5       1.0  0.008233317406696333  0.003527052785317873  0.9998369572277555  1.0000
  Pt  Pt6       1.0  0.00391282342151218  0.0064729481691087705  0.9998369572277555  1.0000
  Pt  Pt7       1.0  0.001073069863339623  0.005000001178997619  0.9992696823184354  1.0000
  Pt  Pt8       1.0  0.001073069863339623  0.005000001178997619  0.9996220986921646  1.0000
  Pt  Pt9       1.0  0.0010730705006144208  0.009999998615145653  0.999973910813241  1.0000
  Pt  Pt10      1.0  0.0010730699164533154  1.1999999756212538e-09  0.9996920297332936  1.0000
  Pt  Pt11      1.0  0.0032394045070430924  0.003629792368937534  0.99944589035885  1.0000
  Pt  Pt12      1.0  0.008906735494560334  0.006370210222985803  0.99944589035885  1.0000
