data_image0
_chemical_formula_structural       HPt8Ti24
_chemical_formula_sum              "H1 Pt8 Ti24"
_cell_length_a       8.765336808511046
_cell_length_b       7.156867504119873
_cell_length_c       103.18502807617188
_cell_angle_alpha    90.0
_cell_angle_beta     84.94884764543599
_cell_angle_gamma    90.0

_space_group_name_H-M_alt    "P 1"
_space_group_IT_number       1

loop_
  _space_group_symop_operation_xyz
  'x, y, z'

loop_
  _atom_site_type_symbol
  _atom_site_label
  _atom_site_symmetry_multiplicity
  _atom_site_fract_x
  _atom_site_fract_y
  _atom_site_fract_z
  _atom_site_occupancy
  H   H1        1.0  0.007271587958531267  0.00953491363604292  0.9999859166150382  1.0000
  Pt  Pt1       1.0  0.005234374778137079  0.0004650861453388188  0.9996692067186128  1.0000
  Pt  Pt2       1.0  0.0021093749488008645  0.005465085905899771  0.9994682022778525  1.0000
  Pt  Pt3       1.0  0.008984374829336214  0.0004650861453388188  0.9992671979547916  1.0000
  Pt  Pt4       1.0  0.008379736930376165  0.00550986829503208  0.9998719477744034  1.0000
  Pt  Pt5       1.0  0.003984374761070701  0.0004650861453388188  0.9992671980419494  1.0000
  Pt  Pt6       1.0  0.0033797475285972435  0.005420293626893767  0.9998719434494225  1.0000
  Pt  Pt7       1.0  0.000234375003199946  0.0004650861453388188  0.9996692065147527  1.0000
  Pt  Pt8       1.0  0.007109374590406915  0.005465085905899771  0.9994682024827098  1.0000
  Ti  Ti1       1.0  0.004153101085907726  0.0018265023444788836  0.9999116838120334  1.0000
  Ti  Ti2       1.0  0.0010156249872002162  0.00671508578097505  0.9997194576247433  1.0000
  Ti  Ti3       1.0  0.0078906247610707  0.0017150861505440154  0.9995184535913044  1.0000
  Ti  Ti4       1.0  0.004765624931734486  0.00671508578097505  0.999317449150544  1.0000
  Ti  Ti5       1.0  0.0025193560806906026  0.009338030194671358  0.9998150549897586  1.0000
  Ti  Ti6       1.0  0.009453125102398272  0.004215086030824491  0.9996189558084935  1.0000
  Ti  Ti7       1.0  0.006328124846402593  0.00921508553112561  0.9994179510821001  1.0000
  Ti  Ti8       1.0  0.0059585293793747275  0.004285293463408949  0.9999928328707396  1.0000
  Ti  Ti9       1.0  0.0056662522870312565  0.00790893876100262  0.9998708430028996  1.0000
  Ti  Ti10      1.0  0.002734374957334054  0.002965086155749212  0.9996692069050083  1.0000
  Ti  Ti11      1.0  0.009609374624539672  0.007965086176569998  0.9994682022947189  1.0000
  Ti  Ti12      1.0  0.006484374795203458  0.002965086155749212  0.9992671978539585  1.0000
  Ti  Ti13      1.0  0.007734374385610373  0.007965086176569998  0.999669206533813  1.0000
  Ti  Ti14      1.0  0.004609374982933622  0.002965086155749212  0.9994682020898615  1.0000
  Ti  Ti15      1.0  0.0014843749402676752  0.007965086176569998  0.9992671979395207  1.0000
  Ti  Ti16      1.0  0.0006663210709366891  0.0030212825001654  0.9998708428639201  1.0000
  Ti  Ti17      1.0  0.007519445534113752  0.0015921828683118885  0.9998150579887817  1.0000
  Ti  Ti18      1.0  0.004453125034132757  0.00671508578097505  0.9996189556068272  1.0000
  Ti  Ti19      1.0  0.0013281249914668107  0.0017150861505440154  0.9994179511676623  1.0000
  Ti  Ti20      1.0  0.0009586029098666933  0.006644972822710368  0.9999928303856666  1.0000
  Ti  Ti21      1.0  0.006015624948800865  0.004215086030824491  0.9997194578272074  1.0000
  Ti  Ti22      1.0  0.002890624906134918  0.00921508553112561  0.9995184533880426  1.0000
  Ti  Ti23      1.0  0.009765625  0.004215086030824491  0.9993174490633862  1.0000
  Ti  Ti24      1.0  0.009153039288551011  0.009103619367302597  0.9999116786999251  1.0000
