data_image0
_chemical_formula_structural       COV6Pd12V6Pd12
_chemical_formula_sum              "C1 O1 V12 Pd24"
_cell_length_a       6.711260638686776
_cell_length_b       10.021934316901676
_cell_length_c       103.01351928710938
_cell_angle_alpha    108.75748161760822
_cell_angle_beta     91.00582639921825
_cell_angle_gamma    63.131439639524125

_space_group_name_H-M_alt    "P 1"
_space_group_IT_number       1

loop_
  _space_group_symop_operation_xyz
  'x, y, z'

loop_
  _atom_site_type_symbol
  _atom_site_label
  _atom_site_symmetry_multiplicity
  _atom_site_fract_x
  _atom_site_fract_y
  _atom_site_fract_z
  _atom_site_occupancy
  C   C1        1.0  0.002425172421155535  0.004759374357950688  0.00020184037904023437  1.0000
  O   O1        1.0  0.002425172421155535  0.004759374357950688  0.00031833017961922197  1.0000
  V   V1        1.0  0.00719401874213807  1.3605650457043765e-05  0.9992583877172737  1.0000
  V   V2        1.0  0.0005273520453999067  1.3605650457043765e-05  0.9995636045535155  1.0000
  V   V3        1.0  0.0038606851682327606  1.3605650457043765e-05  0.9994109961351366  1.0000
  V   V4        1.0  0.0038606850730986014  0.005013605676573403  0.9996399086068274  1.0000
  V   V5        1.0  0.007194018369420861  0.005013605676573403  0.999487300188647  1.0000
  V   V6        1.0  0.0005273520543593917  0.005013605676573403  0.9993346919213495  1.0000
  Pd  Pd1       1.0  0.006114344058930861  0.0016331177903524325  0.9995367304802765  1.0000
  Pd  Pd2       1.0  0.009447676800087021  0.0016331177903524325  0.9993841220614611  1.0000
  Pd  Pd3       1.0  0.002781010485025551  0.0016331177903524325  0.9992315137941636  1.0000
  Pd  Pd4       1.0  0.004940359789342481  0.003394093487123005  0.9993615658423121  1.0000
  Pd  Pd5       1.0  0.008273693085664741  0.003394093487123005  0.9996667825281074  1.0000
  Pd  Pd6       1.0  0.0016070267706032714  0.003394093487123005  0.99951417426081  1.0000
  Pd  Pd7       1.0  0.0027810110603960444  0.006633117643460951  0.9994604262612088  1.0000
  Pd  Pd8       1.0  0.0061143438015522035  0.006633117643460951  0.9993078178423934  1.0000
  Pd  Pd9       1.0  0.009447677653040564  0.006633117643460951  0.9996130345288237  1.0000
  Pd  Pd10      1.0  0.0016070268649952763  0.008394093228950099  0.999285261619848  1.0000
  Pd  Pd11      1.0  0.004940360161317536  0.008394093228950099  0.9995904783056433  1.0000
  Pd  Pd12      1.0  0.008273694012805897  0.008394093228950099  0.9994378701774027  1.0000
  V   V7        1.0  0.00719401874213807  1.3605650457043765e-05  0.9997162125319444  1.0000
  V   V8        1.0  0.0007042358267999733  0.00988831165858423  0.9999928761143214  1.0000
  V   V9        1.0  0.004046367601752807  0.00998639421659643  0.9998615203199169  1.0000
  V   V10       1.0  0.0039731710267663  0.004815487348972055  6.409797850614961e-05  1.0000
  V   V11       1.0  0.007367312560751782  0.004953430913528414  0.9999343319092983  1.0000
  V   V12       1.0  0.0005273520543593917  0.005013605676573403  0.9997925170253252  1.0000
  Pd  Pd13      1.0  0.00624096622488878  0.0016211996609837196  7.764430494877435e-07  1.0000
  Pd  Pd14      1.0  0.00947264804279103  0.001669495799565979  0.9998452436395728  1.0000
  Pd  Pd15      1.0  0.002781010485025551  0.0016331177903524325  0.9996893388981394  1.0000
  Pd  Pd16      1.0  0.004940359789342481  0.003394093487123005  0.9998193906569829  1.0000
  Pd  Pd17      1.0  0.007863519136314473  0.003810517260564535  0.00012820157815112465  1.0000
  Pd  Pd18      1.0  0.00176266882854592  0.0032477684281755426  0.999980310040393  1.0000
  Pd  Pd19      1.0  0.0028089747223595646  0.006716166971165883  0.9999327050727632  1.0000
  Pd  Pd20      1.0  0.0061143438015522035  0.006633117643460951  0.9997656429463692  1.0000
  Pd  Pd21      1.0  0.009422075726810558  0.0065089329143292705  6.707929524888487e-05  1.0000
  Pd  Pd22      1.0  0.0016070268649952763  0.008394093228950099  0.9997430867238237  1.0000
  Pd  Pd23      1.0  0.004802326120264421  0.008594259134777054  4.7630299353299205e-05  1.0000
  Pd  Pd24      1.0  0.008353228259332084  0.008372509973949392  0.9998995035443632  1.0000
