data_image0
_chemical_formula_structural       COMn4V4As4Mn4V4As4
_chemical_formula_sum              "C1 O1 Mn8 V8 As8"
_cell_length_a       6.331636905670166
_cell_length_b       5.069348335266113
_cell_length_c       100.41609191894531
_cell_angle_alpha    90.0
_cell_angle_beta     90.0
_cell_angle_gamma    90.0

_space_group_name_H-M_alt    "P 1"
_space_group_IT_number       1

loop_
  _space_group_symop_operation_xyz
  'x, y, z'

loop_
  _atom_site_type_symbol
  _atom_site_label
  _atom_site_symmetry_multiplicity
  _atom_site_fract_x
  _atom_site_fract_y
  _atom_site_fract_z
  _atom_site_occupancy
  C   C1        1.0  0.008852632808684476  0.0025002622882716657  0.00014323656856716035  1.0000
  O   O1        1.0  0.008852632808684476  0.0025002622882716657  0.0002627389758480225  1.0000
  Mn  Mn1       1.0  0.007757865355439904  0.007500188684121464  0.9991391568950658  1.0000
  Mn  Mn2       1.0  0.007757865355439904  0.00250018843426712  0.9993915738702214  1.0000
  Mn  Mn3       1.0  0.004536869792060869  0.00250018843426712  0.9991391568950658  1.0000
  Mn  Mn4       1.0  0.004536869792060869  0.007500188684121464  0.9993915738702214  1.0000
  V   V1        1.0  0.001147367397241988  0.005000188375477863  0.9992653655310377  1.0000
  V   V2        1.0  0.001147367397241988  1.8824999990026495e-07  0.9995177825061934  1.0000
  V   V3        1.0  0.001147367397241988  0.005000188375477863  0.9995177825061934  1.0000
  V   V4        1.0  0.001147367397241988  1.8824999990026495e-07  0.9992653655310377  1.0000
  As  As1       1.0  0.003928705692626487  0.007500188684121464  0.9991391568950658  1.0000
  As  As2       1.0  0.003928705692626487  0.00250018843426712  0.9993915738702214  1.0000
  As  As3       1.0  0.008366029160693622  0.00250018843426712  0.9991391568950658  1.0000
  As  As4       1.0  0.008366029160693622  0.007500188684121464  0.9993915738702214  1.0000
  Mn  Mn5       1.0  0.007757865355439904  0.007500188684121464  0.9996439911421653  1.0000
  Mn  Mn6       1.0  0.008031875816410178  0.002499773235137088  0.9998889578403324  1.0000
  Mn  Mn7       1.0  0.004536869792060869  0.00250018843426712  0.9996439911421653  1.0000
  Mn  Mn8       1.0  0.004262757838761508  0.007500589920802875  0.999888994642083  1.0000
  V   V5        1.0  0.0011476412058950228  0.005000516860453304  0.9997705333681995  1.0000
  V   V6        1.0  0.0011478508831633016  4.2825003837140385e-07  0.0  1.0000
  V   V7        1.0  0.0011479031002311648  0.005000047648693082  0.999999918086426  1.0000
  V   V8        1.0  0.0011476532673022476  0.00999981237408517  0.9997705790735996  1.0000
  As  As5       1.0  0.003928705692626487  0.007500188684121464  0.9996439911421653  1.0000
  As  As6       1.0  0.004262144177896366  0.002500310789408979  0.9999123293263017  1.0000
  As  As7       1.0  0.008366029160693622  0.00250018843426712  0.9996439911421653  1.0000
  As  As8       1.0  0.00803188111166213  0.007500060817486729  0.9999123411978342  1.0000
