data_image0
_chemical_formula_structural       HSn8Au8Sn8Au8
_chemical_formula_sum              "H1 Sn16 Au16"
_cell_length_a       7.711838245391846
_cell_length_b       12.252536609237486
_cell_length_c       101.16702270507812
_cell_angle_alpha    100.46846250234222
_cell_angle_beta     90.0
_cell_angle_gamma    71.65707008564888

_space_group_name_H-M_alt    "P 1"
_space_group_IT_number       1

loop_
  _space_group_symop_operation_xyz
  'x, y, z'

loop_
  _atom_site_type_symbol
  _atom_site_label
  _atom_site_symmetry_multiplicity
  _atom_site_fract_x
  _atom_site_fract_y
  _atom_site_fract_z
  _atom_site_occupancy
  H   H1        1.0  0.0021481804683519045  0.0072527961577239855  8.833011373349165e-05  1.0000
  Sn  Sn1       1.0  0.004479166613301649  0.00934280779655415  0.9995835798143045  1.0000
  Sn  Sn2       1.0  0.006979166534977025  0.004342807953203398  0.999473553062992  1.0000
  Sn  Sn3       1.0  0.0019791665736219252  0.004342807953203398  0.9996936065489443  1.0000
  Sn  Sn4       1.0  0.009479166574656748  0.00934280779655415  0.9993635263283521  1.0000
  Sn  Sn5       1.0  0.009062499881709403  0.006842807874878774  0.9995285664386483  1.0000
  Sn  Sn6       1.0  0.0015625001222052104  0.0018428080315280211  0.9994185396873357  1.0000
  Sn  Sn7       1.0  0.00656250032509094  0.0018428080315280211  0.9996385931732882  1.0000
  Sn  Sn8       1.0  0.004062500403415563  0.006842807874878774  0.9993085129526958  1.0000
  Au  Au1       1.0  0.006770833084329227  0.00809280816206906  0.9993360196477055  1.0000
  Au  Au2       1.0  0.009270833169180903  0.0030928079923657095  0.9996660998611162  1.0000
  Au  Au3       1.0  0.0042708332078258025  0.0030928079923657095  0.9994460463751639  1.0000
  Au  Au4       1.0  0.0017708331229741275  0.00809280816206906  0.9995560731336579  1.0000
  Au  Au5       1.0  0.008020833045166915  0.005592808240393684  0.9992810062720493  1.0000
  Au  Au6       1.0  0.0005208333680593267  0.0005928081114844074  0.9996110864863577  1.0000
  Au  Au7       1.0  0.005520833148266454  0.0005928081114844074  0.9993910330004053  1.0000
  Au  Au8       1.0  0.0030208330838118152  0.005592808240393684  0.9995010597580016  1.0000
  Sn  Sn9       1.0  0.004473059848427922  0.00940719194236377  2.500548501327448e-05  1.0000
  Sn  Sn10      1.0  0.00681591287609629  0.0045800320244321025  0.9999230606944836  1.0000
  Sn  Sn11      1.0  0.0014107905593365969  0.004483649006455285  9.86642699322708e-05  1.0000
  Sn  Sn12      1.0  0.009479166574656748  0.00934280779655415  0.9998036333002569  1.0000
  Sn  Sn13      1.0  0.008927293464262236  0.006895675037528982  0.9999763232457546  1.0000
  Sn  Sn14      1.0  0.0017303696193032019  0.0018780552542726394  0.999849770787056  1.0000
  Sn  Sn15      1.0  0.0066119377349742985  0.001826837151296688  6.821820490465755e-05  1.0000
  Sn  Sn16      1.0  0.004062500403415563  0.006842807874878774  0.9997486199246006  1.0000
  Au  Au9       1.0  0.006770833084329227  0.00809280816206906  0.9997761266196102  1.0000
  Au  Au10      1.0  0.009137919436591946  0.0031099787079210883  6.735327718889067e-05  1.0000
  Au  Au11      1.0  0.004321182769300522  0.0032107452939851033  0.9998945922882897  1.0000
  Au  Au12      1.0  0.0017679528865992692  0.008175327069006541  0.99998761330255  1.0000
  Au  Au13      1.0  0.008020833045166915  0.005592808240393684  0.999721113243954  1.0000
  Au  Au14      1.0  0.0005869439880870653  0.000635354087685857  3.307621180619495e-05  1.0000
  Au  Au15      1.0  0.005520833148266454  0.0005928081114844074  0.9998311402668955  1.0000
  Au  Au16      1.0  0.0028188610393699454  0.005749360234033139  0.9999390278462351  1.0000
