data_image0
_chemical_formula_structural       COAl6As12Na18
_chemical_formula_sum              "C1 O1 Al6 As12 Na18"
_cell_length_a       8.366307844402598
_cell_length_b       12.209032622323383
_cell_length_c       106.12409973144531
_cell_angle_alpha    91.51238225846025
_cell_angle_beta     92.88133873383568
_cell_angle_gamma    93.0969628169007

_space_group_name_H-M_alt    "P 1"
_space_group_IT_number       1

loop_
  _space_group_symop_operation_xyz
  'x, y, z'

loop_
  _atom_site_type_symbol
  _atom_site_label
  _atom_site_symmetry_multiplicity
  _atom_site_fract_x
  _atom_site_fract_y
  _atom_site_fract_z
  _atom_site_occupancy
  C   C1        1.0  0.0005423123285379388  0.005991636327957016  0.00014760016485998762  1.0000
  O   O1        1.0  0.0005423123285379388  0.005991636327957016  0.00026067555818781794  1.0000
  Al  Al1       1.0  0.005833333735373095  0.0010196536058097716  0.999721834704266  1.0000
  Al  Al2       1.0  0.002500000133720164  0.00685298674553166  0.9994381722428209  1.0000
  Al  Al3       1.0  0.008797568681068063  0.005268324552911636  0.9999810042988185  1.0000
  Al  Al4       1.0  0.004166666898157371  0.00893631967126195  0.9995800035266287  1.0000
  Al  Al5       1.0  0.0008333333166620361  0.0047696535140990875  0.9992963409578766  1.0000
  Al  Al6       1.0  0.007456185219735177  0.0030652987899863478  0.9998774975308008  1.0000
  As  As1       1.0  0.009672848548519923  0.007180958215731704  0.9999576058109897  1.0000
  As  As2       1.0  0.005959483448462581  0.003000412563571401  0.9996490972672487  1.0000
  As  As3       1.0  0.002626150057349857  0.008833745550442149  0.9993654348061739  1.0000
  As  As4       1.0  0.004040516974527677  0.006955560866351462  0.9996527409632757  1.0000
  As  As5       1.0  0.000707183396140991  0.002788894403486317  0.9993690783936078  1.0000
  As  As6       1.0  0.007384503016774992  0.0010452268244899126  0.9999310954805622  1.0000
  As  As7       1.0  0.0037172096789119015  0.005543907211678238  0.9992822733664233  1.0000
  As  As8       1.0  0.00030960110992457097  0.003904267215000366  0.9998642303320343  1.0000
  As  As9       1.0  0.007050543257298588  0.009710573674543383  0.9995659356552661  1.0000
  As  As10      1.0  0.00617643646444122  0.0044179739148400505  1.968900582536889e-05  1.0000
  As  As11      1.0  0.002949457387062688  0.00024539973627308714  0.9997359025760776  1.0000
  As  As12      1.0  0.009616124380916656  0.006078732742250227  0.9994522397599384  1.0000
  Na  Na1       1.0  0.0064250614073979905  0.005558960603437718  0.9997756410037304  1.0000
  Na  Na2       1.0  0.00309172805192958  0.0013922941405725721  0.9994919784349459  1.0000
  Na  Na3       1.0  0.008954112848254259  0.009300859248408686  6.372479018688622e-05  1.0000
  Na  Na4       1.0  0.007129326016369648  0.008395940753039122  0.9997967356391521  1.0000
  Na  Na5       1.0  0.0035749390155922676  0.004397012826485146  0.999526197226794  1.0000
  Na  Na6       1.0  0.0002416055192526765  0.00023034634451360762  0.9992425346573932  1.0000
  Na  Na7       1.0  0.0028339779164790924  0.005401166256650615  1.3731466225204577e-05  1.0000
  Na  Na8       1.0  0.009811073635082202  0.001265080415841189  0.9997413035877797  1.0000
  Na  Na9       1.0  0.006477740714562166  0.007098413708414218  0.9994576414103232  1.0000
  Na  Na10      1.0  0.006855593370022528  0.004524226551216529  0.9992768717170647  1.0000
  Na  Na11      1.0  0.0035139709299591283  0.003137455839471183  0.9998301419018186  1.0000
  Na  Na12      1.0  0.0001889264782867785  0.008690893319783956  0.9995605340807955  1.0000
  Na  Na13      1.0  0.002528767228375025  0.008173129644962751  0.9998570850408551  1.0000
  Na  Na14      1.0  0.009166667120067312  0.003936320099245145  0.9995800034361352  1.0000
  Na  Na15      1.0  0.005833333728954588  0.009769653086115894  0.9992963409750604  1.0000
  Na  Na16      1.0  0.004204467416525567  0.0008117213334899834  0.99999706027529  1.0000
  Na  Na17      1.0  0.0008333333029229459  0.0060196533306777185  0.9997218347943891  1.0000
  Na  Na18      1.0  0.00750000033087397  0.0018529868678125725  0.9994381721513013  1.0000
