data_image0
_chemical_formula_structural       HV16Si4Sb8
_chemical_formula_sum              "H1 V16 Si4 Sb8"
_cell_length_a       9.911582946777344
_cell_length_b       4.713490009307861
_cell_length_c       30.353668212890625
_cell_angle_alpha    90.0
_cell_angle_beta     90.0
_cell_angle_gamma    90.0

_space_group_name_H-M_alt    "P 1"
_space_group_IT_number       1

loop_
  _space_group_symop_operation_xyz
  'x, y, z'

loop_
  _atom_site_type_symbol
  _atom_site_label
  _atom_site_symmetry_multiplicity
  _atom_site_fract_x
  _atom_site_fract_y
  _atom_site_fract_z
  _atom_site_occupancy
  H   H1        1.0  0.009999856093708025  0.0025000155303085865  6.350858507921044e-05  1.0000
  V   V1        1.0  0.005845886040240553  0.005000013672994328  0.9981329147562495  1.0000
  V   V2        1.0  0.0020540725125824492  1.3549999549588944e-08  0.9974470805057244  1.0000
  V   V3        1.0  0.005766260247354771  0.009999957795497276  0.9994853112905352  1.0000
  V   V4        1.0  0.0041544019076501905  1.3549999549588944e-08  0.9981329147562495  1.0000
  V   V5        1.0  0.007946215435308294  0.005000013672994328  0.9974470805057244  1.0000
  V   V6        1.0  0.0020540725125824492  0.005000013672994328  0.9968947489426648  1.0000
  V   V7        1.0  0.007946215435308294  1.3549999549588944e-08  0.9968947489426648  1.0000
  V   V8        1.0  0.004233824740345662  0.004999948469408659  0.9994853029449298  1.0000
  V   V9        1.0  0.0009263200807405104  3.355000119881979e-08  0.9996575714608474  1.0000
  V   V10       1.0  0.007082465726127697  0.005000003003316674  0.9991028871734147  1.0000
  V   V11       1.0  0.0008458861116524719  0.005000013672994328  0.9978415976506693  1.0000
  V   V12       1.0  0.009073392437425479  0.004999997470891223  0.9996576485349689  1.0000
  V   V13       1.0  0.002918247874384396  0.009999986247971023  0.9991026539873787  1.0000
  V   V14       1.0  0.0070540723472074796  1.3549999549588944e-08  0.9985274316557354  1.0000
  V   V15       1.0  0.0029462154127571625  0.005000013672994328  0.9985274316557354  1.0000
  V   V16       1.0  0.009154402118127425  1.3549999549588944e-08  0.9978415976506693  1.0000
  Si  Si1       1.0  0.005000144161871474  0.007500013593959679  0.9988035975599947  1.0000
  Si  Si2       1.0  0.005000144161871474  0.002500013554442354  0.9988035975599947  1.0000
  Si  Si3       1.0  1.4389999672603484e-07  0.002500013554442354  0.9971709146014651  1.0000
  Si  Si4       1.0  1.4389999672603484e-07  0.007500013593959679  0.9971709146014651  1.0000
  Sb  Sb1       1.0  0.0034566089875655345  0.009999953053418317  0.0  1.0000
  Sb  Sb2       1.0  0.0035903356984399574  0.005000013672994328  0.9976312687554229  1.0000
  Sb  Sb3       1.0  0.006543865758870737  0.005000000632277194  9.720175814298597e-08  1.0000
  Sb  Sb4       1.0  0.006409952625302991  1.3549999549588944e-08  0.9976312687554229  1.0000
  Sb  Sb5       1.0  0.008590335908917193  0.005000013672994328  0.998343243651496  1.0000
  Sb  Sb6       1.0  0.008553837653063856  1.8649999246558984e-08  0.9992523078760711  1.0000
  Sb  Sb7       1.0  0.0014099522268996546  1.3549999549588944e-08  0.998343243651496  1.0000
  Sb  Sb8       1.0  0.0014466199920971212  0.0049999464935424264  0.9992521277091759  1.0000
