data_image0
_chemical_formula_structural       HAl15Pd10Al15Pd10
_chemical_formula_sum              "H1 Al30 Pd20"
_cell_length_a       11.290214243676077
_cell_length_b       6.767815916782882
_cell_length_c       110.60689544677734
_cell_angle_alpha    66.19338330407305
_cell_angle_beta     83.15645114027835
_cell_angle_gamma    61.53416555173756

_space_group_name_H-M_alt    "P 1"
_space_group_IT_number       1

loop_
  _space_group_symop_operation_xyz
  'x, y, z'

loop_
  _atom_site_type_symbol
  _atom_site_label
  _atom_site_symmetry_multiplicity
  _atom_site_fract_x
  _atom_site_fract_y
  _atom_site_fract_z
  _atom_site_occupancy
  H   H1        1.0  0.007865994982430508  0.008006297093412877  0.9998141876662777  1.0000
  Al  Al1       1.0  0.004158012582567725  0.008125859273421344  0.9986767149450944  1.0000
  Al  Al2       1.0  0.008158012640954776  0.006125858967736932  0.9987990913039548  1.0000
  Al  Al3       1.0  0.0001580127498388573  0.0001258595006376577  0.9991662191384232  1.0000
  Al  Al4       1.0  0.0021580128538637535  0.004125859344383796  0.9989214673099731  1.0000
  Al  Al5       1.0  0.006158012491023979  0.002125859379865022  0.9990438431266435  1.0000
  Al  Al6       1.0  0.004867949867936386  0.009329381787340246  0.9989977557065806  1.0000
  Al  Al7       1.0  0.008867949926323435  0.007329381481655835  0.999120132065441  1.0000
  Al  Al8       1.0  0.000867949707247576  0.0013293817586823326  0.9988753798529985  1.0000
  Al  Al9       1.0  0.002867949895808853  0.005329381517137062  0.9986306280256267  1.0000
  Al  Al10      1.0  0.006867949865294271  0.0033293815526182877  0.998753003838255  1.0000
  Al  Al11      1.0  0.003448075629524257  0.00692233675950244  0.9989675542367857  1.0000
  Al  Al12      1.0  0.007448075842433235  0.004922337136149304  0.9990899305769141  1.0000
  Al  Al13      1.0  0.009448075238812016  0.008922337065186851  0.9988451782160774  1.0000
  Al  Al14      1.0  0.0014480756457560576  0.0029223371716305306  0.9986004262696773  1.0000
  Al  Al15      1.0  0.005448075781404072  0.0009223372071117566  0.9987228023497281  1.0000
  Pd  Pd1       1.0  0.005841987081716875  0.0064072687615335825  0.9988785571779748  1.0000
  Pd  Pd2       1.0  0.009841986962300662  0.004407269138180446  0.9990009329832581  1.0000
  Pd  Pd3       1.0  0.0018419873556550178  0.008407269067217994  0.9987561808150722  1.0000
  Pd  Pd4       1.0  0.0038419872641112717  0.0024072691736616724  0.9991233089966214  1.0000
  Pd  Pd5       1.0  0.007841986912384203  0.0004072691664971938  0.9986338047569902  1.0000
  Pd  Pd6       1.0  0.002474038083418576  0.009844449785309104  0.9990867533083208  1.0000
  Pd  Pd7       1.0  0.006474038141805625  0.007844449479624694  0.9985972490710744  1.0000
  Pd  Pd8       1.0  0.008474038005811065  0.0018444497566511907  0.998964377248951  1.0000
  Pd  Pd9       1.0  0.00047403818855200775  0.005844449856271557  0.9987196250791137  1.0000
  Pd  Pd10      1.0  0.0044740380807764615  0.003844449550587146  0.998842000901108  1.0000
  Al  Al16      1.0  0.004158012582567725  0.008125859273421344  0.999288595002314  1.0000
  Al  Al17      1.0  0.008158012640954776  0.006125858967736932  0.9994109713611745  1.0000
  Al  Al18      1.0  0.00038574165186734774  0.009494439087446441  0.9997608088271461  1.0000
  Al  Al19      1.0  0.002065366681697994  0.004242307023287126  0.999547240420667  1.0000
  Al  Al20      1.0  0.006353481591046007  0.0012163730294054431  0.999646525033636  1.0000
  Al  Al21      1.0  0.004706967265704202  0.009449831680337603  0.999600425631951  1.0000
  Al  Al22      1.0  0.00905938448434338  0.007317618090473328  0.9997285159883833  1.0000
  Al  Al23      1.0  0.000867949707247576  0.0013293817586823326  0.9994872599102181  1.0000
  Al  Al24      1.0  0.002867949895808853  0.005329381517137062  0.9992425080828464  1.0000
  Al  Al25      1.0  0.006867949865294271  0.0033293815526182877  0.9993648838954746  1.0000
  Al  Al26      1.0  0.0034509084625294396  0.006813294080761996  0.9995847044868467  1.0000
  Al  Al27      1.0  0.007373245497295144  0.005916685539039961  0.9996656358982633  1.0000
  Al  Al28      1.0  0.009448075238812016  0.008922337065186851  0.9994570582732971  1.0000
  Al  Al29      1.0  0.0014480756457560576  0.0029223371716305306  0.9992123065963405  1.0000
  Al  Al30      1.0  0.005448075781404072  0.0009223372071117566  0.9993346824069477  1.0000
  Pd  Pd11      1.0  0.005841987081716875  0.0064072687615335825  0.9994904372351945  1.0000
  Pd  Pd12      1.0  0.009815152103924148  0.004299786268734852  0.9996213462680751  1.0000
  Pd  Pd13      1.0  0.0018419873556550178  0.008407269067217994  0.9993680608722919  1.0000
  Pd  Pd14      1.0  0.003966759369829759  0.0023008988453601083  0.9997253155708953  1.0000
  Pd  Pd15      1.0  0.007841986912384203  0.0004072691664971938  0.9992456848142098  1.0000
  Pd  Pd16      1.0  0.0024548364432631954  0.009874140066081984  0.9996879443294102  1.0000
  Pd  Pd17      1.0  0.006474038141805625  0.007844449479624694  0.9992091291282941  1.0000
  Pd  Pd18      1.0  0.008410024944771671  0.0018864405939028888  0.9995802398335144  1.0000
  Pd  Pd19      1.0  0.00047403818855200775  0.005844449856271557  0.9993315051363334  1.0000
  Pd  Pd20      1.0  0.0044740380807764615  0.003844449550587146  0.9994538809583277  1.0000
