data_image0
_chemical_formula_structural       HNb2Pt4Nb2Pt4Nb2Pt4Nb2Pt4Nb2Pt4Nb2Pt4
_chemical_formula_sum              "H1 Nb12 Pt24"
_cell_length_a       8.057622909545898
_cell_length_b       8.610518455505371
_cell_length_c       101.21320343017578
_cell_angle_alpha    90.0
_cell_angle_beta     90.0
_cell_angle_gamma    90.0

_space_group_name_H-M_alt    "P 1"
_space_group_IT_number       1

loop_
  _space_group_symop_operation_xyz
  'x, y, z'

loop_
  _atom_site_type_symbol
  _atom_site_label
  _atom_site_symmetry_multiplicity
  _atom_site_fract_x
  _atom_site_fract_y
  _atom_site_fract_z
  _atom_site_occupancy
  H   H1        1.0  0.004166666358445881  0.005000000328809541  8.339792723125215e-05  1.0000
  Nb  Nb1       1.0  2.5000000321782106e-10  2.499999760969529e-10  0.9994467208040544  1.0000
  Nb  Nb2       1.0  0.0025000001386993537  0.004999999896165408  0.9993065433141188  1.0000
  Pt  Pt1       1.0  2.5000000321782106e-10  0.003355666859046784  0.9994467208040544  1.0000
  Pt  Pt2       1.0  0.0025000001386993537  0.001644333361601724  0.9993065433141188  1.0000
  Pt  Pt3       1.0  0.0025000001386993537  0.008355666538890125  0.9993065433141188  1.0000
  Pt  Pt4       1.0  2.5000000321782106e-10  0.006644333149606099  0.9994467208040544  1.0000
  Nb  Nb3       1.0  2.4499999598862236e-09  0.009999998927042548  0.9997292382315923  1.0000
  Nb  Nb4       1.0  0.0025000001386993537  0.004999999896165408  0.9995868985884409  1.0000
  Pt  Pt5       1.0  0.009999998705472699  0.003354652092231035  0.9997271788417527  1.0000
  Pt  Pt6       1.0  0.0025000001386993537  0.001644333361601724  0.9995868985884409  1.0000
  Pt  Pt7       1.0  0.0025000001386993537  0.008355666538890125  0.9995868985884409  1.0000
  Pt  Pt8       1.0  0.009999998705472699  0.006645346834811513  0.9997271788417527  1.0000
  Nb  Nb5       1.0  0.009999993157498553  0.009999998927042548  0.9999897578186758  1.0000
  Nb  Nb6       1.0  0.002500000369864943  0.005000002059386077  0.9998850098430472  1.0000
  Pt  Pt9       1.0  0.009999999630135056  0.003375277103375948  0.9999999994110982  1.0000
  Pt  Pt10      1.0  0.0024999992140369957  0.001632445057933057  0.9998788251956078  1.0000
  Pt  Pt11      1.0  0.002499997133546691  0.00836755386910949  0.9998788246067059  1.0000
  Pt  Pt12      1.0  0.009999998705472699  0.0066247218236666  0.0  1.0000
  Nb  Nb7       1.0  0.005000000277398707  2.499999760969529e-10  0.9994467208040544  1.0000
  Nb  Nb8       1.0  0.007500000184932472  0.004999999896165408  0.9993065433141188  1.0000
  Pt  Pt13      1.0  0.005000000277398707  0.003355666859046784  0.9994467208040544  1.0000
  Pt  Pt14      1.0  0.007500000184932472  0.001644333361601724  0.9993065433141188  1.0000
  Pt  Pt15      1.0  0.007500000184932472  0.008355666538890125  0.9993065433141188  1.0000
  Pt  Pt16      1.0  0.005000000277398707  0.006644333149606099  0.9994467208040544  1.0000
  Nb  Nb9       1.0  0.005000002589054602  0.009999998927042548  0.9997292382315923  1.0000
  Nb  Nb10      1.0  0.007500000184932472  0.004999999896165408  0.9995868985884409  1.0000
  Pt  Pt17      1.0  0.004999998890405171  0.003354652092231035  0.9997271788417527  1.0000
  Pt  Pt18      1.0  0.007500000184932472  0.001644333361601724  0.9995868985884409  1.0000
  Pt  Pt19      1.0  0.007500000184932472  0.008355666538890125  0.9995868985884409  1.0000
  Pt  Pt20      1.0  0.0049999993527363494  0.006645346834811513  0.9997271788417527  1.0000
  Nb  Nb11      1.0  0.004999993804762203  0.009999998927042548  0.9999897578186758  1.0000
  Nb  Nb12      1.0  0.007500000184932472  0.005000002059386077  0.9998850098430472  1.0000
  Pt  Pt21      1.0  0.004999999815067528  0.003375277103375948  0.9999999994110982  1.0000
  Pt  Pt22      1.0  0.007499999260270114  0.001632445057933057  0.9998788251956078  1.0000
  Pt  Pt23      1.0  0.007499996948614219  0.00836755386910949  0.9998788246067059  1.0000
  Pt  Pt24      1.0  0.0049999984280739915  0.0066247218236666  0.0  1.0000
