data_image0
_chemical_formula_structural       COCa18In6
_chemical_formula_sum              "C1 O1 Ca18 In6"
_cell_length_a       10.064590046235597
_cell_length_b       8.217703438061296
_cell_length_c       103.3804702758789
_cell_angle_alpha    97.07055482063697
_cell_angle_beta     95.76818099899495
_cell_angle_gamma    65.90515619686843

_space_group_name_H-M_alt    "P 1"
_space_group_IT_number       1

loop_
  _space_group_symop_operation_xyz
  'x, y, z'

loop_
  _atom_site_type_symbol
  _atom_site_label
  _atom_site_symmetry_multiplicity
  _atom_site_fract_x
  _atom_site_fract_y
  _atom_site_fract_z
  _atom_site_occupancy
  C   C1        1.0  0.00041513720211048774  0.00842013850758016  0.0001788092789547178  1.0000
  O   O1        1.0  0.00041513720211048774  0.00842013850758016  0.000294885020166065  1.0000
  Ca  Ca1       1.0  0.008023003182769268  0.0013103773553991363  0.9996594274222694  1.0000
  Ca  Ca2       1.0  0.0003103300016638703  0.00574754002228772  9.816426191920247e-06  1.0000
  Ca  Ca3       1.0  0.005800781081472053  0.006865933157985124  0.9993006612287935  1.0000
  Ca  Ca4       1.0  0.0011466969449851487  0.0023840550031241233  0.9997449483658376  1.0000
  Ca  Ca5       1.0  0.006634114420219939  0.00353259933473412  0.9990315867319157  1.0000
  Ca  Ca6       1.0  0.008856336927608593  0.007977043569761559  0.999390352906671  1.0000
  Ca  Ca7       1.0  0.008023003182769268  0.006310377702566218  0.9996594275582743  1.0000
  Ca  Ca8       1.0  0.0003104788087956079  0.0006738054983997308  9.63075946186703e-06  1.0000
  Ca  Ca9       1.0  0.005800781081472053  0.0018659328108180419  0.9993006613810668  1.0000
  Ca  Ca10      1.0  0.0041920494391441895  0.008388463275326748  0.9998485602815363  1.0000
  Ca  Ca11      1.0  0.00968966986026504  0.009643710750398375  0.9991212782599723  1.0000
  Ca  Ca12      1.0  0.001911892302679065  0.004088155108773081  0.9994800444814231  1.0000
  Ca  Ca13      1.0  0.007059469212889012  0.009800733224523305  0.9999877588639359  1.0000
  Ca  Ca14      1.0  0.002745225641426951  0.000754821742320869  0.999210969700737  1.0000
  Ca  Ca15      1.0  0.004967447742724167  0.005199266177270254  0.9995697358734749  1.0000
  Ca  Ca16      1.0  0.00419127461667827  0.003653355546643406  0.9998487949477992  1.0000
  Ca  Ca17      1.0  0.00968966986026504  0.004643710860030084  0.9991212784167152  1.0000
  Ca  Ca18      1.0  0.001911892302679065  0.009088155455940163  0.9994800443291498  1.0000
  In  In1       1.0  0.008856336927608593  0.0029770436793932673  0.9993903527751358  1.0000
  In  In2       1.0  0.001189210251659478  0.007346351156289316  0.9997368799525397  1.0000
  In  In3       1.0  0.006634114420219939  0.00853259922510241  0.999031586863451  1.0000
  In  In4       1.0  0.004967447742724167  0.00019926628690196375  0.9995697360302177  1.0000
  In  In5       1.0  0.007386776476304167  0.004510041084210873  0.9999026869403405  1.0000
  In  In6       1.0  0.002745225641426951  0.00575482163268916  0.9992109698322722  1.0000
