data_image0
_chemical_formula_structural       HGa8As8Ga8As8
_chemical_formula_sum              "H1 Ga16 As16"
_cell_length_a       7.103494644165039
_cell_length_b       14.124952081197808
_cell_length_c       98.70843505859375
_cell_angle_alpha    98.34746352216419
_cell_angle_beta     90.0
_cell_angle_gamma    75.43654983178386

_space_group_name_H-M_alt    "P 1"
_space_group_IT_number       1

loop_
  _space_group_symop_operation_xyz
  'x, y, z'

loop_
  _atom_site_type_symbol
  _atom_site_label
  _atom_site_symmetry_multiplicity
  _atom_site_fract_x
  _atom_site_fract_y
  _atom_site_fract_z
  _atom_site_occupancy
  H   H1        1.0  0.00818930555079882  0.006186360065960518  0.0002170581813813844  1.0000
  Ga  Ga1       1.0  0.006509193934968398  0.009930021814681186  0.9997733577445562  1.0000
  Ga  Ga2       1.0  0.009009193835748218  0.004930022013121547  0.999669486370515  1.0000
  Ga  Ga3       1.0  0.004009194423110542  0.004930022013121547  0.9994617429861884  1.0000
  Ga  Ga4       1.0  0.0015091945223307229  0.009930021814681186  0.9995656146621523  1.0000
  Ga  Ga5       1.0  0.004425860630983836  0.00743002218951298  0.9997214222142227  1.0000
  Ga  Ga6       1.0  0.006925860807375268  0.002430021836730115  0.9996175502248846  1.0000
  Ga  Ga7       1.0  0.0019258608703069454  0.002430021836730115  0.9994098071424808  1.0000
  Ga  Ga8       1.0  0.009425860568052157  0.00743002218951298  0.9995136788298961  1.0000
  As  As1       1.0  0.008074138444605156  0.006800132795407671  0.9997083363783731  1.0000
  As  As2       1.0  0.0005741389401723637  0.0018001325804306125  0.9996044649957434  1.0000
  As  As3       1.0  0.00557413913945601  0.0018001325804306125  0.9993967216114168  1.0000
  As  As4       1.0  0.003074139031967481  0.006800132795407671  0.9995005932959692  1.0000
  As  As5       1.0  0.003490805515452386  0.009300132420575877  0.9997602722106294  1.0000
  As  As6       1.0  0.005990805416232206  0.004300132619016238  0.9996564008365881  1.0000
  As  As7       1.0  0.0009908054791638837  0.004300132619016238  0.9994486574522615  1.0000
  As  As8       1.0  0.008490805452520709  0.009300132420575877  0.9995525291282255  1.0000
  Ga  Ga9       1.0  0.006182669854321175  0.009811873731040038  0.00017021968645264686  1.0000
  Ga  Ga10      1.0  0.008364864229932791  0.005127661998067597  3.946008774546101e-05  1.0000
  Ga  Ga11      1.0  0.004009194423110542  0.004930022013121547  0.9998772294529189  1.0000
  Ga  Ga12      1.0  0.001482015832387154  6.997820185551086e-05  0.9999850569298475  1.0000
  Ga  Ga13      1.0  0.004793998342309665  0.007622345626452055  9.641333972331793e-05  1.0000
  Ga  Ga14      1.0  0.007417526570520428  0.0026254855923831077  0.9999859531167291  1.0000
  Ga  Ga15      1.0  0.0019258608703069454  0.002430021836730115  0.9998252936092112  1.0000
  Ga  Ga16      1.0  0.009394245905861002  0.007448834335742323  0.9999351317139401  1.0000
  As  As9       1.0  0.008205955707758242  0.006860638363944068  0.00014100593137606453  1.0000
  As  As10      1.0  0.0008059577568209831  0.001916809449283724  3.982225511703142e-05  1.0000
  As  As11      1.0  0.00557413913945601  0.0018001325804306125  0.9998122080781473  1.0000
  As  As12      1.0  0.0030391316092354074  0.006809394448037342  0.9999170985299565  1.0000
  As  As13      1.0  0.003093413447835974  0.009337184543326816  0.00019397380915842506  1.0000
  As  As14      1.0  0.00576851455909863  0.004346324298452469  8.542259126709505e-05  1.0000
  As  As15      1.0  0.0009908054791638837  0.004300132619016238  0.999864143918992  1.0000
  As  As16      1.0  0.008554816404891275  0.00932833630811604  0.9999677763571106  1.0000
