data_image0
_chemical_formula_structural       COPt4Sn16
_chemical_formula_sum              "C1 O1 Pt4 Sn16"
_cell_length_a       6.699884897163309
_cell_length_b       9.30262640864822
_cell_length_c       104.88862609863281
_cell_angle_alpha    82.46387278837688
_cell_angle_beta     89.25554821585092
_cell_angle_gamma    69.63954179646618

_space_group_name_H-M_alt    "P 1"
_space_group_IT_number       1

loop_
  _space_group_symop_operation_xyz
  'x, y, z'

loop_
  _atom_site_type_symbol
  _atom_site_label
  _atom_site_symmetry_multiplicity
  _atom_site_fract_x
  _atom_site_fract_y
  _atom_site_fract_z
  _atom_site_occupancy
  C   C1        1.0  0.008840809721098821  0.009681987413881942  0.9999731903978737  1.0000
  O   O1        1.0  0.008840809721098821  0.009681987413881942  8.759769602451954e-05  1.0000
  Pt  Pt1       1.0  0.008743917797129842  0.00995273587576685  0.9998065165672648  1.0000
  Pt  Pt2       1.0  0.0006858604547721501  0.00504726303787677  0.9994143993109661  1.0000
  Pt  Pt3       1.0  0.0006858601833529391  4.7263399995563525e-05  0.9994143989376063  1.0000
  Pt  Pt4       1.0  0.00871255378157649  0.004930761662459927  0.9998077326267831  1.0000
  Sn  Sn1       1.0  0.0032981261582910315  0.006921949443001977  0.9993970670882543  1.0000
  Sn  Sn2       1.0  0.0011711246452103803  0.001812719257756074  0.9998277784194854  1.0000
  Sn  Sn3       1.0  0.007240464940533844  0.004838835220278034  0.9995702909405129  1.0000
  Sn  Sn4       1.0  0.009740466048838353  0.009838834858159241  0.9991545094344357  1.0000
  Sn  Sn5       1.0  0.006642075590158456  0.008096392511885497  0.9997203965718844  1.0000
  Sn  Sn6       1.0  0.008909035286641111  0.0031759753762807415  0.9992927866378877  1.0000
  Sn  Sn7       1.0  0.0021234833173881325  0.008472429599416327  0.9996656214549615  1.0000
  Sn  Sn8       1.0  0.004129555889832594  0.003584809218024262  0.999258789427635  1.0000
  Sn  Sn9       1.0  0.004131254901772507  0.0002556915948013757  0.999258506976869  1.0000
  Sn  Sn10      1.0  0.002181544831973744  0.005069156136574047  0.9996697135650994  1.0000
  Sn  Sn11      1.0  0.00624575524624682  0.0029945234688431056  0.999840287821289  1.0000
  Sn  Sn12      1.0  0.008073594132692262  0.008172577132820371  0.9994317310020181  1.0000
  Sn  Sn13      1.0  0.0024626849114265485  0.0019185512771384928  0.9995360115652123  1.0000
  Sn  Sn14      1.0  0.00025783542628150493  0.006887067056978764  0.999919676494938  1.0000
  Sn  Sn15      1.0  0.009742164478799527  0.00650971728882308  0.9991542266993929  1.0000
  Sn  Sn16      1.0  0.007242164638087599  0.001509717327621522  0.9995700087764449  1.0000
