data_image0
_chemical_formula_structural       Ga10Rh6H
_chemical_formula_sum              "Ga10 Rh6 H1"
_cell_length_a       5.048200615385878
_cell_length_b       6.758128202135793
_cell_length_c       102.08345031738281
_cell_angle_alpha    100.93681040339852
_cell_angle_beta     104.73406000038295
_cell_angle_gamma    101.40113071572233

_space_group_name_H-M_alt    "P 1"
_space_group_IT_number       1

loop_
  _space_group_symop_operation_xyz
  'x, y, z'

loop_
  _atom_site_type_symbol
  _atom_site_label
  _atom_site_symmetry_multiplicity
  _atom_site_fract_x
  _atom_site_fract_y
  _atom_site_fract_z
  _atom_site_occupancy
  Ga  Ga1       1.0  0.007819653179413636  0.005122570845879911  0.9998301867919117  1.0000
  Ga  Ga2       1.0  0.002280390942298257  0.004182662724142046  0.9997679588235675  1.0000
  Ga  Ga3       1.0  0.00918572850251184  0.0014326742435912755  0.9994420190503548  1.0000
  Ga  Ga4       1.0  0.0009437009886327451  0.00793902561265195  0.00014560167954940067  1.0000
  Ga  Ga5       1.0  0.005563489377483515  0.0010811805679118928  0.99962160809332  1.0000
  Ga  Ga6       1.0  0.004638035858509371  0.00817605725874709  0.9999823071493411  1.0000
  Ga  Ga7       1.0  0.007079611390883039  0.004315701086258603  9.609486871554997e-05  1.0000
  Ga  Ga8       1.0  0.003243840964882011  0.004916630319969727  0.9995066909207889  1.0000
  Ga  Ga9       1.0  0.0004614879376934217  0.008714958577134743  0.9996784230993427  1.0000
  Ga  Ga10      1.0  0.009538511584061602  0.0006869913132587839  0.9999263049056109  1.0000
  Rh  Rh1       1.0  0.008528674175456998  0.004790371506550608  0.9995825165659941  1.0000
  Rh  Rh2       1.0  0.001820089274850218  0.004622039791016521  1.54131004102911e-05  1.0000
  Rh  Rh3       1.0  0.006401973887981231  0.007922456159643062  0.9994453302578179  1.0000
  Rh  Rh4       1.0  0.0036702922864407677  0.0011753399896444231  0.00012632221193389163  1.0000
  Rh  Rh5       1.0  0.005493487890276478  0.007700680314560736  0.9997376209869966  1.0000
  Rh  Rh6       1.0  0.004606555894145964  0.0016045531101457346  0.9998605246224153  1.0000
  H   H1        1.0  0.005241106306061559  0.009313008529800491  0.00018289221024840962  1.0000
