data_image0
_chemical_formula_structural       HCu9Pt9Cu9Pt9Cu9Pt9
_chemical_formula_sum              "H1 Cu27 Pt27"
_cell_length_a       7.322965164062319
_cell_length_b       13.254464292837595
_cell_length_c       100.44602966308594
_cell_angle_alpha    95.99322598419319
_cell_angle_beta     79.10660563931883
_cell_angle_gamma    80.91761934969448

_space_group_name_H-M_alt    "P 1"
_space_group_IT_number       1

loop_
  _space_group_symop_operation_xyz
  'x, y, z'

loop_
  _atom_site_type_symbol
  _atom_site_label
  _atom_site_symmetry_multiplicity
  _atom_site_fract_x
  _atom_site_fract_y
  _atom_site_fract_z
  _atom_site_occupancy
  H   H1        1.0  0.006997712104158652  0.0018398790430033108  0.00016952337618943137  1.0000
  Cu  Cu1       1.0  0.00026774049762496904  1.1347000182963313e-05  0.9994433269942108  1.0000
  Cu  Cu2       1.0  0.003601073618126776  1.1347000182963313e-05  0.999259625060684  1.0000
  Cu  Cu3       1.0  0.006934406965274731  1.1347000182963313e-05  0.9993514759931192  1.0000
  Cu  Cu4       1.0  0.008045518171646036  0.003344680185881937  0.9993820929910505  1.0000
  Cu  Cu5       1.0  0.0013788514773501242  0.003344680185881937  0.9994739439952648  1.0000
  Cu  Cu6       1.0  0.0047121848244980795  0.003344680185881937  0.9992902420586153  1.0000
  Cu  Cu7       1.0  0.00915662935818407  0.006678013431080716  0.9994127099900749  1.0000
  Cu  Cu8       1.0  0.0024899626638881602  0.006678013431080716  0.9995045609942891  1.0000
  Cu  Cu9       1.0  0.005823296011036115  0.006678013431080716  0.9993208590576397  1.0000
  Pt  Pt1       1.0  0.0008232960952060635  0.0016780137069801907  0.9993208590602812  1.0000
  Pt  Pt2       1.0  0.004156629183329849  0.0016780137069801907  0.9994127099962852  1.0000
  Pt  Pt3       1.0  0.007489962530477804  0.0016780137069801907  0.9995045612254203  1.0000
  Pt  Pt4       1.0  0.008601073621217415  0.005011347239574256  0.9992596250639396  1.0000
  Pt  Pt5       1.0  0.0019344071859456742  0.005011347239574256  0.9993514760645851  1.0000
  Pt  Pt6       1.0  0.00526774027406946  0.005011347239574256  0.9994433270005891  1.0000
  Pt  Pt7       1.0  0.006378851556405921  0.008344680197377748  0.999473943994334  1.0000
  Pt  Pt8       1.0  0.009712184903553876  0.008344680197377748  0.9992902420576845  1.0000
  Pt  Pt9       1.0  0.003045518209257966  0.008344680197377748  0.9993820930618987  1.0000
  Cu  Cu10      1.0  0.00026774049762496904  1.1347000182963313e-05  0.9997188798632956  1.0000
  Cu  Cu11      1.0  0.003601073618126776  1.1347000182963313e-05  0.9995351782264685  1.0000
  Cu  Cu12      1.0  0.006934406965274731  1.1347000182963313e-05  0.999627028862204  1.0000
  Cu  Cu13      1.0  0.008045518171646036  0.003344680185881937  0.9996576458601353  1.0000
  Cu  Cu14      1.0  0.0013788514773501242  0.003344680185881937  0.9997494968643496  1.0000
  Cu  Cu15      1.0  0.0047121848244980795  0.003344680185881937  0.9995657952243999  1.0000
  Cu  Cu16      1.0  0.00915662935818407  0.006678013431080716  0.9996882628591597  1.0000
  Cu  Cu17      1.0  0.002474690068605187  0.00668663586445228  0.9997750158469904  1.0000
  Cu  Cu18      1.0  0.005823296011036115  0.006678013431080716  0.9995964122234242  1.0000
  Pt  Pt10      1.0  0.0008232960952060635  0.0016780137069801907  0.9995964122260658  1.0000
  Pt  Pt11      1.0  0.004156629183329849  0.0016780137069801907  0.9996882628653699  1.0000
  Pt  Pt12      1.0  0.007530137246433597  0.001675063738066704  0.9997782364140951  1.0000
  Pt  Pt13      1.0  0.008601073621217415  0.005011347239574256  0.9995351782297243  1.0000
  Pt  Pt14      1.0  0.0019344071859456742  0.005011347239574256  0.9996270292303697  1.0000
  Pt  Pt15      1.0  0.00526774027406946  0.005011347239574256  0.9997188798696739  1.0000
  Pt  Pt16      1.0  0.006378851556405921  0.008344680197377748  0.9997494968634187  1.0000
  Pt  Pt17      1.0  0.009712184903553876  0.008344680197377748  0.9995657952234691  1.0000
  Pt  Pt18      1.0  0.003045518209257966  0.008344680197377748  0.9996576462276833  1.0000
  Cu  Cu19      1.0  0.00027673390192898417  1.3890200361394284e-05  0.9999804339811423  1.0000
  Cu  Cu20      1.0  0.0036074375173158037  1.6841099941646918e-05  0.9998147892403649  1.0000
  Cu  Cu21      1.0  0.0068990617846453155  0.009988653082308466  0.9999082637465736  1.0000
  Cu  Cu22      1.0  0.008093132055435744  0.003368206651391891  0.99993490162879  1.0000
  Cu  Cu23      1.0  0.0015371739684598127  0.0033381568876795584  2.2208062306780485e-06  1.0000
  Cu  Cu24      1.0  0.004746281974336385  0.003338364961866646  0.9998424979234819  1.0000
  Cu  Cu25      1.0  0.009212223165292566  0.0066785916703962145  0.9999551726476416  1.0000
  Cu  Cu26      1.0  0.002594543439815079  0.00665784288032577  2.7173163999633212e-05  1.0000
  Cu  Cu27      1.0  0.005864274967494693  0.006651602953875421  0.9998740481279629  1.0000
  Pt  Pt19      1.0  0.0008838592905099219  0.0016847039818437546  0.9998762353002195  1.0000
  Pt  Pt20      1.0  0.0042264752845548  0.001673838571962345  0.9999595701749083  1.0000
  Pt  Pt21      1.0  0.007510180869055384  0.0016548897385683262  4.199424584051748e-05  1.0000
  Pt  Pt22      1.0  0.008610835681770828  0.00500285240970969  0.9998138352371068  1.0000
  Pt  Pt23      1.0  0.0018836503879056596  0.005014752298923175  0.9999033170480056  1.0000
  Pt  Pt24      1.0  0.005241177388655881  0.004983837188004598  0.9999854379910383  1.0000
  Pt  Pt25      1.0  0.00637911362372282  0.008284653093565164  1.3469060241350786e-05  1.0000
  Pt  Pt26      1.0  0.00973225959181501  0.008351728854162997  0.9998442738851211  1.0000
  Pt  Pt27      1.0  0.0030403006496889707  0.008344059423559917  0.9999320679160616  1.0000
