data_image0
_chemical_formula_structural       HGe12Ru8Ge12Ru8
_chemical_formula_sum              "H1 Ge24 Ru16"
_cell_length_a       5.815330505371094
_cell_length_b       9.421567916870117
_cell_length_c       104.89198303222656
_cell_angle_alpha    90.0
_cell_angle_beta     90.0
_cell_angle_gamma    90.0

_space_group_name_H-M_alt    "P 1"
_space_group_IT_number       1

loop_
  _space_group_symop_operation_xyz
  'x, y, z'

loop_
  _atom_site_type_symbol
  _atom_site_label
  _atom_site_symmetry_multiplicity
  _atom_site_fract_x
  _atom_site_fract_y
  _atom_site_fract_z
  _atom_site_occupancy
  H   H1        1.0  0.008595534578486788  0.007968173031956944  0.00011589074133852064  1.0000
  Ge  Ge1       1.0  0.008290603425677324  0.007907105045130036  0.9994498514036395  1.0000
  Ge  Ge2       1.0  0.008290603425677324  0.0029071054009902593  0.9992573531795732  1.0000
  Ge  Ge3       1.0  0.0034933562688674105  0.004561972283011935  0.9992320275089971  1.0000
  Ge  Ge4       1.0  0.0034933562688674105  0.009561972124851836  0.9994751770742156  1.0000
  Ge  Ge5       1.0  0.0022195211277796015  0.0012522384201185213  0.9991614045285954  1.0000
  Ge  Ge6       1.0  0.007833798609206967  0.006252238360808484  0.9991614045285954  1.0000
  Ge  Ge7       1.0  0.006559963948567815  0.004561972283011935  0.9994751770742156  1.0000
  Ge  Ge8       1.0  0.0017627163113092456  0.007907105045130036  0.9992573531795732  1.0000
  Ge  Ge9       1.0  0.0017627163113092456  0.0029071054009902593  0.9994498514036395  1.0000
  Ge  Ge10      1.0  0.007833798609206967  0.0012522384201185213  0.9989913884628192  1.0000
  Ge  Ge11      1.0  0.0022195211277796015  0.006252238360808484  0.9989913884628192  1.0000
  Ge  Ge12      1.0  0.006559963948567815  0.009561972124851836  0.9992320275089971  1.0000
  Ru  Ru1       1.0  2.666009840798559e-05  0.009182285872735022  0.9990763966377693  1.0000
  Ru  Ru2       1.0  2.666009840798559e-05  0.00040710548007030913  0.9993536021495444  1.0000
  Ru  Ru3       1.0  0.005026660108717613  0.0016319250676355848  0.9993536021495444  1.0000
  Ru  Ru4       1.0  2.666009840798559e-05  0.004182285635494871  0.9990763966377693  1.0000
  Ru  Ru5       1.0  0.005026660108717613  0.006631925008325547  0.9993536021495444  1.0000
  Ru  Ru6       1.0  0.005026660108717613  0.0029071054009902593  0.9990763966377693  1.0000
  Ru  Ru7       1.0  0.005026660108717613  0.007907105045130036  0.9990763966377693  1.0000
  Ru  Ru8       1.0  2.666009840798559e-05  0.0054071051242100855  0.9993536021495444  1.0000
  Ge  Ge13      1.0  0.008595534578486788  0.007968173031956944  0.9999984322041573  1.0000
  Ge  Ge14      1.0  0.00833568296214579  0.0028259251828077693  0.9998080021181734  1.0000
  Ge  Ge15      1.0  0.0034672041673404048  0.004592902072074443  0.9997861058234259  1.0000
  Ge  Ge16      1.0  0.003836644200255468  0.009270906930499643  0.0  1.0000
  Ge  Ge17      1.0  0.0022195211277796015  0.0012522384201185213  0.9997158158362696  1.0000
  Ge  Ge18      1.0  0.007833798609206967  0.006252238360808484  0.9997158158362696  1.0000
  Ge  Ge19      1.0  0.006216719257558771  0.00427093476667716  1.1364957178296066e-09  1.0000
  Ge  Ge20      1.0  0.001717592893863557  0.00782595151646434  0.9998080004134299  1.0000
  Ge  Ge21      1.0  0.0014579278517505283  0.00296820897383956  0.9999984276581744  1.0000
  Ge  Ge22      1.0  0.007833798609206967  0.0012522384201185213  0.9995458000546172  1.0000
  Ge  Ge23      1.0  0.0022195211277796015  0.006252238360808484  0.9995458000546172  1.0000
  Ge  Ge24      1.0  0.006586145197313267  0.009592894005909368  0.9997861069599216  1.0000
  Ru  Ru9       1.0  2.666009840798559e-05  0.009182285872735022  0.9996308076613195  1.0000
  Ru  Ru10      1.0  7.995259685848742e-05  0.0004094792901765244  0.9999064942465677  1.0000
  Ru  Ru11      1.0  0.004962454231564219  0.0017104358398883314  0.9999074329920307  1.0000
  Ru  Ru12      1.0  2.666009840798559e-05  0.004182285635494871  0.9996308076613195  1.0000
  Ru  Ru13      1.0  0.005090992183717908  0.006710421447319275  0.9999074364015178  1.0000
  Ru  Ru14      1.0  0.005026660108717613  0.0029071054009902593  0.9996308076613195  1.0000
  Ru  Ru15      1.0  0.005026660108717613  0.007907105045130036  0.9996308076613195  1.0000
  Ru  Ru16      1.0  0.009973339609419174  0.005409486224508387  0.9999064936783199  1.0000
