data_image0
_chemical_formula_structural       Al6W3Al6W3CO
_chemical_formula_sum              "Al12 W6 C1 O1"
_cell_length_a       4.887740402538611
_cell_length_b       6.807504177093506
_cell_length_c       35.78581619262695
_cell_angle_alpha    90.0
_cell_angle_beta     120.00000141781679
_cell_angle_gamma    90.0

_space_group_name_H-M_alt    "P 1"
_space_group_IT_number       1

loop_
  _space_group_symop_operation_xyz
  'x, y, z'

loop_
  _atom_site_type_symbol
  _atom_site_label
  _atom_site_symmetry_multiplicity
  _atom_site_fract_x
  _atom_site_fract_y
  _atom_site_fract_z
  _atom_site_occupancy
  Al  Al1       1.0  0.006020272254014566  0.0020953627347769263  0.00019009463849022234  1.0000
  Al  Al2       1.0  0.008501278401890269  0.008913900348870171  1.0525399188543076e-05  1.0000
  Al  Al3       1.0  0.008505559103249391  0.0055807753069740205  0.999336310831565  1.0000
  Al  Al4       1.0  0.003561901062641869  0.002247442042956855  0.9993363106580657  1.0000
  Al  Al5       1.0  0.0019392628850519035  0.008914299281659183  0.9995837694917473  1.0000
  Al  Al6       1.0  0.002296396501371514  0.005733150668156494  0.0001899977911016526  1.0000
  W   W1        1.0  0.0056530348975729556  0.005485054421393224  0.9997998522276029  1.0000
  W   W2        1.0  0.00519100649638675  0.008914108844607638  0.9991061068233658  1.0000
  W   W3        1.0  0.009808993063574047  0.0023430277620096873  0.9997998832139661  1.0000
  Al  Al7       1.0  0.006820112150151233  0.002247442042956855  0.9988759034200898  1.0000
  Al  Al8       1.0  0.008505559103249391  0.008914108844607638  0.9986456992985597  1.0000
  Al  Al9       1.0  0.008505559103249391  0.0055807753069740205  0.9979704788961538  1.0000
  Al  Al10      1.0  0.003561901062641869  0.002247442042956855  0.9979704789308537  1.0000
  Al  Al11      1.0  0.00187645388952411  0.008914108844607638  0.9982006826209596  1.0000
  Al  Al12      1.0  0.00187645388952411  0.0055807753069740205  0.9988759032315648  1.0000
  W   W4        1.0  0.00519100649638675  0.0055807753069740205  0.998423191167959  1.0000
  W   W5        1.0  0.00519100649638675  0.008914108844607638  0.9977402753043529  1.0000
  W   W6        1.0  0.00019100660639655067  0.002247442042956855  0.9984231912587515  1.0000
  C   C1        1.0  0.003840478660562912  0.0010857011944334454  0.00026227239610557675  1.0000
  O   O1        1.0  0.003840478660562912  0.0010857011944334454  0.0005976006292742552  1.0000
