data_image0
_chemical_formula_structural       COV2Zn6V2Zn6V2Zn6V2Zn6
_chemical_formula_sum              "C1 O1 V8 Zn24"
_cell_length_a       5.468851089477539
_cell_length_b       7.734123229980469
_cell_length_c       102.81310272216797
_cell_angle_alpha    90.0
_cell_angle_beta     90.0
_cell_angle_gamma    90.0

_space_group_name_H-M_alt    "P 1"
_space_group_IT_number       1

loop_
  _space_group_symop_operation_xyz
  'x, y, z'

loop_
  _atom_site_type_symbol
  _atom_site_label
  _atom_site_symmetry_multiplicity
  _atom_site_fract_x
  _atom_site_fract_y
  _atom_site_fract_z
  _atom_site_occupancy
  C   C1        1.0  0.006235884791122374  3.149999866091516e-09  3.672175344776115e-05  1.0000
  O   O1        1.0  0.006235884791122374  3.149999866091516e-09  0.00015343863097574273  1.0000
  V   V1        1.0  0.006235884791122374  3.149999866091516e-09  0.9998682557382543  1.0000
  V   V2        1.0  0.001235604691935321  4.4999998497160685e-10  0.9996069997851352  1.0000
  Zn  Zn1       1.0  0.0038576683441651294  0.002500005664431844  0.0  1.0000
  Zn  Zn2       1.0  0.00876479364024556  0.002500000606903412  0.9997370593287552  1.0000
  Zn  Zn3       1.0  0.006235604824766074  4.4999998497160685e-10  0.9996069997851352  1.0000
  Zn  Zn4       1.0  0.0012352056887888424  0.009999999537597401  0.9998917699045238  1.0000
  Zn  Zn5       1.0  0.008612743980257409  0.002499998680225914  0.9999999762307491  1.0000
  Zn  Zn6       1.0  0.003708383607389198  0.002499997716887165  0.9997370210660587  1.0000
  V   V3        1.0  0.006235604824766074  4.4999998497160685e-10  0.99934103896968  1.0000
  V   V4        1.0  0.001235604691935321  4.4999998497160685e-10  0.9990750781542246  1.0000
  Zn  Zn7       1.0  0.0037356047157767382  0.002500000366068725  0.9994740192324731  1.0000
  Zn  Zn8       1.0  0.008735604252572061  0.002500000366068725  0.9992080584170178  1.0000
  Zn  Zn9       1.0  0.006235604824766074  4.4999998497160685e-10  0.9990750781542246  1.0000
  Zn  Zn10      1.0  0.001235604691935321  4.4999998497160685e-10  0.99934103896968  1.0000
  Zn  Zn11      1.0  0.008735604252572061  0.002500000366068725  0.9994740192324731  1.0000
  Zn  Zn12      1.0  0.0037356047157767382  0.002500000366068725  0.9992080584170178  1.0000
  V   V5        1.0  0.006235884791122374  0.005000003140484322  0.9998682557382543  1.0000
  V   V6        1.0  0.001235604691935321  0.005000000250468075  0.9996069997851352  1.0000
  Zn  Zn13      1.0  0.0038576683441651294  0.007500005433230545  0.0  1.0000
  Zn  Zn14      1.0  0.00876479364024556  0.0075000006165368  0.9997370593287552  1.0000
  Zn  Zn15      1.0  0.006235604824766074  0.005000000250468075  0.9996069997851352  1.0000
  Zn  Zn16      1.0  0.0012352056887888424  0.004999999768798701  0.9998917699045238  1.0000
  Zn  Zn17      1.0  0.008612743980257409  0.0074999986898593015  0.9999999762307491  1.0000
  Zn  Zn18      1.0  0.003708383607389198  0.0074999977265205525  0.9997370210660587  1.0000
  V   V7        1.0  0.006235604824766074  0.005000000250468075  0.99934103896968  1.0000
  V   V8        1.0  0.001235604691935321  0.005000000250468075  0.9990750781542246  1.0000
  Zn  Zn19      1.0  0.0037356047157767382  0.007500000134867425  0.9994740192324731  1.0000
  Zn  Zn20      1.0  0.008735604252572061  0.007500000134867425  0.9992080584170178  1.0000
  Zn  Zn21      1.0  0.006235604824766074  0.005000000250468075  0.9990750781542246  1.0000
  Zn  Zn22      1.0  0.001235604691935321  0.005000000250468075  0.99934103896968  1.0000
  Zn  Zn23      1.0  0.008735604252572061  0.007500000134867425  0.9994740192324731  1.0000
  Zn  Zn24      1.0  0.0037356047157767382  0.007500000134867425  0.9992080584170178  1.0000
