data_image0
_chemical_formula_structural       COSn9As12
_chemical_formula_sum              "C1 O1 Sn9 As12"
_cell_length_a       8.369769726087526
_cell_length_b       8.369770050048828
_cell_length_c       100.75249481201172
_cell_angle_alpha    90.0
_cell_angle_beta     90.0
_cell_angle_gamma    59.999998719611895

_space_group_name_H-M_alt    "P 1"
_space_group_IT_number       1

loop_
  _space_group_symop_operation_xyz
  'x, y, z'

loop_
  _atom_site_type_symbol
  _atom_site_label
  _atom_site_symmetry_multiplicity
  _atom_site_fract_x
  _atom_site_fract_y
  _atom_site_fract_z
  _atom_site_occupancy
  C   C1        1.0  0.00520374381145375  0.002172894860658657  0.00017186300127572434  1.0000
  O   O1        1.0  0.00520374381145375  0.002172894860658657  0.00029096699310327386  1.0000
  Sn  Sn1       1.0  0.0009698784626971228  0.009289900885659211  0.9996739301421091  1.0000
  Sn  Sn2       1.0  0.00520374381145375  0.002172894860658657  0.9999999514892323  1.0000
  Sn  Sn3       1.0  0.007636545029144667  0.00595656760243544  0.9993347875197138  1.0000
  Sn  Sn4       1.0  0.005969878403593538  0.009289900203069041  0.9996739301421091  1.0000
  Sn  Sn5       1.0  0.008840730725726735  0.002168173573925772  0.9999999171767381  1.0000
  Sn  Sn6       1.0  0.0026365451524912793  0.005956567362726642  0.9993347875197138  1.0000
  Sn  Sn7       1.0  0.005969878403593538  0.0042899007371755135  0.9996739301421091  1.0000
  Sn  Sn8       1.0  0.0088417873950419  0.00854047993602105  0.0  1.0000
  Sn  Sn9       1.0  0.0026365451524912793  0.0009565676742887515  0.9993347875197138  1.0000
  As  As1       1.0  0.006216347549244244  0.003796963005060525  0.9994070348426957  1.0000
  As  As2       1.0  0.009523010179022972  0.0071827054954248315  0.9997539380047344  1.0000
  As  As3       1.0  0.0028830140411698763  0.0004636298481154542  0.9990678925160976  1.0000
  As  As4       1.0  0.006216347549244244  0.009536369679710778  0.9994070348426957  1.0000
  As  As5       1.0  0.009523059517668037  0.0028441579837215343  0.9997539137493505  1.0000
  As  As6       1.0  0.0028830140411698763  0.00620303607767698  0.9990678925160976  1.0000
  As  As7       1.0  0.0004769405568538746  0.009536369838580836  0.9994070348426957  1.0000
  As  As8       1.0  0.00385540549837097  0.002847182855890207  0.9997533115059174  1.0000
  As  As9       1.0  0.007143607251787474  0.006203036491114036  0.9990678925160976  1.0000
  As  As10      1.0  0.007636545029144667  0.0009565676914531855  0.9991180455507684  1.0000
  As  As11      1.0  0.0009698784626971228  0.004289900974676957  0.9994571878773665  1.0000
  As  As12      1.0  0.0043011249075393795  0.007624285674835172  0.9997967256850402  1.0000
