data_image0
_chemical_formula_structural       COAl4V12Al4V12
_chemical_formula_sum              "C1 O1 Al8 V24"
_cell_length_a       4.820557117462158
_cell_length_b       6.817296981811523
_cell_length_c       104.08648681640625
_cell_angle_alpha    90.0
_cell_angle_beta     90.0
_cell_angle_gamma    90.0

_space_group_name_H-M_alt    "P 1"
_space_group_IT_number       1

loop_
  _space_group_symop_operation_xyz
  'x, y, z'

loop_
  _atom_site_type_symbol
  _atom_site_label
  _atom_site_symmetry_multiplicity
  _atom_site_fract_x
  _atom_site_fract_y
  _atom_site_fract_z
  _atom_site_occupancy
  C   C1        1.0  0.0024999875425851933  0.0013065083231195863  0.0001212553665575397  1.0000
  O   O1        1.0  0.0024999875425851933  0.0013065083231195863  0.00023654434100300642  1.0000
  Al  Al1       1.0  2.0049998999518555e-08  0.005625000131147238  0.9990158178807041  1.0000
  Al  Al2       1.0  2.0049998999518555e-08  0.0006249999918032976  0.9993433000244304  1.0000
  Al  Al3       1.0  0.005000019907134332  0.005625000131147238  0.9993433000244304  1.0000
  Al  Al4       1.0  0.005000019907134332  0.0006249999918032976  0.9990158178807041  1.0000
  V   V1        1.0  0.005000019907134332  0.006874999978142126  0.9989339473447726  1.0000
  V   V2        1.0  0.005000019907134332  0.001875000043715746  0.9992614297748216  1.0000
  V   V3        1.0  0.005000019907134332  0.00937500021857873  0.9987702062729095  1.0000
  V   V4        1.0  0.005000019907134332  0.004375000010928936  0.9990976884166357  1.0000
  V   V5        1.0  0.007500019814399234  0.0031249998907106344  0.998852076808841  1.0000
  V   V6        1.0  0.007500019814399234  0.008124999825137015  0.9991795589525673  1.0000
  V   V7        1.0  0.002500019999869429  0.0031249998907106344  0.998852076808841  1.0000
  V   V8        1.0  0.002500019999869429  0.008124999825137015  0.9991795589525673  1.0000
  V   V9        1.0  2.0049998999518555e-08  0.004375000010928936  0.9992614297748216  1.0000
  V   V10       1.0  2.0049998999518555e-08  0.00937500021857873  0.9989339473447726  1.0000
  V   V11       1.0  2.0049998999518555e-08  0.006874999978142126  0.9987702062729095  1.0000
  V   V12       1.0  2.0049998999518555e-08  0.001875000043715746  0.9990976884166357  1.0000
  Al  Al5       1.0  2.0049998999518555e-08  0.005625000131147238  0.999670782740802  1.0000
  Al  Al6       1.0  0.009999979536455083  0.0007173318825082667  0.9999999942735462  1.0000
  Al  Al7       1.0  0.005000058933154662  0.005532649524638474  0.0  1.0000
  Al  Al8       1.0  0.005000019907134332  0.0006249999918032976  0.999670782740802  1.0000
  V   V13       1.0  0.005000019907134332  0.006874999978142126  0.9995889122048705  1.0000
  V   V14       1.0  0.004999995177774914  0.001895684832036759  0.9999097064233182  1.0000
  V   V15       1.0  0.005000019907134332  0.00937500021857873  0.999425170560362  1.0000
  V   V16       1.0  0.005000005610473418  0.0043110785737727345  0.9997624792986408  1.0000
  V   V17       1.0  0.007500019814399234  0.0031249998907106344  0.9995070416689389  1.0000
  V   V18       1.0  0.007499998176209744  0.008125001464477493  0.9998345432826078  1.0000
  V   V19       1.0  0.002500019999869429  0.0031249998907106344  0.9995070416689389  1.0000
  V   V20       1.0  0.0025000491727856173  0.008124999278690188  0.9998345432826078  1.0000
  V   V21       1.0  4.634999669838359e-08  0.0043543208236878905  0.999909707568609  1.0000
  V   V22       1.0  2.0049998999518555e-08  0.00937500021857873  0.9995889122048705  1.0000
  V   V23       1.0  2.0049998999518555e-08  0.006874999978142126  0.999425170560362  1.0000
  V   V24       1.0  3.0549998170486555e-08  0.001938867519247868  0.9997624821618677  1.0000
