data_image0
_chemical_formula_structural       COAu6Cu3Zn3Au6Cu3Zn3Au6Cu3Zn3Au6Cu3Zn3
_chemical_formula_sum              "C1 O1 Au24 Cu12 Zn12"
_cell_length_a       8.985129356384277
_cell_length_b       8.985129232443152
_cell_length_c       103.01347351074219
_cell_angle_alpha    90.0
_cell_angle_beta     90.0
_cell_angle_gamma    120.00000045630277

_space_group_name_H-M_alt    "P 1"
_space_group_IT_number       1

loop_
  _space_group_symop_operation_xyz
  'x, y, z'

loop_
  _atom_site_type_symbol
  _atom_site_label
  _atom_site_symmetry_multiplicity
  _atom_site_fract_x
  _atom_site_fract_y
  _atom_site_fract_z
  _atom_site_occupancy
  C   C1        1.0  8.991980404896482e-08  0.004999958655494926  0.00016813833312275008  1.0000
  O   O1        1.0  8.991980404896482e-08  0.004999958655494926  0.0002846281854666157  1.0000
  Au  Au1       1.0  0.003333382985619891  0.0016666662501576416  0.9999445928674714  1.0000
  Au  Au2       1.0  0.0016666683346689424  0.0033333748693368105  0.9995747134148392  1.0000
  Au  Au3       1.0  1.600000621256143e-09  4.1500001391396724e-08  0.9992186274503632  1.0000
  Au  Au4       1.0  0.0016666683346689424  0.0033333748693368105  0.9990405844681253  1.0000
  Au  Au5       1.0  0.009999998104819581  4.510000173212886e-08  0.9997427857864011  1.0000
  Au  Au6       1.0  0.0033333348988261015  0.0016667081404331627  0.9993966704326012  1.0000
  Cu  Cu1       1.0  1.600000621256143e-09  4.1500001391396724e-08  0.9994856919237202  1.0000
  Cu  Cu2       1.0  0.0033333348988261015  0.0016667081404331627  0.9991296059592443  1.0000
  Cu  Cu3       1.0  0.0016666771228199  0.0033333686456387328  0.9998587392671051  1.0000
  Zn  Zn1       1.0  0.0016666683346689424  0.0033333748693368105  0.9993076489414822  1.0000
  Zn  Zn2       1.0  8.972583215766314e-08  0.009999958483146365  0.0  1.0000
  Zn  Zn3       1.0  0.0033333348988261015  0.0016667081404331627  0.9996637349059582  1.0000
  Au  Au7       1.0  0.0033333829790589894  0.006666665958122578  0.9999445928674714  1.0000
  Au  Au8       1.0  0.0016666683761146189  0.00833337469698825  0.9995747134148392  1.0000
  Au  Au9       1.0  1.5595943747472214e-09  0.005000041478553956  0.9992186274503632  1.0000
  Au  Au10      1.0  0.0016666683761146189  0.00833337469698825  0.9990405844681253  1.0000
  Au  Au11      1.0  0.009999998308585204  0.005000045308522004  0.9997427857864011  1.0000
  Au  Au12      1.0  0.003333334843886447  0.006666708087771102  0.9993966704326012  1.0000
  Cu  Cu4       1.0  1.5595943747472214e-09  0.005000041478553956  0.9994856919237202  1.0000
  Cu  Cu5       1.0  0.003333334843886447  0.006666708087771102  0.9991296059592443  1.0000
  Cu  Cu6       1.0  0.0016666773199151548  0.008333368952036178  0.9998587392671051  1.0000
  Zn  Zn4       1.0  0.0016666683761146189  0.00833337469698825  0.9993076489414822  1.0000
  Zn  Zn5       1.0  8.991980404896482e-08  0.004999958655494926  0.0  1.0000
  Zn  Zn6       1.0  0.003333334843886447  0.006666708087771102  0.9996637349059582  1.0000
  Au  Au13      1.0  0.008333382579305819  0.0016666662501576416  0.9999445928674714  1.0000
  Au  Au14      1.0  0.006666668163772439  0.0033333748693368105  0.9995747134148392  1.0000
  Au  Au15      1.0  0.005000001479104729  4.1500001391396724e-08  0.9992186274503632  1.0000
  Au  Au16      1.0  0.006666668163772439  0.0033333748693368105  0.9990405844681253  1.0000
  Au  Au17      1.0  0.004999998303830554  4.510000173212886e-08  0.9997427857864011  1.0000
  Au  Au18      1.0  0.008333334699815127  0.0016667081404331627  0.9993966704326012  1.0000
  Cu  Cu7       1.0  0.005000001479104729  4.1500001391396724e-08  0.9994856919237202  1.0000
  Cu  Cu8       1.0  0.008333334699815127  0.0016667081404331627  0.9991296059592443  1.0000
  Cu  Cu9       1.0  0.006666677075503069  0.0033333686456387328  0.9998587392671051  1.0000
  Zn  Zn7       1.0  0.006666668163772439  0.0033333748693368105  0.9993076489414822  1.0000
  Zn  Zn8       1.0  0.0050000896915729925  0.009999958483146365  0.0  1.0000
  Zn  Zn9       1.0  0.008333334699815127  0.0016667081404331627  0.9996637349059582  1.0000
  Au  Au19      1.0  0.008333382947399971  0.006666665958122578  0.9999445928674714  1.0000
  Au  Au20      1.0  0.006666668177103645  0.00833337469698825  0.9995747134148392  1.0000
  Au  Au21      1.0  0.0050000015678864996  0.005000041478553956  0.9992186274503632  1.0000
  Au  Au22      1.0  0.006666668177103645  0.00833337469698825  0.9990405844681253  1.0000
  Au  Au23      1.0  0.004999998507596177  0.005000045308522004  0.9997427857864011  1.0000
  Au  Au24      1.0  0.008333334772989585  0.006666708087771102  0.9993966704326012  1.0000
  Cu  Cu10      1.0  0.0050000015678864996  0.005000041478553956  0.9994856919237202  1.0000
  Cu  Cu11      1.0  0.008333334772989585  0.006666708087771102  0.9991296059592443  1.0000
  Cu  Cu12      1.0  0.006666677120904181  0.008333368952036178  0.9998587392671051  1.0000
  Zn  Zn10      1.0  0.006666668177103645  0.00833337469698825  0.9993076489414822  1.0000
  Zn  Zn11      1.0  0.0050000897207930755  0.004999958655494926  0.0  1.0000
  Zn  Zn12      1.0  0.008333334772989585  0.006666708087771102  0.9996637349059582  1.0000
