data_image0
_chemical_formula_structural       HGe6Pt6Ti6
_chemical_formula_sum              "H1 Ge6 Pt6 Ti6"
_cell_length_a       6.019172191619873
_cell_length_b       7.371950222449985
_cell_length_c       102.41423034667969
_cell_angle_alpha    94.34775299171785
_cell_angle_beta     90.0
_cell_angle_gamma    114.09484272332645

_space_group_name_H-M_alt    "P 1"
_space_group_IT_number       1

loop_
  _space_group_symop_operation_xyz
  'x, y, z'

loop_
  _atom_site_type_symbol
  _atom_site_label
  _atom_site_symmetry_multiplicity
  _atom_site_fract_x
  _atom_site_fract_y
  _atom_site_fract_z
  _atom_site_occupancy
  H   H1        1.0  0.007421487881691364  0.004829046287038568  7.546516654189488e-05  1.0000
  Ge  Ge1       1.0  0.0024425186258731847  0.005227099044774702  0.9995042309616697  1.0000
  Ge  Ge2       1.0  0.0004998781575506426  0.0016542463090659305  2.2826205653305405e-05  1.0000
  Ge  Ge3       1.0  0.006565866205763482  0.003570250295854917  0.9997680313087899  1.0000
  Ge  Ge4       1.0  0.005359185071192373  0.0010604324429144348  0.9993723553442969  1.0000
  Ge  Ge5       1.0  0.003698484678912569  0.007651388142417916  0.999909072523069  1.0000
  Ge  Ge6       1.0  0.00952585174248807  0.009393765785505825  0.9996361065798003  1.0000
  Pt  Pt1       1.0  0.008484185046676801  0.0023104324929079435  0.9995701685761907  1.0000
  Pt  Pt2       1.0  0.004317518620799531  0.00397709913365205  0.9993064177305337  1.0000
  Pt  Pt3       1.0  0.002681801016593977  0.0006062341978296721  0.9998297064100841  1.0000
  Pt  Pt4       1.0  0.0014008519671740583  0.008143765318899748  0.9994382930546352  1.0000
  Pt  Pt5       1.0  0.00964081421918386  0.0047353312336119065  0.9999558524189365  1.0000
  Pt  Pt6       1.0  0.005567518531922184  0.006477098955897354  0.9997020441928057  1.0000
  Ti  Ti1       1.0  0.0016167502132582688  0.003580834199324589  0.9997704199571855  1.0000
  Ti  Ti2       1.0  0.007442518372122507  0.005227099044774702  0.9995042309616697  1.0000
  Ti  Ti3       1.0  0.006005811194760535  0.0013729024245900587  7.491816309398651e-06  1.0000
  Ti  Ti4       1.0  0.004525851996238747  0.009393765785505825  0.9996361065798003  1.0000
  Ti  Ti5       1.0  0.0003591852862615458  0.0010604324429144348  0.9993723553442969  1.0000
  Ti  Ti6       1.0  0.008622683845324683  0.007856229321796153  0.9999016646691892  1.0000
