data_image0
_chemical_formula_structural       COCo4Zn12
_chemical_formula_sum              "C1 O1 Co4 Zn12"
_cell_length_a       4.767366708490741
_cell_length_b       5.198825359344482
_cell_length_c       104.883544921875
_cell_angle_alpha    90.0
_cell_angle_beta     91.90482417771489
_cell_angle_gamma    90.0

_space_group_name_H-M_alt    "P 1"
_space_group_IT_number       1

loop_
  _space_group_symop_operation_xyz
  'x, y, z'

loop_
  _atom_site_type_symbol
  _atom_site_label
  _atom_site_symmetry_multiplicity
  _atom_site_fract_x
  _atom_site_fract_y
  _atom_site_fract_z
  _atom_site_occupancy
  C   C1        1.0  0.004915643415930038  0.0012130763105184601  0.00015416876160511387  1.0000
  O   O1        1.0  0.004915643415930038  0.0012130763105184601  0.0002685816023193896  1.0000
  Co  Co1       1.0  0.0027747286103754387  0.005000028461915996  0.9993705809688396  1.0000
  Co  Co2       1.0  0.00589972884492945  2.8450001656783223e-08  0.9995784514394861  1.0000
  Co  Co3       1.0  0.002253736066991328  3.105000026130704e-08  0.999974640894355  1.0000
  Co  Co4       1.0  0.009100271890006454  0.005000004457027127  0.9997869779124672  1.0000
  Zn  Zn1       1.0  0.0008997284696430316  0.0025000285622349344  0.9995784514786996  1.0000
  Zn  Zn2       1.0  0.004100819980183876  0.0074737745370951686  0.9997862422718596  1.0000
  Zn  Zn3       1.0  0.0077747289856618575  0.007500028719878981  0.999370580929626  1.0000
  Zn  Zn4       1.0  0.007335890939465  0.002426121629650545  3.2336455413148254e-06  1.0000
  Zn  Zn5       1.0  0.0008997284696430316  0.007500028719878981  0.9995784514786996  1.0000
  Zn  Zn6       1.0  0.004100726940425933  0.0025263160652376233  0.9997862421312899  1.0000
  Zn  Zn7       1.0  0.0077747289856618575  0.0025000285622349344  0.999370580929626  1.0000
  Zn  Zn8       1.0  0.007335883902844651  0.007573966643849745  3.2631861759215184e-06  1.0000
  Zn  Zn9       1.0  0.00589972884492945  0.005000028461915996  0.9995784514394861  1.0000
  Zn  Zn10      1.0  0.009026927632419062  0.009999971652734219  0.9997818564553  1.0000
  Zn  Zn11      1.0  0.0027747286103754387  2.8450001656783223e-08  0.9993705809688396  1.0000
  Zn  Zn12      1.0  0.0023361771109961125  0.005000041718347162  3.529630345586865e-06  1.0000
