data_image0
_chemical_formula_structural       COIn8Pt12In8Pt12
_chemical_formula_sum              "C1 O1 In16 Pt24"
_cell_length_a       5.699119306606227
_cell_length_b       14.004277229309082
_cell_length_c       109.89383697509766
_cell_angle_alpha    90.0
_cell_angle_beta     119.99999874874108
_cell_angle_gamma    90.0

_space_group_name_H-M_alt    "P 1"
_space_group_IT_number       1

loop_
  _space_group_symop_operation_xyz
  'x, y, z'

loop_
  _atom_site_type_symbol
  _atom_site_label
  _atom_site_symmetry_multiplicity
  _atom_site_fract_x
  _atom_site_fract_y
  _atom_site_fract_z
  _atom_site_occupancy
  C   C1        1.0  0.007538515516779307  0.008313806573153863  0.000149714712237997  1.0000
  O   O1        1.0  0.007538515516779307  0.008313806573153863  0.00025891068759346236  1.0000
  In  In1       1.0  4.437879921676809e-05  0.0025136308344403356  0.9994998432333003  1.0000
  In  In2       1.0  4.437879921676809e-05  0.007513630908923386  0.9994998432333003  1.0000
  In  In3       1.0  0.006711045362926405  0.0025136308344403356  0.9991541084093951  1.0000
  In  In4       1.0  0.0033777121503582473  0.007513630908923386  0.9993269759587403  1.0000
  In  In5       1.0  0.006711045362926405  0.00916172693659165  0.9991541084093951  1.0000
  In  In6       1.0  0.006711045362926405  0.005865534349233333  0.9991541084093951  1.0000
  In  In7       1.0  0.0033777121503582473  0.0008655341417448366  0.9993269759587403  1.0000
  In  In8       1.0  0.0033777121503582473  0.004161727394130388  0.9993269759587403  1.0000
  Pt  Pt1       1.0  0.0033637554699378763  0.0009086941432028317  0.9995859150434907  1.0000
  Pt  Pt2       1.0  0.008384689932029494  0.0009086941432028317  0.9993276997545729  1.0000
  Pt  Pt3       1.0  0.008384689932029494  0.0009086941432028317  0.9995859151562962  1.0000
  Pt  Pt4       1.0  0.008384689932029494  0.004118567392672393  0.9993276997545729  1.0000
  Pt  Pt5       1.0  0.0033637554699378763  0.004118567392672393  0.9995859150434907  1.0000
  Pt  Pt6       1.0  0.008384689932029494  0.004118567392672393  0.9995859151562962  1.0000
  Pt  Pt7       1.0  0.006725002043346776  0.00911856720114455  0.9994137715619218  1.0000
  Pt  Pt8       1.0  0.0017040672038639833  0.00911856720114455  0.9991533846037768  1.0000
  Pt  Pt9       1.0  0.0017040672038639833  0.00911856720114455  0.9994137717105224  1.0000
  Pt  Pt10      1.0  0.0017040672038639833  0.0059086940846804345  0.9991533846037768  1.0000
  Pt  Pt11      1.0  0.006725002043346776  0.0059086940846804345  0.9994137715619218  1.0000
  Pt  Pt12      1.0  0.0017040672038639833  0.0059086940846804345  0.9994137717105224  1.0000
  In  In9       1.0  0.0006732204742610282  0.0025134358484554067  8.37246016331686e-05  1.0000
  In  In10      1.0  0.009955620699914382  0.007513613884226202  8.776361592010364e-06  1.0000
  In  In11      1.0  0.006711045362926405  0.0025136308344403356  0.9996727106466722  1.0000
  In  In12      1.0  0.003483346204485779  0.007513714968365728  0.9998562106113997  1.0000
  In  In13      1.0  0.006711045362926405  0.00916172693659165  0.9996727106466722  1.0000
  In  In14      1.0  0.006711045362926405  0.005865534349233333  0.9996727106466722  1.0000
  In  In15      1.0  0.0033160702080668046  0.0008444302340124643  0.9998393424314217  1.0000
  In  In16      1.0  0.0033155558238957762  0.004182550726872851  0.9998392981775016  1.0000
  Pt  Pt13      1.0  0.0031583556057528084  0.0008384974595576616  8.189651587603914e-05  1.0000
  Pt  Pt14      1.0  0.008337192233572216  0.0009396904640423413  0.9998415570796609  1.0000
  Pt  Pt15      1.0  0.008151271980952723  0.0008382726803526617  8.186924934965246e-05  1.0000
  Pt  Pt16      1.0  0.008336466887734567  0.004087478167528332  0.9998414737276811  1.0000
  Pt  Pt17      1.0  0.003158288241428136  0.0041887612832031814  8.188392143409404e-05  1.0000
  Pt  Pt18      1.0  0.0081514508643695  0.004189001757050897  8.184948054253024e-05  1.0000
  Pt  Pt19      1.0  0.006708827812384246  0.00911350660990678  0.9999267269038163  1.0000
  Pt  Pt20      1.0  0.0017040672038639833  0.00911856720114455  0.9996719871122457  1.0000
  Pt  Pt21      1.0  0.0016120958424317817  0.009113999262081524  0.9999266651205017  1.0000
  Pt  Pt22      1.0  0.0017040672038639833  0.0059086940846804345  0.9996719871122457  1.0000
  Pt  Pt23      1.0  0.006708531182920983  0.005913941947587222  0.9999267072797359  1.0000
  Pt  Pt24      1.0  0.001611972624213263  0.00591343812295495  0.9999266418572361  1.0000
