data_image0
_chemical_formula_structural       COCu2Ni2Sb4Cu2Ni2Sb4
_chemical_formula_sum              "C1 O1 Cu4 Ni4 Sb8"
_cell_length_a       5.194699287414551
_cell_length_b       7.175960063934326
_cell_length_c       99.00129699707031
_cell_angle_alpha    90.0
_cell_angle_beta     90.0
_cell_angle_gamma    90.0

_space_group_name_H-M_alt    "P 1"
_space_group_IT_number       1

loop_
  _space_group_symop_operation_xyz
  'x, y, z'

loop_
  _atom_site_type_symbol
  _atom_site_label
  _atom_site_symmetry_multiplicity
  _atom_site_fract_x
  _atom_site_fract_y
  _atom_site_fract_z
  _atom_site_occupancy
  C   C1        1.0  0.005000007271728648  0.009999998380299552  0.00014747200048889134  1.0000
  O   O1        1.0  0.005000007271728648  0.009999998380299552  0.00026868277936434564  1.0000
  Cu  Cu1       1.0  1.9500001170578863e-09  0.005000001266688812  0.9993732157011384  1.0000
  Cu  Cu2       1.0  1.9500001170578863e-09  1.1999999602708678e-09  0.999582457774648  1.0000
  Ni  Ni1       1.0  0.005000002251797629  0.005000001266688812  0.9993732157011384  1.0000
  Ni  Ni2       1.0  0.005000002251797629  1.1999999602708678e-09  0.999582457774648  1.0000
  Sb  Sb1       1.0  0.007257970451412392  0.0033333344373599207  0.999582457774648  1.0000
  Sb  Sb2       1.0  0.007257970451412392  0.008333334406211835  0.9993732157011384  1.0000
  Sb  Sb3       1.0  0.0027420336936163645  0.006666667836450323  0.999582457774648  1.0000
  Sb  Sb4       1.0  0.0027420336936163645  0.001666667867598409  0.9993732157011384  1.0000
  Cu  Cu3       1.0  0.009999998766531236  0.00500000230495833  0.9998097525942106  1.0000
  Cu  Cu4       1.0  2.650000115238196e-09  2.0999998995311757e-09  0.9999771952004339  1.0000
  Ni  Ni3       1.0  0.005000006913162147  0.0050000033432278474  0.9997865745179211  1.0000
  Ni  Ni4       1.0  0.005000007271728648  0.009999998380299552  0.999972519608443  1.0000
  Sb  Sb5       1.0  0.007089688738115787  0.0032039053166476165  0.0  1.0000
  Sb  Sb6       1.0  0.007289095457998542  0.008214577138740516  0.9997899556825645  1.0000
  Sb  Sb7       1.0  0.002910318634011482  0.006796103186779735  0.0  1.0000
  Sb  Sb8       1.0  0.0027109031292494434  0.001785414882158237  0.9997899553815348  1.0000
