data_image0
_chemical_formula_structural       COPd18V6
_chemical_formula_sum              "C1 O1 Pd18 V6"
_cell_length_a       7.309585216206756
_cell_length_b       4.8047275794817335
_cell_length_c       100.69187927246094
_cell_angle_alpha    90.25405160868775
_cell_angle_beta     94.04523268069364
_cell_angle_gamma    89.46663132834244

_space_group_name_H-M_alt    "P 1"
_space_group_IT_number       1

loop_
  _space_group_symop_operation_xyz
  'x, y, z'

loop_
  _atom_site_type_symbol
  _atom_site_label
  _atom_site_symmetry_multiplicity
  _atom_site_fract_x
  _atom_site_fract_y
  _atom_site_fract_z
  _atom_site_occupancy
  C   C1        1.0  0.007065641709927191  0.009451270743024211  9.450903363952217e-05  1.0000
  O   O1        1.0  0.007065641709927191  0.009451270743024211  0.00021368413296982396  1.0000
  Pd  Pd1       1.0  0.0029166666871041948  0.005548729482278471  0.999992620570719  1.0000
  Pd  Pd2       1.0  0.008472222378909936  0.008882062917126522  0.9998232819176575  1.0000
  Pd  Pd3       1.0  0.004027777927652983  0.0022153961213287384  0.9996539429539651  1.0000
  Pd  Pd4       1.0  0.0056944445330070655  0.0022153962384698026  0.9999079511662254  1.0000
  Pd  Pd5       1.0  0.0012499999540155622  0.005548729366885626  0.999738612357805  1.0000
  Pd  Pd6       1.0  0.0068055557735558535  0.008882062799985458  0.9995692737053972  1.0000
  Pd  Pd7       1.0  0.0020833333844271535  0.0005487294624752451  0.9998656166826015  1.0000
  Pd  Pd8       1.0  0.007638888820763796  0.0038820627069832015  0.9996962780281914  1.0000
  Pd  Pd9       1.0  0.006527778091153206  0.00721539606094006  3.495564756034593e-05  1.0000
  Pd  Pd10      1.0  0.009583333619458725  0.005548729556176789  0.9994846043009036  1.0000
  Pd  Pd11      1.0  0.005138889168201771  0.008882062682844393  0.999315265493137  1.0000
  Pd  Pd12      1.0  0.0006944444614757178  0.0022153960843795794  0.9991459268241536  1.0000
  Pd  Pd13      1.0  0.0023611110668298007  0.002215396201520643  0.9993999350364138  1.0000
  Pd  Pd14      1.0  0.007916667014104642  0.005548729439035725  0.9992305960886433  1.0000
  Pd  Pd15      1.0  0.003472222307378589  0.008882062569199767  0.9990612572795692  1.0000
  Pd  Pd16      1.0  0.008750000572250782  0.0005487294359588606  0.9993576004140731  1.0000
  Pd  Pd17      1.0  0.00430555561005563  0.003882062860374137  0.9991882616037528  1.0000
  Pd  Pd18      1.0  0.003194444624975941  0.007215395830154368  0.9995269392217323  1.0000
  V   V1        1.0  0.00041666665133852077  0.0005487294440006656  0.999611608469708  1.0000
  V   V2        1.0  0.009305555937056077  0.003882062817131391  0.9999502862430667  1.0000
  V   V3        1.0  0.004861110974860926  0.00721539595079187  0.999780947432685  1.0000
  V   V4        1.0  0.007083333455958502  0.0005487294711880693  0.9991035921992285  1.0000
  V   V5        1.0  0.005972222215409714  0.0038820629775152002  0.9994422698160131  1.0000
  V   V6        1.0  0.0015277777641527592  0.007215396491855868  0.9992729310083285  1.0000
