data_image0
_chemical_formula_structural       COCu6Ti12
_chemical_formula_sum              "C1 O1 Cu6 Ti12"
_cell_length_a       5.801900351827055
_cell_length_b       6.6036428640263365
_cell_length_c       101.51254272460938
_cell_angle_alpha    91.2007554663043
_cell_angle_beta     92.35011512410533
_cell_angle_gamma    109.96559760827866

_space_group_name_H-M_alt    "P 1"
_space_group_IT_number       1

loop_
  _space_group_symop_operation_xyz
  'x, y, z'

loop_
  _atom_site_type_symbol
  _atom_site_label
  _atom_site_symmetry_multiplicity
  _atom_site_fract_x
  _atom_site_fract_y
  _atom_site_fract_z
  _atom_site_occupancy
  C   C1        1.0  0.0006779086666305263  0.004183433446754005  7.89845904484197e-05  1.0000
  O   O1        1.0  0.0006779086666305263  0.004183433446754005  0.00019719623594531826  1.0000
  Cu  Cu1       1.0  0.005248644346530806  0.009851689088259705  0.9996426285440472  1.0000
  Cu  Cu2       1.0  0.004415311131797972  0.0015183562454295515  0.9993839369328542  1.0000
  Cu  Cu3       1.0  0.004831977768465043  0.005685022741921645  0.9995132825918304  1.0000
  Cu  Cu4       1.0  0.006642813704458347  0.002126361012985917  1.846720585534802e-05  1.0000
  Cu  Cu5       1.0  0.005690904247173472  0.004008967972533642  0.9997688469561905  1.0000
  Cu  Cu6       1.0  0.006022275144530622  0.008121662352096595  0.999899397323799  1.0000
  Ti  Ti1       1.0  0.0014461726676334382  0.007655208243320995  0.9994695964652303  1.0000
  Ti  Ti2       1.0  0.0018628393039894497  0.0018218752082936765  0.9995989424962264  1.0000
  Ti  Ti3       1.0  0.0010295060895676757  0.003488541896982935  0.9993402508065962  1.0000
  Ti  Ti4       1.0  0.007384449194635092  0.00538150377905752  0.999298277027517  1.0000
  Ti  Ti5       1.0  0.007801115933356244  0.00954817012539558  0.9994276229801102  1.0000
  Ti  Ti6       1.0  0.00821778254798587  0.0037148372405222964  0.9995569687176774  1.0000
  Ti  Ti7       1.0  0.002732122796748  0.00014831039633657117  0.9998519788912269  1.0000
  Ti  Ti8       1.0  0.003097374504763508  0.004182845443554922  0.9999731556185809  1.0000
  Ti  Ti9       1.0  0.0022795060109432543  0.0059885417047857705  0.9997282881553673  1.0000
  Ti  Ti10      1.0  0.008634449286707022  0.007881503586860357  0.9996863146702707  1.0000
  Ti  Ti11      1.0  0.0091252545336312  0.002007398776384442  0.9998185112504021  1.0000
  Ti  Ti12      1.0  0.009322091404866794  0.006048209915013489  0.9999326275174757  1.0000
