data_image0
_chemical_formula_structural       CONi9Pt9
_chemical_formula_sum              "C1 O1 Ni9 Pt9"
_cell_length_a       4.552844675653194
_cell_length_b       5.308809696547395
_cell_length_c       101.37271881103516
_cell_angle_alpha    91.68947956240578
_cell_angle_beta     94.01449921987918
_cell_angle_gamma    103.9290837689482

_space_group_name_H-M_alt    "P 1"
_space_group_IT_number       1

loop_
  _space_group_symop_operation_xyz
  'x, y, z'

loop_
  _atom_site_type_symbol
  _atom_site_label
  _atom_site_symmetry_multiplicity
  _atom_site_fract_x
  _atom_site_fract_y
  _atom_site_fract_z
  _atom_site_occupancy
  C   C1        1.0  0.008857757280425118  0.009703473823091354  0.00014584204577121706  1.0000
  O   O1        1.0  0.008857757280425118  0.009703473823091354  0.00026421674120006265  1.0000
  Ni  Ni1       1.0  0.0023486929922635446  0.005481710713884022  0.9992364130217335  1.0000
  Ni  Ni2       1.0  0.007163507962763721  0.009185414409545421  0.9993510348074889  1.0000
  Ni  Ni3       1.0  0.007533878565390364  0.0017780071991744936  0.9991217910321756  1.0000
  Ni  Ni4       1.0  0.006793137723720662  0.006592822148295808  0.9995802783628006  1.0000
  Ni  Ni5       1.0  0.0016079522572087274  0.00029652564852918615  0.9996949004246984  1.0000
  Ni  Ni6       1.0  0.001978322701741175  0.0028891182716825393  0.999465656576604  1.0000
  Ni  Ni7       1.0  0.0011891491850025083  0.0077245646292215695  0.9999280755092005  1.0000
  Ni  Ni8       1.0  0.005901357910971053  0.0013602809833087911  2.0655514855698888e-05  1.0000
  Ni  Ni9       1.0  0.006413829533948205  0.003982767307777116  0.9998057482039443  1.0000
  Pt  Pt1       1.0  0.007163507913754323  0.004185414583259215  0.9993510346966227  1.0000
  Pt  Pt2       1.0  0.007533878152797381  0.006778006844508829  0.9991217911413109  1.0000
  Pt  Pt3       1.0  0.002348692930384318  0.0004817108423598496  0.999236412910757  1.0000
  Pt  Pt4       1.0  0.001607952332064745  0.0052965256557672615  0.9996949002419376  1.0000
  Pt  Pt5       1.0  0.0019783226480058797  0.007889117917016875  0.9994656566868677  1.0000
  Pt  Pt6       1.0  0.006793137571752642  0.0015928219601058628  0.9995802785450395  1.0000
  Pt  Pt7       1.0  0.006004871152254692  0.006351738524188743  2.725130340702429e-05  1.0000
  Pt  Pt8       1.0  0.0064578205374739295  0.008995537993245267  0.9998056297084351  1.0000
  Pt  Pt9       1.0  0.0011422426087035024  0.002676424548374243  0.9999319297233532  1.0000
