data_image0
_chemical_formula_structural       HIn2As2In2As2In2As2In2As2
_chemical_formula_sum              "H1 In8 As8"
_cell_length_a       8.859423959870826
_cell_length_b       8.859423637390137
_cell_length_c       99.052978515625
_cell_angle_alpha    90.0
_cell_angle_beta     90.0
_cell_angle_gamma    119.99999879590646

_space_group_name_H-M_alt    "P 1"
_space_group_IT_number       1

loop_
  _space_group_symop_operation_xyz
  'x, y, z'

loop_
  _atom_site_type_symbol
  _atom_site_label
  _atom_site_symmetry_multiplicity
  _atom_site_fract_x
  _atom_site_fract_y
  _atom_site_fract_z
  _atom_site_occupancy
  H   H1        1.0  0.004166679452523466  0.003333318373829668  5.018794858412555e-05  1.0000
  In  In1       1.0  0.001666679525354296  0.000833318410795781  0.9999258048287801  1.0000
  In  In2       1.0  0.003333333317148705  0.0041666647411444544  0.9995280287501487  1.0000
  As  As1       1.0  0.0016666666585743524  0.000833331177405853  0.9996194876875057  1.0000
  As  As2       1.0  0.0033333146239023716  0.004166681675084581  0.0  1.0000
  In  In3       1.0  0.001666679525354296  0.005833318687767831  0.9999258048287801  1.0000
  In  In4       1.0  0.003333333317148705  0.009166665111174786  0.9995280287501487  1.0000
  As  As3       1.0  0.0016666666585743524  0.005833331176383431  0.9996194876875057  1.0000
  As  As4       1.0  0.0033333146239023716  0.009166681834870407  0.0  1.0000
  In  In5       1.0  0.00666667925830792  0.0008333182094436524  0.9999258048287801  1.0000
  In  In6       1.0  0.008333332685948179  0.004166664283567779  0.9995280287501487  1.0000
  As  As5       1.0  0.00666666663429741  0.0008333310296884754  0.9996194876875057  1.0000
  As  As6       1.0  0.00833331423547128  0.004166681408330639  0.0  1.0000
  In  In7       1.0  0.00666667925830792  0.0058333183692294765  0.9999258048287801  1.0000
  In  In8       1.0  0.008333332685948179  0.009166664610559358  0.9995280287501487  1.0000
  As  As7       1.0  0.00666666663429741  0.0058333311894743  0.9996194876875057  1.0000
  As  As8       1.0  0.00833331423547128  0.009166681455639696  0.0  1.0000
