data_image0
_chemical_formula_structural       HAs16Rh8
_chemical_formula_sum              "H1 As16 Rh8"
_cell_length_a       6.186744213104248
_cell_length_b       6.747971580715099
_cell_length_c       101.33528137207031
_cell_angle_alpha    90.92873490371689
_cell_angle_beta     90.0
_cell_angle_gamma    90.0

_space_group_name_H-M_alt    "P 1"
_space_group_IT_number       1

loop_
  _space_group_symop_operation_xyz
  'x, y, z'

loop_
  _atom_site_type_symbol
  _atom_site_label
  _atom_site_symmetry_multiplicity
  _atom_site_fract_x
  _atom_site_fract_y
  _atom_site_fract_z
  _atom_site_occupancy
  H   H1        1.0  8.323469496430433e-05  7.255505071757275e-05  0.00012009427091846032  1.0000
  As  As1       1.0  0.0012865536236998868  0.004856494859630226  0.9993531276268577  1.0000
  As  As2       1.0  0.0013236319407357933  0.00992744491511918  0.9998745074776417  1.0000
  As  As3       1.0  0.006265134564855194  0.0025766776985253997  0.9999125506571569  1.0000
  As  As4       1.0  0.00628655331058674  0.007621401698754239  0.9993901265114012  1.0000
  As  As5       1.0  0.008713446352214486  0.005121401234962275  0.9996478126848505  1.0000
  As  As6       1.0  0.008713446352214486  0.00012140145478034088  0.9991324398644283  1.0000
  As  As7       1.0  0.0037134463642573  0.0073564947712889  0.9990954411587162  1.0000
  As  As8       1.0  0.0037134463642573  0.002356494671904907  0.9996108138006049  1.0000
  As  As9       1.0  0.0063976892095544335  0.007347615363701595  0.9999418295911309  1.0000
  As  As10      1.0  0.006297029956084003  0.002383458101175272  0.9994200847481368  1.0000
  As  As11      1.0  0.0012807982126518832  0.005170298711354469  0.999832993734075  1.0000
  As  As12      1.0  0.0012970302691971503  9.443805139122395e-05  0.9993231695051168  1.0000
  As  As13      1.0  0.003488705789579641  0.00415812989459537  6.972332685922759e-05  1.0000
  As  As14      1.0  0.0037029697187600367  0.007594438269483874  0.9995808558579655  1.0000
  As  As15      1.0  0.008702969706717224  0.004883458288900591  0.9991623979861971  1.0000
  As  As16      1.0  0.008702969706717224  0.00988345866435123  0.9996777713954542  1.0000
  Rh  Rh1       1.0  0.005004686147712487  0.004681259899970763  0.9992516676326373  1.0000
  Rh  Rh2       1.0  0.005004686147712487  0.00968125972328811  0.9997670407472022  1.0000
  Rh  Rh3       1.0  8.569220038593075e-05  0.0028545523045319173  0.9999892008989634  1.0000
  Rh  Rh4       1.0  4.686199741203072e-06  0.007796636106280412  0.9994915865050256  1.0000
  Rh  Rh5       1.0  0.004995313527131553  0.0052966361946217375  0.9997492726790709  1.0000
  Rh  Rh6       1.0  0.004995313527131553  0.0002966362677793987  0.9992338998584904  1.0000
  Rh  Rh7       1.0  8.077719895112588e-05  0.007207338723367476  7.77924800020519e-06  1.0000
  Rh  Rh8       1.0  0.009995313515088741  0.0021812598502787663  0.9995093541006297  1.0000
