data_image0
_chemical_formula_structural       COSb6Pd6Sb6Pd6
_chemical_formula_sum              "C1 O1 Sb12 Pd12"
_cell_length_a       11.048355666746179
_cell_length_b       7.086713677263651
_cell_length_c       103.40708923339844
_cell_angle_alpha    107.13522181592523
_cell_angle_beta     79.1066047515345
_cell_angle_gamma    63.54880176409242

_space_group_name_H-M_alt    "P 1"
_space_group_IT_number       1

loop_
  _space_group_symop_operation_xyz
  'x, y, z'

loop_
  _atom_site_type_symbol
  _atom_site_label
  _atom_site_symmetry_multiplicity
  _atom_site_fract_x
  _atom_site_fract_y
  _atom_site_fract_z
  _atom_site_occupancy
  C   C1        1.0  0.007861381667609923  0.001317968490074232  8.325233918001563e-05  1.0000
  O   O1        1.0  0.007861381667609923  0.001317968490074232  0.00019929820028113775  1.0000
  Sb  Sb1       1.0  0.00041051884234612933  0.002535864908816349  0.999426664300673  1.0000
  Sb  Sb2       1.0  0.003743852314171156  0.002535864908816349  0.9995612738077444  1.0000
  Sb  Sb3       1.0  0.007077185528470306  0.002535864908816349  0.9992920543753986  1.0000
  Sb  Sb4       1.0  0.006521629700230284  0.007535864811222193  0.9996061437886438  1.0000
  Sb  Sb5       1.0  0.009854963601265103  0.007535864811222193  0.9993369243424317  1.0000
  Sb  Sb6       1.0  0.003188296829298968  0.007535864811222193  0.9994715342694392  1.0000
  Pd  Pd1       1.0  0.00013274105339469553  3.586499827765834e-05  0.9995837093764607  1.0000
  Pd  Pd2       1.0  0.003466074450108008  3.586499827765834e-05  0.9993144893640239  1.0000
  Pd  Pd3       1.0  0.006799408007774993  3.586499827765834e-05  0.9994490988693622  1.0000
  Pd  Pd4       1.0  0.008466074537758217  0.005035864941347734  0.9993144893611047  1.0000
  Pd  Pd5       1.0  0.001799407765792081  0.005035864941347734  0.9994490992881122  1.0000
  Pd  Pd6       1.0  0.0051327413234590665  0.005035864941347734  0.9995837093698582  1.0000
  Sb  Sb7       1.0  0.00037648415510104904  0.0027614982051003384  0.9998300022244322  1.0000
  Sb  Sb8       1.0  0.0038655904620971972  0.0022279376179197654  0.9999669333510495  1.0000
  Sb  Sb9       1.0  0.007077185528470306  0.002535864908816349  0.9996958838964235  1.0000
  Sb  Sb10      1.0  0.006141507065880816  0.007783658324474387  0.9999926682945888  1.0000
  Sb  Sb11      1.0  0.009867258823665537  0.007509576849437879  0.9997364990729624  1.0000
  Sb  Sb12      1.0  0.003173453308914763  0.007581874599994088  0.9998697782172772  1.0000
  Pd  Pd7       1.0  0.0003195639965117064  0.009964134928526725  0.999944348459954  1.0000
  Pd  Pd8       1.0  0.003466074450108008  3.586499827765834e-05  0.9997183188850489  1.0000
  Pd  Pd9       1.0  0.0068166488900017015  6.503019842947842e-05  0.9998441230173243  1.0000
  Pd  Pd10      1.0  0.008466074537758217  0.005035864941347734  0.9997183188821296  1.0000
  Pd  Pd11      1.0  0.001912219895212392  0.004970225714722341  0.9998414270955736  1.0000
  Pd  Pd12      1.0  0.004997901554027095  0.005081766075292929  0.9999648015260854  1.0000
