data_image0
_chemical_formula_structural       HNi6Mo2Ni6Mo2Ni6Mo2Ni6Mo2
_chemical_formula_sum              "H1 Ni24 Mo8"
_cell_length_a       5.0714006423950195
_cell_length_b       8.525642395019531
_cell_length_c       101.44571685791016
_cell_angle_alpha    90.0
_cell_angle_beta     90.0
_cell_angle_gamma    90.0

_space_group_name_H-M_alt    "P 1"
_space_group_IT_number       1

loop_
  _space_group_symop_operation_xyz
  'x, y, z'

loop_
  _atom_site_type_symbol
  _atom_site_label
  _atom_site_symmetry_multiplicity
  _atom_site_fract_x
  _atom_site_fract_y
  _atom_site_fract_z
  _atom_site_occupancy
  H   H1        1.0  0.006258606643290234  0.004999999772785338  4.979915400769199e-05  1.0000
  Ni  Ni1       1.0  0.006232637449134964  0.0037499997203511853  0.9997779299804094  1.0000
  Ni  Ni2       1.0  0.00627246941680587  0.0012499998339585163  0.9996378975114338  1.0000
  Ni  Ni3       1.0  0.003759370124229256  0.0037499997203511853  0.0  1.0000
  Ni  Ni4       1.0  0.008757843162351214  0.0012500000524341527  0.9998567001537525  1.0000
  Ni  Ni5       1.0  0.0012421566980808047  0.0012499998339585163  0.9996378975114338  1.0000
  Ni  Ni6       1.0  0.001280262705640347  0.0037500001573024582  0.999777927630201  1.0000
  Mo  Mo1       1.0  0.008757312069448934  0.0037500001573024582  0.9999838904963061  1.0000
  Mo  Mo2       1.0  0.003757788598615693  0.0012499998339585163  0.9998701956381184  1.0000
  Ni  Ni7       1.0  0.006242156720117855  0.0037499997203511853  0.9993370285284469  1.0000
  Ni  Ni8       1.0  0.00627246941680587  0.0012499998339585163  0.9991950747640785  1.0000
  Ni  Ni9       1.0  0.0037573129656222966  0.0037499997203511853  0.9995611520426545  1.0000
  Ni  Ni10      1.0  0.008757312804017264  0.0012499998339585163  0.9994137742910023  1.0000
  Ni  Ni11      1.0  0.0012421566980808047  0.0012499998339585163  0.9991950747640785  1.0000
  Ni  Ni12      1.0  0.0012724693029477793  0.0037499997203511853  0.9993370285284469  1.0000
  Mo  Mo3       1.0  0.008757312804017264  0.0037499997203511853  0.9995563282398489  1.0000
  Mo  Mo4       1.0  0.0037573129656222966  0.0012499998339585163  0.999418598093808  1.0000
  Ni  Ni13      1.0  0.006232637449134964  0.008749999930087796  0.9997779299804094  1.0000
  Ni  Ni14      1.0  0.00627246941680587  0.006249999825219491  0.9996378975114338  1.0000
  Ni  Ni15      1.0  0.003759370124229256  0.008749999930087796  0.0  1.0000
  Ni  Ni16      1.0  0.008757843162351214  0.006249999825219491  0.9998567001537525  1.0000
  Ni  Ni17      1.0  0.0012421566980808047  0.006249999825219491  0.9996378975114338  1.0000
  Ni  Ni18      1.0  0.001280262705640347  0.008749999930087796  0.999777927630201  1.0000
  Mo  Mo5       1.0  0.008757312069448934  0.008749999930087796  0.9999838904963061  1.0000
  Mo  Mo6       1.0  0.003757788598615693  0.006249999825219491  0.9998701956381184  1.0000
  Ni  Ni19      1.0  0.006242156720117855  0.008749999930087796  0.9993370285284469  1.0000
  Ni  Ni20      1.0  0.00627246941680587  0.006249999825219491  0.9991950747640785  1.0000
  Ni  Ni21      1.0  0.0037573129656222966  0.008749999930087796  0.9995611520426545  1.0000
  Ni  Ni22      1.0  0.008757312804017264  0.006249999825219491  0.9994137742910023  1.0000
  Ni  Ni23      1.0  0.0012421566980808047  0.006249999825219491  0.9991950747640785  1.0000
  Ni  Ni24      1.0  0.0012724693029477793  0.008749999930087796  0.9993370285284469  1.0000
  Mo  Mo7       1.0  0.008757312804017264  0.008749999930087796  0.9995563282398489  1.0000
  Mo  Mo8       1.0  0.0037573129656222966  0.006249999825219491  0.999418598093808  1.0000
