data_image0
_chemical_formula_structural       COCu4Se8W2
_chemical_formula_sum              "C1 O1 Cu4 Se8 W2"
_cell_length_a       5.66095495223999
_cell_length_b       7.013256902346352
_cell_length_c       100.55831146240234
_cell_angle_alpha    93.68948942810691
_cell_angle_beta     90.0
_cell_angle_gamma    113.80277373163868

_space_group_name_H-M_alt    "P 1"
_space_group_IT_number       1

loop_
  _space_group_symop_operation_xyz
  'x, y, z'

loop_
  _atom_site_type_symbol
  _atom_site_label
  _atom_site_symmetry_multiplicity
  _atom_site_fract_x
  _atom_site_fract_y
  _atom_site_fract_z
  _atom_site_occupancy
  C   C1        1.0  0.0015337882208693154  0.007839768540498364  8.529366846855659e-05  1.0000
  O   O1        1.0  0.0015337882208693154  0.007839768540498364  0.00020462765632277535  1.0000
  Cu  Cu1       1.0  0.006406754482807913  0.0024069260861349574  0.9991427225664158  1.0000
  Cu  Cu2       1.0  0.000573420839655124  0.0007402594233483043  0.9993959610871911  1.0000
  Cu  Cu3       1.0  0.004740087580428436  0.009073593028282579  0.9996492000270477  1.0000
  Cu  Cu4       1.0  0.008979510984259738  0.007670162094731974  0.9999162739776505  1.0000
  Se  Se1       1.0  0.009426579371237212  0.003618117679485511  0.9993366851591612  1.0000
  Se  Se2       1.0  0.005460044457167532  0.005341964876429704  0.999074758264119  1.0000
  Se  Se3       1.0  0.006548720707893822  0.007862400852930008  0.9994552371353218  1.0000
  Se  Se4       1.0  0.002525005569683974  0.00947188727256013  0.9992106866937506  1.0000
  Se  Se5       1.0  0.007623523695102267  0.0005281128496602934  0.9998555384729378  1.0000
  Se  Se6       1.0  0.0037933778671311305  0.002008631696356902  0.9995812356026913  1.0000
  Se  Se7       1.0  0.004994019885979458  0.005314122481942666  2.3849363578346606e-05  1.0000
  Se  Se8       1.0  0.0008769908277810272  0.00617019972465438  0.9997332177872742  1.0000
  W   W1        1.0  0.005573421151414588  0.0007402594233483043  0.9993959610871911  1.0000
  W   W2        1.0  0.0038977493104398442  0.007628742175192403  0.9999089710936095  1.0000
