data_image0
_chemical_formula_structural       COPt12Sn12
_chemical_formula_sum              "C1 O1 Pt12 Sn12"
_cell_length_a       9.14922032658779
_cell_length_b       6.955391768698989
_cell_length_c       98.1126937866211
_cell_angle_alpha    86.05535552123635
_cell_angle_beta     89.06124458338016
_cell_angle_gamma    93.79692302955267

_space_group_name_H-M_alt    "P 1"
_space_group_IT_number       1

loop_
  _space_group_symop_operation_xyz
  'x, y, z'

loop_
  _atom_site_type_symbol
  _atom_site_label
  _atom_site_symmetry_multiplicity
  _atom_site_fract_x
  _atom_site_fract_y
  _atom_site_fract_z
  _atom_site_occupancy
  C   C1        1.0  0.003987859617655421  0.008614451424719985  0.00011615026028292194  1.0000
  O   O1        1.0  0.003987859617655421  0.008614451424719985  0.00023845884091157267  1.0000
  Pt  Pt1       1.0  0.009027777886619444  0.008789682751847074  0.9999391550324083  1.0000
  Pt  Pt2       1.0  0.005694444569612361  0.004980158733119178  0.999802710291304  1.0000
  Pt  Pt3       1.0  0.0023611110485271527  0.0011706349646607639  0.999666265245535  1.0000
  Pt  Pt4       1.0  0.0006944444410431423  0.00426587316384846  0.9995980426901154  1.0000
  Pt  Pt5       1.0  0.007361111024037778  0.0018849206545249264  0.9998709325426133  1.0000
  Pt  Pt6       1.0  0.004027777707030694  0.008075396641165725  0.999734487737694  1.0000
  Pt  Pt7       1.0  0.009027777886619444  0.0073611110349001176  0.9995298200557198  1.0000
  Pt  Pt8       1.0  0.005694444569612361  0.003551587284606889  0.9993933750095504  1.0000
  Pt  Pt9       1.0  0.0023611110485271527  0.009742063924169169  0.9992569298980027  1.0000
  Pt  Pt10      1.0  0.0006944444410431423  0.0028373014469015036  0.9991887071059149  1.0000
  Pt  Pt11      1.0  0.007361111024037778  0.00045634927312130356  0.9994615975642884  1.0000
  Pt  Pt12      1.0  0.004027777707030694  0.006646825461088102  0.9993251524546314  1.0000
  Sn  Sn1       1.0  0.00930555596915389  0.0006547620212549089  0.9996776353634642  1.0000
  Sn  Sn2       1.0  0.005972222243990555  0.008273809420077625  0.9999505255373433  1.0000
  Sn  Sn3       1.0  0.002638888926983472  0.0044642856697843965  0.99981408079493  1.0000
  Sn  Sn4       1.0  0.008749999804085  0.0054960314916889215  0.9997913397897878  1.0000
  Sn  Sn5       1.0  0.005416666895234166  0.001686508046160733  0.9996548947415086  1.0000
  Sn  Sn6       1.0  0.002083333374148958  0.00930555559736597  0.9999277849143329  1.0000
  Sn  Sn7       1.0  0.00930555596915389  0.009226190578111313  0.9992683003216517  1.0000
  Sn  Sn8       1.0  0.005972222243990555  0.006845238240000002  0.9995411905580367  1.0000
  Sn  Sn9       1.0  0.002638888926983472  0.0030357142212721067  0.9994047452094204  1.0000
  Sn  Sn10      1.0  0.008749999804085  0.0040674603116112994  0.9993820045067252  1.0000
  Sn  Sn11      1.0  0.005416666895234166  0.0002579365808712766  0.9992455594598368  1.0000
  Sn  Sn12      1.0  0.002083333374148958  0.007876983880419013  0.9995184496338884  1.0000
