data_image0
_chemical_formula_structural       COIn2Au6In2Au6
_chemical_formula_sum              "C1 O1 In4 Au12"
_cell_length_a       5.191948413848877
_cell_length_b       4.829451084136963
_cell_length_c       107.28762817382812
_cell_angle_alpha    90.0
_cell_angle_beta     90.0
_cell_angle_gamma    90.0

_space_group_name_H-M_alt    "P 1"
_space_group_IT_number       1

loop_
  _space_group_symop_operation_xyz
  'x, y, z'

loop_
  _atom_site_type_symbol
  _atom_site_label
  _atom_site_symmetry_multiplicity
  _atom_site_fract_x
  _atom_site_fract_y
  _atom_site_fract_z
  _atom_site_occupancy
  C   C1        1.0  0.0012425777409511857  0.007500000555385896  8.822004669329655e-05  1.0000
  O   O1        1.0  0.0012425777409511857  0.007500000555385896  0.00020006858802378314  1.0000
  In  In1       1.0  0.00873588393693968  0.007500000555385896  0.9998535595558554  1.0000
  In  In2       1.0  0.002121420177141897  0.0025000001851286317  0.9995639359120247  1.0000
  Au  Au1       1.0  0.0020998818729705865  0.0025000001851286317  0.9998535595558554  1.0000
  Au  Au2       1.0  0.008757421523598026  0.007500000555385896  0.9995639359120247  1.0000
  Au  Au3       1.0  0.007108032138611106  0.0025000001851286317  0.9997103769117286  1.0000
  Au  Au4       1.0  0.003749271437335747  0.007500000555385896  0.9997071185561516  1.0000
  Au  Au5       1.0  0.007108032138611106  0.0025000001851286317  0.9999967421999824  1.0000
  Au  Au6       1.0  0.003749271437335747  0.007500000555385896  0.0  1.0000
  In  In3       1.0  0.00873588393693968  0.007500000555385896  0.999274312268194  1.0000
  In  In4       1.0  0.002121420177141897  0.0025000001851286317  0.9989846889021429  1.0000
  Au  Au7       1.0  0.0020998818729705865  0.0025000001851286317  0.999274312268194  1.0000
  Au  Au8       1.0  0.008757421523598026  0.007500000555385896  0.9989846889021429  1.0000
  Au  Au9       1.0  0.007108032138611106  0.0025000001851286317  0.9991311296240671  1.0000
  Au  Au10      1.0  0.003749271437335747  0.007500000555385896  0.9991278715462698  1.0000
  Au  Au11      1.0  0.007108032138611106  0.0025000001851286317  0.9994174949123208  1.0000
  Au  Au12      1.0  0.003749271437335747  0.007500000555385896  0.9994207532678978  1.0000
