data_image0
_chemical_formula_structural       HNi2Sb2Ni2Sb2Ni2Sb2Ni2Sb2Ni2Sb2Ni2Sb2
_chemical_formula_sum              "H1 Ni12 Sb12"
_cell_length_a       8.011988279950899
_cell_length_b       5.199098587036133
_cell_length_c       106.05394744873047
_cell_angle_alpha    90.0
_cell_angle_beta     120.00000148586788
_cell_angle_gamma    90.0

_space_group_name_H-M_alt    "P 1"
_space_group_IT_number       1

loop_
  _space_group_symop_operation_xyz
  'x, y, z'

loop_
  _atom_site_type_symbol
  _atom_site_label
  _atom_site_symmetry_multiplicity
  _atom_site_fract_x
  _atom_site_fract_y
  _atom_site_fract_z
  _atom_site_occupancy
  H   H1        1.0  0.0036605605006381574  0.0037499448274834223  0.00032698784193770076  1.0000
  Ni  Ni1       1.0  8.750010148653798e-05  0.00125  0.9994566980781255  1.0000
  Ni  Ni2       1.0  8.750010148653798e-05  0.00625  0.9994566980781255  1.0000
  Sb  Sb1       1.0  0.003420833486384142  0.0037500000000000003  0.9992048768120231  1.0000
  Sb  Sb2       1.0  0.0017541668232967738  0.00875  0.9993307873056779  1.0000
  Ni  Ni3       1.0  8.750010148653798e-05  0.00125  0.999834429929619  1.0000
  Ni  Ni4       1.0  8.750010148653798e-05  0.00625  0.999834429929619  1.0000
  Sb  Sb3       1.0  0.003420833486384142  0.0037500000000000003  0.9995826086635164  1.0000
  Sb  Sb4       1.0  0.0017541668232967738  0.00875  0.9997085188761603  1.0000
  Ni  Ni5       1.0  0.009912362104800763  0.001318526415167885  0.00018554042894111168  1.0000
  Ni  Ni6       1.0  0.009912499549867407  0.00618136323979896  0.00018556079526992045  1.0000
  Sb  Sb5       1.0  0.0033673069547959667  0.003750334617730412  0.9999523617774726  1.0000
  Sb  Sb6       1.0  0.0018436318842196431  0.008749228301294104  0.00010000980916862843  1.0000
  Ni  Ni7       1.0  0.00508750014947151  0.00125  0.9994566978888506  1.0000
  Ni  Ni8       1.0  0.00508750014947151  0.00625  0.9994566978888506  1.0000
  Sb  Sb7       1.0  0.008420833475646245  0.0037500000000000003  0.9992048769015409  1.0000
  Sb  Sb8       1.0  0.006754167081006274  0.00875  0.9993307874053359  1.0000
  Ni  Ni9       1.0  0.00508750014947151  0.00125  0.999834430021355  1.0000
  Ni  Ni10      1.0  0.00508750014947151  0.00625  0.999834430021355  1.0000
  Sb  Sb9       1.0  0.008420833475646245  0.0037500000000000003  0.9995826084720234  1.0000
  Sb  Sb10      1.0  0.006754167081006274  0.00875  0.9997085192568294  1.0000
  Ni  Ni11      1.0  0.004912361847091264  0.001318526415167885  0.00018554032928309603  1.0000
  Ni  Ni12      1.0  0.004912499829052698  0.00618136323979896  0.00018556071589212572  1.0000
  Sb  Sb11      1.0  0.008367306675610675  0.003750334617730412  0.9999523612948285  1.0000
  Sb  Sb12      1.0  0.006843632007705445  0.008749228301294104  0.00010000990375658888  1.0000
