data_image0
_chemical_formula_structural       HRe32
_chemical_formula_sum              "H1 Re32"
_cell_length_a       5.564642542645726
_cell_length_b       9.418717260302412
_cell_length_c       106.17017364501953
_cell_angle_alpha    98.49376046284749
_cell_angle_beta     60.000000673490284
_cell_angle_gamma    81.50623901452964

_space_group_name_H-M_alt    "P 1"
_space_group_IT_number       1

loop_
  _space_group_symop_operation_xyz
  'x, y, z'

loop_
  _atom_site_type_symbol
  _atom_site_label
  _atom_site_symmetry_multiplicity
  _atom_site_fract_x
  _atom_site_fract_y
  _atom_site_fract_z
  _atom_site_occupancy
  H   H1        1.0  0.00906247740594309  0.0066892529064468305  7.802419828533933e-06  1.0000
  Re  Re1       1.0  0.0009528466042932559  0.0012520936578280513  0.9989508511198674  1.0000
  Re  Re2       1.0  0.003452846672748594  0.00625209357502896  0.9990818823134504  1.0000
  Re  Re3       1.0  0.0013695130039237677  0.0037520938234262345  0.9991037208601122  1.0000
  Re  Re4       1.0  0.0038695129894933435  0.008752093326631686  0.9989726896575188  1.0000
  Re  Re5       1.0  0.0009528466042932559  0.0012520936578280513  0.9992129135127914  1.0000
  Re  Re6       1.0  0.003452846672748594  0.00625209357502896  0.9993439447063744  1.0000
  Re  Re7       1.0  0.0013695130039237677  0.0037520938234262345  0.9993657832530363  1.0000
  Re  Re8       1.0  0.0038695129894933435  0.008752093326631686  0.9992347520504429  1.0000
  Re  Re9       1.0  0.0009528466042932559  0.0012520936578280513  0.9994749759057154  1.0000
  Re  Re10      1.0  0.003452846672748594  0.00625209357502896  0.9996060070992985  1.0000
  Re  Re11      1.0  0.0013045073343530497  0.003829907581641229  0.9996325741479732  1.0000
  Re  Re12      1.0  0.0038695129894933435  0.008752093326631686  0.9994968144433669  1.0000
  Re  Re13      1.0  0.0009375225815139059  0.0012479064042712673  0.9997381530219318  1.0000
  Re  Re14      1.0  0.003547323348503028  0.0061913645813571954  0.9998598827588102  1.0000
  Re  Re15      1.0  0.0014654208470652858  0.003748959049821472  0.9998796886940529  1.0000
  Re  Re16      1.0  0.00384374950266638  0.008751388706362892  0.9997615104981409  1.0000
  Re  Re17      1.0  0.005952846631349049  0.0012520936578280513  0.9989508511079301  1.0000
  Re  Re18      1.0  0.008452846796432217  0.00625209357502896  0.9990818822989811  1.0000
  Re  Re19      1.0  0.006369512741096069  0.0037520938234262345  0.9991037208557718  1.0000
  Re  Re20      1.0  0.00886951388619961  0.008752093326631686  0.9989726896227914  1.0000
  Re  Re21      1.0  0.005952846631349049  0.0012520936578280513  0.9992129135008542  1.0000
  Re  Re22      1.0  0.008452846796432217  0.00625209357502896  0.999343944691905  1.0000
  Re  Re23      1.0  0.006369512741096069  0.0037520938234262345  0.9993657832486958  1.0000
  Re  Re24      1.0  0.00886951388619961  0.008752093326631686  0.9992347520157154  1.0000
  Re  Re25      1.0  0.005952846631349049  0.0012520936578280513  0.9994749758937782  1.0000
  Re  Re26      1.0  0.008452846796432217  0.00625209357502896  0.999606007084829  1.0000
  Re  Re27      1.0  0.006304507071525351  0.003829907581641229  0.9996325741436328  1.0000
  Re  Re28      1.0  0.00886951388619961  0.008752093326631686  0.9994968144086395  1.0000
  Re  Re29      1.0  0.005937522511941868  0.0012479064042712673  0.9997381530125269  1.0000
  Re  Re30      1.0  0.00854732347218665  0.0061913645813571954  0.9998598827443408  1.0000
  Re  Re31      1.0  0.0064654205842375875  0.003748959049821472  0.9998796886897124  1.0000
  Re  Re32      1.0  0.008843748853327359  0.008751388706362892  0.9997615105039296  1.0000
