data_image0
_chemical_formula_structural       HFe24
_chemical_formula_sum              "H1 Fe24"
_cell_length_a       5.551510810852051
_cell_length_b       5.551510810852051
_cell_length_c       100.53330993652344
_cell_angle_alpha    90.0
_cell_angle_beta     90.0
_cell_angle_gamma    90.0

_space_group_name_H-M_alt    "P 1"
_space_group_IT_number       1

loop_
  _space_group_symop_operation_xyz
  'x, y, z'

loop_
  _atom_site_type_symbol
  _atom_site_label
  _atom_site_symmetry_multiplicity
  _atom_site_fract_x
  _atom_site_fract_y
  _atom_site_fract_z
  _atom_site_occupancy
  H   H1        1.0  0.0025001660222062324  0.0025014089575422925  0.00012255160504942588  1.0000
  Fe  Fe1       1.0  9.00000007312002e-10  1.3049999962034293e-07  0.9994529395101441  1.0000
  Fe  Fe2       1.0  0.002500000946167539  0.0025001306248036265  0.9993148881246802  1.0000
  Fe  Fe3       1.0  0.009999999087384501  0.009999869576508615  0.9997377055099065  1.0000
  Fe  Fe4       1.0  0.002500000946167539  0.0025001306248036265  0.9995909911920504  1.0000
  Fe  Fe5       1.0  1.6590000300106118e-07  1.4088999795732492e-06  0.0  1.0000
  Fe  Fe6       1.0  0.0024998984446841627  0.0024991930130350694  0.9998820047126068  1.0000
  Fe  Fe7       1.0  9.00000007312002e-10  0.005000130732170155  0.9994529395101441  1.0000
  Fe  Fe8       1.0  0.002500000946167539  0.007500130504016281  0.9993148881246802  1.0000
  Fe  Fe9       1.0  0.009999999087384501  0.004999869697295961  0.9997377055099065  1.0000
  Fe  Fe10      1.0  0.002500000946167539  0.007500130504016281  0.9995909911920504  1.0000
  Fe  Fe11      1.0  1.6590000300106118e-07  0.0050014090649088214  0.0  1.0000
  Fe  Fe12      1.0  0.0024998984446841627  0.007499193060007926  0.9998820047126068  1.0000
  Fe  Fe13      1.0  0.005000000885773866  1.3049999962034293e-07  0.9994529395101441  1.0000
  Fe  Fe14      1.0  0.007500000993140395  0.0025001306248036265  0.9993148881246802  1.0000
  Fe  Fe15      1.0  0.004999999208171847  0.009999869576508615  0.9997377055099065  1.0000
  Fe  Fe16      1.0  0.007500000993140395  0.0025001306248036265  0.9995909911920504  1.0000
  Fe  Fe17      1.0  0.00500016596181256  1.4088999795732492e-06  0.0  1.0000
  Fe  Fe18      1.0  0.007499898323896817  0.0024991930130350694  0.9998820047126068  1.0000
  Fe  Fe19      1.0  0.005000000885773866  0.005000130732170155  0.9994529395101441  1.0000
  Fe  Fe20      1.0  0.007500000993140395  0.007500130504016281  0.9993148881246802  1.0000
  Fe  Fe21      1.0  0.004999999208171847  0.004999869697295961  0.9997377055099065  1.0000
  Fe  Fe22      1.0  0.007500000993140395  0.007500130504016281  0.9995909911920504  1.0000
  Fe  Fe23      1.0  0.00500016596181256  0.0050014090649088214  0.0  1.0000
  Fe  Fe24      1.0  0.007499898323896817  0.007499193060007926  0.9998820047126068  1.0000
