data_image0
_chemical_formula_structural       HCu6Ru18
_chemical_formula_sum              "H1 Cu6 Ru18"
_cell_length_a       4.728821671492763
_cell_length_b       7.075754483375576
_cell_length_c       104.20415496826172
_cell_angle_alpha    89.25029716419046
_cell_angle_beta     88.87817703039264
_cell_angle_gamma    87.28771735499056

_space_group_name_H-M_alt    "P 1"
_space_group_IT_number       1

loop_
  _space_group_symop_operation_xyz
  'x, y, z'

loop_
  _atom_site_type_symbol
  _atom_site_label
  _atom_site_symmetry_multiplicity
  _atom_site_fract_x
  _atom_site_fract_y
  _atom_site_fract_z
  _atom_site_occupancy
  H   H1        1.0  0.006586279901828824  0.00925126306311947  0.00016036443811274972  1.0000
  Cu  Cu1       1.0  0.0008333333774826342  0.00035714285093041653  0.9995669865874652  1.0000
  Cu  Cu2       1.0  0.004166666852331749  0.008928570976757567  0.9992543750925504  1.0000
  Cu  Cu3       1.0  0.007500000064012844  0.004642857160929697  0.9994106807844211  1.0000
  Cu  Cu4       1.0  0.0008333332959822602  0.007500000231931115  3.590326704229014e-05  1.0000
  Cu  Cu5       1.0  0.004166666895548902  0.006071428432872321  0.9997232918827746  1.0000
  Cu  Cu6       1.0  0.007500000529048907  0.0017857142217073219  0.9998795975746219  1.0000
  Ru  Ru1       1.0  0.0058333333445818375  0.0024999999894576765  0.9992152987246806  1.0000
  Ru  Ru2       1.0  0.009166666940251462  0.008214285867902427  0.9993716043056571  1.0000
  Ru  Ru3       1.0  0.0025000001575503153  0.003928571524958385  0.9995279098228166  1.0000
  Ru  Ru4       1.0  0.002500000135941739  0.005357142796901008  0.999293451570704  1.0000
  Ru  Ru5       1.0  0.005833333577099869  0.001071428519846489  0.9994497572627807  1.0000
  Ru  Ru6       1.0  0.009166666684523954  0.009642857666961222  0.9991371460532843  1.0000
  Ru  Ru7       1.0  0.007499999845420499  0.006071428432872321  0.9991762225324836  1.0000
  Ru  Ru8       1.0  0.0008333333489112147  0.0017857142217073219  0.9993325280492718  1.0000
  Ru  Ru9       1.0  0.004166666639821395  0.007500000231931115  0.9994888336304019  1.0000
  Ru  Ru10      1.0  0.005833333340684819  0.009642857666961222  0.9996842156899247  1.0000
  Ru  Ru11      1.0  0.009166666626636238  0.005357142796901008  0.9998405213826661  1.0000
  Ru  Ru12      1.0  0.0025000000362769654  0.001071428519846489  0.9999968268995961  1.0000
  Ru  Ru13      1.0  0.002500000197726473  0.0024999999894576765  0.9997623686471454  1.0000
  Ru  Ru14      1.0  0.005833333596412327  0.008214285867902427  0.9999186739422975  1.0000
  Ru  Ru15      1.0  0.009166667195978969  0.006785714068843632  0.9996060625580299  1.0000
  Ru  Ru16      1.0  0.0075000003011727705  0.003214285625428988  0.9996451393225756  1.0000
  Ru  Ru17      1.0  0.0008333334100007299  0.008928570976757567  0.9998014450152777  1.0000
  Ru  Ru18      1.0  0.004166666720173709  0.004642857160929697  0.9999577507070608  1.0000
