data_image0
_chemical_formula_structural       HCo4Sb8Co4Sb8Co4Sb8
_chemical_formula_sum              "H1 Co12 Sb24"
_cell_length_a       6.46622371673584
_cell_length_b       11.834633828810267
_cell_length_c       104.2194595336914
_cell_angle_alpha    106.80687959075435
_cell_angle_beta     90.0
_cell_angle_gamma    90.0

_space_group_name_H-M_alt    "P 1"
_space_group_IT_number       1

loop_
  _space_group_symop_operation_xyz
  'x, y, z'

loop_
  _atom_site_type_symbol
  _atom_site_label
  _atom_site_symmetry_multiplicity
  _atom_site_fract_x
  _atom_site_fract_y
  _atom_site_fract_z
  _atom_site_occupancy
  H   H1        1.0  0.007247020382460905  0.0014592842323433144  0.0002454323848246841  1.0000
  Co  Co1       1.0  0.000187245802238548  0.005502634310225786  0.9993650478026339  1.0000
  Co  Co2       1.0  0.000187245802238548  0.0005026344384673331  0.9995292178651334  1.0000
  Co  Co3       1.0  0.005187245785675233  0.0030026344154496197  0.9994471328352332  1.0000
  Co  Co4       1.0  0.005187245785675233  0.008002634205001953  0.9992829624840772  1.0000
  Sb  Sb1       1.0  0.00661882600758046  0.0044973652688788815  0.9993320407596146  1.0000
  Sb  Sb2       1.0  0.00661882600758046  0.009497365058431215  0.999496210948253  1.0000
  Sb  Sb3       1.0  0.0037556658518276475  0.00150790323319588  0.9992338846462181  1.0000
  Sb  Sb4       1.0  0.0037556658518276475  0.006507903351572692  0.9993980548456531  1.0000
  Sb  Sb5       1.0  0.00875566581726073  0.001997365538514953  0.9994141257976122  1.0000
  Sb  Sb6       1.0  0.00875566581726073  0.006997365163655048  0.9992499554410579  1.0000
  Sb  Sb7       1.0  0.0016188257540897364  0.004007903127972047  0.9994801398674559  1.0000
  Sb  Sb8       1.0  0.0016188257540897364  0.009007903246348859  0.9993159698130538  1.0000
  Co  Co5       1.0  0.000187245802238548  0.005502634310225786  0.999693388056471  1.0000
  Co  Co6       1.0  0.000187245802238548  0.0005026344384673331  0.9998575581189706  1.0000
  Co  Co7       1.0  0.005187245785675233  0.0030026344154496197  0.9997754733750277  1.0000
  Co  Co8       1.0  0.005187245785675233  0.008002634205001953  0.9996113030238717  1.0000
  Sb  Sb9       1.0  0.00661882600758046  0.0044973652688788815  0.9996603810134517  1.0000
  Sb  Sb10      1.0  0.00661882600758046  0.009497365058431215  0.9998245512020902  1.0000
  Sb  Sb11      1.0  0.0037556658518276475  0.00150790323319588  0.9995622249000552  1.0000
  Sb  Sb12      1.0  0.0037556658518276475  0.006507903351572692  0.9997263950994904  1.0000
  Sb  Sb13      1.0  0.00875566581726073  0.001997365538514953  0.9997424663374067  1.0000
  Sb  Sb14      1.0  0.00875566581726073  0.006997365163655048  0.9995782959808523  1.0000
  Sb  Sb15      1.0  0.0016188257540897364  0.004007903127972047  0.9998084804072505  1.0000
  Sb  Sb16      1.0  0.0016188257540897364  0.009007903246348859  0.999644310066891  1.0000
  Co  Co9       1.0  0.00027498810563911593  0.005459813471394859  5.124838908622857e-06  1.0000
  Co  Co10      1.0  0.009812753822566375  0.0005188381277880106  0.0001379520527062588  1.0000
  Co  Co11      1.0  0.0050995114938778025  0.0031099380632526553  7.408114291428017e-05  1.0000
  Co  Co12      1.0  0.005223805485340161  0.008052485968822767  0.9999429532490346  1.0000
  Sb  Sb17      1.0  0.0066306565348913105  0.004642397579645603  0.9999905064476474  1.0000
  Sb  Sb18      1.0  0.006828795830938537  0.009422890917693244  0.0001473664082197278  1.0000
  Sb  Sb19      1.0  0.0037556658518276475  0.00150790323319588  0.9998905651538924  1.0000
  Sb  Sb20      1.0  0.003619869142649757  0.006552362393953316  4.761525838139735e-05  1.0000
  Sb  Sb21      1.0  0.008545695993902654  0.002189582188936463  7.189282722537875e-05  1.0000
  Sb  Sb22      1.0  0.008796591318530802  0.0070210655167357245  0.9999107140750838  1.0000
  Sb  Sb23      1.0  0.0017178206511555415  0.0041077375277559424  0.0001336668745438172  1.0000
  Sb  Sb24      1.0  0.0016363212229660899  0.00899353230135971  0.9999709977465842  1.0000
