data_image0
_chemical_formula_structural       COCa8Pb4
_chemical_formula_sum              "C1 O1 Ca8 Pb4"
_cell_length_a       9.856254577636719
_cell_length_b       5.231949806213379
_cell_length_c       102.44104766845703
_cell_angle_alpha    90.0
_cell_angle_beta     90.0
_cell_angle_gamma    90.0

_space_group_name_H-M_alt    "P 1"
_space_group_IT_number       1

loop_
  _space_group_symop_operation_xyz
  'x, y, z'

loop_
  _atom_site_type_symbol
  _atom_site_label
  _atom_site_symmetry_multiplicity
  _atom_site_fract_x
  _atom_site_fract_y
  _atom_site_fract_z
  _atom_site_occupancy
  C   C1        1.0  0.003913616858539964  0.0025000549471350035  5.954235979883449e-05  1.0000
  O   O1        1.0  0.003913616858539964  0.0025000549471350035  0.00017668314068514747  1.0000
  Ca  Ca1       1.0  0.009372977600601526  0.002500015251621508  0.9996094195982946  1.0000
  Ca  Ca2       1.0  0.0006270219571828611  0.007499930050452991  0.9999200407562199  1.0000
  Ca  Ca3       1.0  0.005510984690226406  0.0025000666955829437  0.0  1.0000
  Ca  Ca4       1.0  0.004372977963445106  0.007500015493710739  0.9994645999462805  1.0000
  Ca  Ca5       1.0  0.003089231144555237  0.0025000380364902405  0.999717170590817  1.0000
  Ca  Ca6       1.0  0.006987519940673623  0.007500006949384964  0.9997634690317448  1.0000
  Ca  Ca7       1.0  0.0019263822943412269  0.002500015251621508  0.9993221044676225  1.0000
  Ca  Ca8       1.0  0.00821821657155972  0.007500015493710739  0.9993560646288905  1.0000
  Pb  Pb1       1.0  0.008664564820650773  0.002499944938940653  0.9999122818748323  1.0000
  Pb  Pb2       1.0  0.0011653740147466404  0.007500015493710739  0.9995354946521425  1.0000
  Pb  Pb3       1.0  0.006165373840884092  0.002500015251621508  0.9995385248924326  1.0000
  Pb  Pb4       1.0  0.003913616858539964  0.007500054655203873  0.999890465075694  1.0000
