data_image0
_chemical_formula_structural       COAl3Cu3Pt6Al3Cu3Pt6Al3Cu3Pt6Al3Cu3Pt6
_chemical_formula_sum              "C1 O1 Al12 Cu12 Pt24"
_cell_length_a       8.052592277526855
_cell_length_b       8.163607363361413
_cell_length_c       102.21023559570312
_cell_angle_alpha    78.14182622476972
_cell_angle_beta     90.0
_cell_angle_gamma    90.0

_space_group_name_H-M_alt    "P 1"
_space_group_IT_number       1

loop_
  _space_group_symop_operation_xyz
  'x, y, z'

loop_
  _atom_site_type_symbol
  _atom_site_label
  _atom_site_symmetry_multiplicity
  _atom_site_fract_x
  _atom_site_fract_y
  _atom_site_fract_z
  _atom_site_occupancy
  C   C1        1.0  0.003749999861213998  0.007883612782837805  0.9999603658838067  1.0000
  O   O1        1.0  0.003749999861213998  0.007883612782837805  7.777119305728149e-05  1.0000
  Al  Al1       1.0  5.0000001267816075e-11  0.0008333333255620051  0.9993887390791465  1.0000
  Al  Al2       1.0  5.0000001267816075e-11  0.004166666511240101  0.999038586811424  1.0000
  Al  Al3       1.0  5.0000001267816075e-11  0.007499999813488122  0.9992136630344808  1.0000
  Cu  Cu1       1.0  0.0025000001387860023  0.009166666231472283  0.9990385870492787  1.0000
  Cu  Cu2       1.0  0.0025000001387860023  0.0025000000932559395  0.9992136630882047  1.0000
  Cu  Cu3       1.0  0.0025000001387860023  0.00583333339550396  0.9993887393112615  1.0000
  Pt  Pt1       1.0  5.0000001267816075e-11  0.0008333333255620051  0.9991261249785897  1.0000
  Pt  Pt2       1.0  5.0000001267816075e-11  0.004166666511240101  0.9993012012035595  1.0000
  Pt  Pt3       1.0  5.0000001267816075e-11  0.007499999813488122  0.9989510489339238  1.0000
  Pt  Pt4       1.0  0.0025000001387860023  0.0025000000932559395  0.9989510489876479  1.0000
  Pt  Pt5       1.0  0.0025000001387860023  0.00583333339550396  0.9991261249191259  1.0000
  Pt  Pt6       1.0  0.0025000001387860023  0.009166666231472283  0.9993012011498356  1.0000
  Al  Al4       1.0  0.009999999629903994  0.000838156056465949  0.9998941730362535  1.0000
  Al  Al5       1.0  5.0000001267816075e-11  0.004166666511240101  0.9995638155956951  1.0000
  Al  Al6       1.0  0.010000000555144009  0.0074926381896351325  0.9997435810965847  1.0000
  Cu  Cu4       1.0  0.0025000001387860023  0.009166666231472283  0.999563815541971  1.0000
  Cu  Cu5       1.0  0.0024999999074759986  0.0024657385605550354  0.999750576170106  1.0000
  Cu  Cu6       1.0  0.0024999992135459875  0.005876293142808714  0.9999035546106665  1.0000
  Pt  Pt7       1.0  0.009999999629903994  0.000837780351600257  0.9996450462408263  1.0000
  Pt  Pt8       1.0  0.009999999629903994  0.00410292514412892  0.9998224849076064  1.0000
  Pt  Pt9       1.0  5.0000001267816075e-11  0.007499999813488122  0.9994762774266163  1.0000
  Pt  Pt10      1.0  0.0025000001387860023  0.0025000000932559395  0.9994762774803402  1.0000
  Pt  Pt11      1.0  0.002499999676165995  0.005824152348274079  0.999650757363974  1.0000
  Pt  Pt12      1.0  0.002499999676165995  0.009165566743947242  0.9998308409035045  1.0000
  Al  Al7       1.0  0.0050000002775720045  0.0008333333255620051  0.9993887390791465  1.0000
  Al  Al8       1.0  0.0050000002775720045  0.004166666511240101  0.999038586811424  1.0000
  Al  Al9       1.0  0.0050000002775720045  0.007499999813488122  0.9992136630344808  1.0000
  Cu  Cu7       1.0  0.007500000647668011  0.009166666231472283  0.9990385870492787  1.0000
  Cu  Cu8       1.0  0.007500000647668011  0.0025000000932559395  0.9992136630882047  1.0000
  Cu  Cu9       1.0  0.007500000647668011  0.00583333339550396  0.9993887393112615  1.0000
  Pt  Pt13      1.0  0.0050000002775720045  0.0008333333255620051  0.9991261249785897  1.0000
  Pt  Pt14      1.0  0.0050000002775720045  0.004166666511240101  0.9993012012035595  1.0000
  Pt  Pt15      1.0  0.0050000002775720045  0.007499999813488122  0.9989510489339238  1.0000
  Pt  Pt16      1.0  0.007500000647668011  0.0025000000932559395  0.9989510489876479  1.0000
  Pt  Pt17      1.0  0.007500000647668011  0.00583333339550396  0.9991261249191259  1.0000
  Pt  Pt18      1.0  0.007500000647668011  0.009166666231472283  0.9993012011498356  1.0000
  Al  Al10      1.0  0.004999999814951997  0.000838156056465949  0.9998941730362535  1.0000
  Al  Al11      1.0  0.0050000002775720045  0.004166666511240101  0.9995638155956951  1.0000
  Al  Al12      1.0  0.0050000002775720045  0.0074926381896351325  0.9997435810965847  1.0000
  Cu  Cu10      1.0  0.007500000647668011  0.009166666231472283  0.999563815541971  1.0000
  Cu  Cu11      1.0  0.0075000001850480036  0.0024657385605550354  0.999750576170106  1.0000
  Cu  Cu12      1.0  0.007499999259807989  0.005876293142808714  0.9999035546106665  1.0000
  Pt  Pt19      1.0  0.00499999935233199  0.000837780351600257  0.9996450462408263  1.0000
  Pt  Pt20      1.0  0.004999999814951997  0.00410292514412892  0.9998224849076064  1.0000
  Pt  Pt21      1.0  0.0050000002775720045  0.007499999813488122  0.9994762774266163  1.0000
  Pt  Pt22      1.0  0.007500000647668011  0.0025000000932559395  0.9994762774803402  1.0000
  Pt  Pt23      1.0  0.007499999722427996  0.005824152348274079  0.999650757363974  1.0000
  Pt  Pt24      1.0  0.007499999722427996  0.009165566743947242  0.9998308409035045  1.0000
