data_image0
_chemical_formula_structural       COPt12Si4
_chemical_formula_sum              "C1 O1 Pt12 Si4"
_cell_length_a       5.623481306227635
_cell_length_b       5.623480900041227
_cell_length_c       38.82810974121094
_cell_angle_alpha    91.551599472576
_cell_angle_beta     91.55159936047592
_cell_angle_gamma    89.7766279940805

_space_group_name_H-M_alt    "P 1"
_space_group_IT_number       1

loop_
  _space_group_symop_operation_xyz
  'x, y, z'

loop_
  _atom_site_type_symbol
  _atom_site_label
  _atom_site_symmetry_multiplicity
  _atom_site_fract_x
  _atom_site_fract_y
  _atom_site_fract_z
  _atom_site_occupancy
  C   C1        1.0  0.003295096805000842  0.008715823073055688  0.00041555237291517397  1.0000
  O   O1        1.0  0.003295096805000842  0.008715823073055688  0.0007246070628682479  1.0000
  Pt  Pt1       1.0  0.004424043169515834  0.0006862221220804448  2.0040397434970074e-05  1.0000
  Pt  Pt2       1.0  0.00966282181741163  0.0051451516068787015  0.9989909373134509  1.0000
  Pt  Pt3       1.0  0.0006862216123327782  0.004424044261806709  2.004039971946936e-05  1.0000
  Pt  Pt4       1.0  0.0051451507935043415  0.009662822651727543  0.998990937313533  1.0000
  Pt  Pt5       1.0  0.00283395511755838  0.006970526290553894  0.9994898506342134  1.0000
  Pt  Pt6       1.0  0.008059282021640817  0.0017486911269836542  0.9984891763522444  1.0000
  Pt  Pt7       1.0  0.006970526314048745  0.00283395557062056  0.9994898510198548  1.0000
  Pt  Pt8       1.0  0.0017486905278918366  0.00805928315813055  0.9984891763543519  1.0000
  Pt  Pt9       1.0  0.0030890909133368433  0.003089091387448764  0.9985597117528878  1.0000
  Pt  Pt10      1.0  0.007608775901324285  0.0076087757119805205  0.9997115083096991  1.0000
  Pt  Pt11      1.0  0.0018248340536332298  0.001824833921258715  0.9993772021836839  1.0000
  Pt  Pt12      1.0  0.006718882133217559  0.006718882897665441  0.9984186409556576  1.0000
  Si  Si1       1.0  0.0003371778338597099  0.00033717741951260383  0.9999213212350048  1.0000
  Si  Si2       1.0  0.005271935494048542  0.005271936205027758  0.9989937649834334  1.0000
  Si  Si3       1.0  0.004874662686435654  0.004874662378696387  0.9999660721717106  1.0000
  Si  Si4       1.0  0.00953603711581781  0.009536038384928005  0.9989881096448456  1.0000
