data_image0
_chemical_formula_structural       CONi8Sb8Ni8Sb8
_chemical_formula_sum              "C1 O1 Ni16 Sb16"
_cell_length_a       6.93858528137207
_cell_length_b       11.143181481085287
_cell_length_c       102.0479507446289
_cell_angle_alpha    100.3552521339956
_cell_angle_beta     90.0
_cell_angle_gamma    71.86013419744017

_space_group_name_H-M_alt    "P 1"
_space_group_IT_number       1

loop_
  _space_group_symop_operation_xyz
  'x, y, z'

loop_
  _atom_site_type_symbol
  _atom_site_label
  _atom_site_symmetry_multiplicity
  _atom_site_fract_x
  _atom_site_fract_y
  _atom_site_fract_z
  _atom_site_occupancy
  C   C1        1.0  0.0033795353132550316  0.00902034031554667  0.00022009243834398377  1.0000
  O   O1        1.0  0.0033795353132550316  0.00902034031554667  0.00033768445495120273  1.0000
  Ni  Ni1       1.0  0.008020833514718795  0.0050027962434538165  0.9995083376937399  1.0000
  Ni  Ni2       1.0  0.0005208333651787011  2.796249926343347e-06  0.9994101976947125  1.0000
  Ni  Ni3       1.0  0.005520833253773032  2.796249926343347e-06  0.9996064775995679  1.0000
  Ni  Ni4       1.0  0.0030208332570092955  0.0050027962434538165  0.9997046175985952  1.0000
  Ni  Ni5       1.0  0.006770833693850342  0.007502795885190722  0.9995574076862851  1.0000
  Ni  Ni6       1.0  0.009270833514718796  0.002502796243453817  0.9994592676941627  1.0000
  Ni  Ni7       1.0  0.004270833257009295  0.002502796243453817  0.999655547599018  1.0000
  Ni  Ni8       1.0  0.0017708334361408423  0.007502795885190722  0.9997536875911405  1.0000
  Sb  Sb1       1.0  0.009062500088490315  0.006252795885190722  0.9997291525913519  1.0000
  Sb  Sb2       1.0  0.0015625000650582568  0.0012527962434538168  0.9996310125992294  1.0000
  Sb  Sb3       1.0  0.0065625001885440595  0.0012527962434538168  0.9994347326943741  1.0000
  Sb  Sb4       1.0  0.004062500367675606  0.006252795885190722  0.9995328726864965  1.0000
  Sb  Sb5       1.0  0.004479166762315578  0.008752795885190722  0.999385662489176  1.0000
  Sb  Sb6       1.0  0.006979166583184031  0.0037527962434538167  0.9996800825988066  1.0000
  Sb  Sb7       1.0  0.001979166593921927  0.0037527962434538167  0.9994838026939513  1.0000
  Sb  Sb8       1.0  0.009479166483130288  0.008752795885190722  0.9995819426860737  1.0000
  Ni  Ni9       1.0  0.008017543743452022  0.004994027037685839  0.9999000507636745  1.0000
  Ni  Ni10      1.0  0.0005208333651787011  2.796249926343347e-06  0.9998027575044232  1.0000
  Ni  Ni11      1.0  0.005508784796317133  0.009997203398283088  0.9999825412305106  1.0000
  Ni  Ni12      1.0  0.0030218249399943903  0.004981549092361945  7.276792277913677e-05  1.0000
  Ni  Ni13      1.0  0.006871668234224486  0.007495160582117341  0.9999447933338409  1.0000
  Ni  Ni14      1.0  0.009270833514718796  0.002502796243453817  0.9998518275038734  1.0000
  Ni  Ni15      1.0  0.0042655214969152914  0.002487770151869159  2.7552331269593913e-05  1.0000
  Ni  Ni16      1.0  0.0015653606670542482  0.0074133275590876156  0.0001119443658722707  1.0000
  Sb  Sb9       1.0  0.009133363695264476  0.006190591380591197  0.0001192823957666864  1.0000
  Sb  Sb10      1.0  0.0016374335788234638  0.0012751100333442628  2.5027859518842814e-05  1.0000
  Sb  Sb11      1.0  0.0065625001885440595  0.0012527962434538168  0.9998272925040848  1.0000
  Sb  Sb12      1.0  0.004139581338776278  0.006294612353599369  0.9999251072956975  1.0000
  Sb  Sb13      1.0  0.004479166762315578  0.008752795885190722  0.9997782225909291  1.0000
  Sb  Sb14      1.0  0.006843837482580737  0.003753044161515321  7.212393477858855e-05  1.0000
  Sb  Sb15      1.0  0.0019155701723417076  0.003736977494772225  0.9998747827972533  1.0000
  Sb  Sb16      1.0  0.009346604086370423  0.008884852378408373  0.9999810937284229  1.0000
