data_image0
_chemical_formula_structural       COW48
_chemical_formula_sum              "C1 O1 W48"
_cell_length_a       8.998138427734375
_cell_length_b       8.99813834299652
_cell_length_c       103.06127166748047
_cell_angle_alpha    90.0
_cell_angle_beta     90.0
_cell_angle_gamma    59.99999968847937

_space_group_name_H-M_alt    "P 1"
_space_group_IT_number       1

loop_
  _space_group_symop_operation_xyz
  'x, y, z'

loop_
  _atom_site_type_symbol
  _atom_site_label
  _atom_site_symmetry_multiplicity
  _atom_site_fract_x
  _atom_site_fract_y
  _atom_site_fract_z
  _atom_site_occupancy
  C   C1        1.0  0.0008333333639226489  0.0033333332887149733  0.00019405971037973497  1.0000
  O   O1        1.0  0.0008333333639226489  0.0033333332887149733  0.0003104949582657429  1.0000
  W   W1        1.0  0.004166666551995054  0.00416666673040718  0.9991089102780467  1.0000
  W   W2        1.0  0.0008333333430506962  0.0008333333221787433  0.9994653461089938  1.0000
  W   W3        1.0  0.002500000072897051  0.002500000086049694  0.9992871283381057  1.0000
  W   W4        1.0  0.004166666551995054  0.00416666673040718  0.9993762372235498  1.0000
  W   W5        1.0  0.0008333333430506962  0.0008333333221787433  0.9991980191634908  1.0000
  W   W6        1.0  0.002500000072897051  0.002500000086049694  0.9990198011034318  1.0000
  W   W7        1.0  0.004166666551995054  0.00416666673040718  0.9996435644582238  1.0000
  W   W8        1.0  0.0008333333430506962  0.0008333333221787433  0.0  1.0000
  W   W9        1.0  0.002500000072897051  0.002500000086049694  0.9998217822291119  1.0000
  W   W10       1.0  0.004166666551995054  0.00416666673040718  0.9999108914037269  1.0000
  W   W11       1.0  0.0008333333430506962  0.0008333333221787433  0.999732673054497  1.0000
  W   W12       1.0  0.002500000072897051  0.002500000086049694  0.9995544552836089  1.0000
  W   W13       1.0  0.004166666092242257  0.009166666424452713  0.9991089102780467  1.0000
  W   W14       1.0  0.0008333331340462503  0.005833333135737739  0.9994653461089938  1.0000
  W   W15       1.0  0.0024999999076375677  0.007500000019122153  0.9992871283381057  1.0000
  W   W16       1.0  0.004166666092242257  0.009166666424452713  0.9993762372235498  1.0000
  W   W17       1.0  0.0008333331340462503  0.005833333135737739  0.9991980191634908  1.0000
  W   W18       1.0  0.0024999999076375677  0.007500000019122153  0.9990198011034318  1.0000
  W   W19       1.0  0.004166666092242257  0.009166666424452713  0.9996435644582238  1.0000
  W   W20       1.0  0.0008333331340462503  0.005833333135737739  0.0  1.0000
  W   W21       1.0  0.0024999999076375677  0.007500000019122153  0.9998217822291119  1.0000
  W   W22       1.0  0.004166666092242257  0.009166666424452713  0.9999108914037269  1.0000
  W   W23       1.0  0.0008333331340462503  0.005833333135737739  0.999732673054497  1.0000
  W   W24       1.0  0.0024999999076375677  0.007500000019122153  0.9995544552836089  1.0000
  W   W25       1.0  0.009166666568555325  0.00416666673040718  0.9991089102780467  1.0000
  W   W26       1.0  0.005833333256109273  0.0008333333221787433  0.9994653461089938  1.0000
  W   W27       1.0  0.0075000000894573215  0.002500000086049694  0.9992871283381057  1.0000
  W   W28       1.0  0.009166666568555325  0.00416666673040718  0.9993762372235498  1.0000
  W   W29       1.0  0.005833333256109273  0.0008333333221787433  0.9991980191634908  1.0000
  W   W30       1.0  0.0075000000894573215  0.002500000086049694  0.9990198011034318  1.0000
  W   W31       1.0  0.009166666568555325  0.00416666673040718  0.9996435644582238  1.0000
  W   W32       1.0  0.005833333256109273  0.0008333333221787433  0.0  1.0000
  W   W33       1.0  0.0075000000894573215  0.002500000086049694  0.9998217822291119  1.0000
  W   W34       1.0  0.009166666568555325  0.00416666673040718  0.9999108914037269  1.0000
  W   W35       1.0  0.005833333256109273  0.0008333333221787433  0.999732673054497  1.0000
  W   W36       1.0  0.0075000000894573215  0.002500000086049694  0.9995544552836089  1.0000
  W   W37       1.0  0.009166666522809305  0.009166666424452713  0.9991089102780467  1.0000
  W   W38       1.0  0.005833333564613299  0.005833333135737739  0.9994653461089938  1.0000
  W   W39       1.0  0.007499999924197837  0.007500000019122153  0.9992871283381057  1.0000
  W   W40       1.0  0.009166666522809305  0.009166666424452713  0.9993762372235498  1.0000
  W   W41       1.0  0.005833333564613299  0.005833333135737739  0.9991980191634908  1.0000
  W   W42       1.0  0.007499999924197837  0.007500000019122153  0.9990198011034318  1.0000
  W   W43       1.0  0.009166666522809305  0.009166666424452713  0.9996435644582238  1.0000
  W   W44       1.0  0.005833333564613299  0.005833333135737739  0.0  1.0000
  W   W45       1.0  0.007499999924197837  0.007500000019122153  0.9998217822291119  1.0000
  W   W46       1.0  0.009166666522809305  0.009166666424452713  0.9999108914037269  1.0000
  W   W47       1.0  0.005833333564613299  0.005833333135737739  0.999732673054497  1.0000
  W   W48       1.0  0.007499999924197837  0.007500000019122153  0.9995544552836089  1.0000
