data_image0
_chemical_formula_structural       HV6Pd18
_chemical_formula_sum              "H1 V6 Pd18"
_cell_length_a       9.59659194946289
_cell_length_b       7.137326738330863
_cell_length_c       98.54930877685547
_cell_angle_alpha    84.48686532722564
_cell_angle_beta     90.0
_cell_angle_gamma    47.75656755109215

_space_group_name_H-M_alt    "P 1"
_space_group_IT_number       1

loop_
  _space_group_symop_operation_xyz
  'x, y, z'

loop_
  _atom_site_type_symbol
  _atom_site_label
  _atom_site_symmetry_multiplicity
  _atom_site_fract_x
  _atom_site_fract_y
  _atom_site_fract_z
  _atom_site_occupancy
  H   H1        1.0  0.003616467749155529  0.008852304345524965  4.1979523096340216e-05  1.0000
  V   V1        1.0  0.007543527922880091  0.008398720876342589  0.9999396724199201  1.0000
  V   V2        1.0  0.0008070141372921017  0.0017136665686575488  0.9997353676896794  1.0000
  V   V3        1.0  0.004165018026161965  0.005010472377970912  0.9994938516530212  1.0000
  V   V4        1.0  0.005700801071977821  0.005182848601943393  0.999848741544865  1.0000
  V   V5        1.0  0.00916501882077425  0.008343805488504536  0.9996145582614728  1.0000
  V   V6        1.0  0.002498351771749854  0.0016771390896715623  0.9993731450458065  1.0000
  Pd  Pd1       1.0  0.0075993740470517695  0.006644099928843652  0.9997305050548809  1.0000
  Pd  Pd2       1.0  0.0008596527590278048  0.009982504695518087  0.9994958772781616  1.0000
  Pd  Pd3       1.0  0.004493235677578551  0.003313502988352767  0.9999754046051909  1.0000
  Pd  Pd4       1.0  0.008659810944948866  0.0037881858269941415  0.9999736416109979  1.0000
  Pd  Pd5       1.0  0.00239791964079937  0.006765452767766265  0.9997349198925606  1.0000
  Pd  Pd6       1.0  0.005831685107128465  3.8439999316768105e-05  0.9994918263307163  1.0000
  Pd  Pd7       1.0  0.0009125126290325709  0.004777605677485715  0.9998683915864527  1.0000
  Pd  Pd8       1.0  0.004137051240371824  0.008343805488504536  0.9996145582614728  1.0000
  Pd  Pd9       1.0  0.007470384439788312  0.0016771390896715623  0.9993731450458065  1.0000
  Pd  Pd10      1.0  0.0058037174410785885  0.006705106992553886  0.9993711195824339  1.0000
  Pd  Pd11      1.0  0.009024583142128187  1.7495199933445367e-05  0.9998656310939109  1.0000
  Pd  Pd12      1.0  0.002470384227656409  0.003371773170957361  0.9996125326363324  1.0000
  Pd  Pd13      1.0  0.004467253361320286  0.009753193309537491  0.9998709108047253  1.0000
  Pd  Pd14      1.0  0.007498351877895837  0.0033158381189193884  0.9996165837211347  1.0000
  Pd  Pd15      1.0  0.0008316851984085829  0.006649171229453013  0.9993751706721837  1.0000
  Pd  Pd16      1.0  0.002336630693421588  0.008809518268650805  0.9999600131717591  1.0000
  Pd  Pd17      1.0  0.005810618156130194  0.0017932174417608767  0.9997273909059456  1.0000
  Pd  Pd18      1.0  0.009192986382942156  0.005010472377970912  0.9994938516530212  1.0000
