data_image0
_chemical_formula_structural       COSi6As8
_chemical_formula_sum              "C1 O1 Si6 As8"
_cell_length_a       5.40749454498291
_cell_length_b       7.6473517417907715
_cell_length_c       100.58940887451172
_cell_angle_alpha    90.0
_cell_angle_beta     90.0
_cell_angle_gamma    90.0

_space_group_name_H-M_alt    "P 1"
_space_group_IT_number       1

loop_
  _space_group_symop_operation_xyz
  'x, y, z'

loop_
  _atom_site_type_symbol
  _atom_site_label
  _atom_site_symmetry_multiplicity
  _atom_site_fract_x
  _atom_site_fract_y
  _atom_site_fract_z
  _atom_site_occupancy
  C   C1        1.0  0.005633062438813553  0.009999857990495995  0.00011568666471234496  1.0000
  O   O1        1.0  0.005633062438813553  0.009999857990495995  0.00023498376023127235  1.0000
  Si  Si1       1.0  0.005737107507840596  0.0050001418731062935  0.9996015282533484  1.0000
  Si  Si2       1.0  0.005633062438813553  0.009999857990495995  0.9999434964319723  1.0000
  Si  Si3       1.0  0.0007371078144066341  0.007500141931562457  0.999411464817848  1.0000
  Si  Si4       1.0  0.0008911491542128199  0.0024305953003334216  0.9997804599716105  1.0000
  Si  Si5       1.0  0.0007371078144066341  0.0025001420582174746  0.999411464817848  1.0000
  Si  Si6       1.0  0.0008945003688106563  0.00756260575109497  0.9997808629082506  1.0000
  As  As1       1.0  0.00925445713126011  0.008315027656156052  0.0  1.0000
  As  As2       1.0  0.007950108883438925  0.0022131434908922807  0.9996015282533484  1.0000
  As  As3       1.0  0.00926289217525968  0.0016770628499692506  0.9999997700890936  1.0000
  As  As4       1.0  0.007950108883438925  0.007787140742454994  0.9996015282533484  1.0000
  As  As5       1.0  0.0035241061322422666  0.0050001418731062935  0.9993896455025065  1.0000
  As  As6       1.0  0.0036573648780353816  0.00999673837995932  0.9997223085112353  1.0000
  As  As7       1.0  0.0035502586265506375  0.004993836401715488  0.9998137792764282  1.0000
  As  As8       1.0  0.0035241061322422666  1.4195000423788456e-07  0.9994332838369124  1.0000
