data_image0
_chemical_formula_structural       COCu18Si6
_chemical_formula_sum              "C1 O1 Cu18 Si6"
_cell_length_a       4.535572739288056
_cell_length_b       6.873161446692977
_cell_length_c       36.49815368652344
_cell_angle_alpha    89.71647249847317
_cell_angle_beta     89.57034299403703
_cell_angle_gamma    88.95281329721954

_space_group_name_H-M_alt    "P 1"
_space_group_IT_number       1

loop_
  _space_group_symop_operation_xyz
  'x, y, z'

loop_
  _atom_site_type_symbol
  _atom_site_label
  _atom_site_symmetry_multiplicity
  _atom_site_fract_x
  _atom_site_fract_y
  _atom_site_fract_z
  _atom_site_occupancy
  C   C1        1.0  0.001849667578030468  0.005888550125628925  0.0001774232871883353  1.0000
  O   O1        1.0  0.001849667578030468  0.005888550125628925  0.0005062072996783904  1.0000
  Cu  Cu1       1.0  0.008610484855941125  0.004471757702100893  0.9996261783285716  1.0000
  Cu  Cu2       1.0  0.005003706020896966  0.008928571273685093  0.9991711084709304  1.0000
  Cu  Cu3       1.0  0.001698479004530645  0.00037126473580065283  0.9999980712629924  1.0000
  Cu  Cu4       1.0  0.005066250808625212  0.007392939483530155  0.9998139616891444  1.0000
  Cu  Cu5       1.0  0.0016213514050644777  0.0016763734396998506  0.9993627536980699  1.0000
  Cu  Cu6       1.0  0.008337039111243416  0.00607142829263317  0.9989525594781682  1.0000
  Cu  Cu7       1.0  0.009996294596108745  0.008059757678595342  0.9995138756079532  1.0000
  Cu  Cu8       1.0  0.006670372802769849  0.002499999837369349  0.9990618337318669  1.0000
  Cu  Cu9       1.0  0.0037596451437886583  0.0037416011026618345  0.9998918168111047  1.0000
  Cu  Cu10      1.0  0.008337039569499613  0.0074999997831591315  0.998296912906643  1.0000
  Cu  Cu11      1.0  0.005003706182495786  0.0017857142276319104  0.997859814843786  1.0000
  Cu  Cu12      1.0  0.0016703726376391117  0.0032142855826323303  0.9987340104081962  1.0000
  Cu  Cu13      1.0  0.005003706132116396  0.0003571428387501049  0.9985154618231081  1.0000
  Cu  Cu14      1.0  0.0016703726777170763  0.004642857344209377  0.9980783638368081  1.0000
  Cu  Cu15      1.0  0.008337039206383236  0.008928571273685093  0.9976412663358831  1.0000
  Cu  Cu16      1.0  3.7059518797200786e-06  0.0010714285501317005  0.9981876384994831  1.0000
  Cu  Cu17      1.0  0.006670372905401613  0.005357142547370189  0.9977505405898275  1.0000
  Cu  Cu18      1.0  0.0033370393567989662  0.006785714037896151  0.9986247361541148  1.0000
  Si  Si1       1.0  3.7059584378009235e-06  0.009642857018948075  0.998843285147164  1.0000
  Si  Si2       1.0  0.006720303403108719  0.0008400032364583746  0.9997669739547624  1.0000
  Si  Si3       1.0  0.003402989789853981  0.005355136227239515  0.999297439517847  1.0000
  Si  Si4       1.0  3.7059569412894965e-06  0.002499999837369349  0.9975319915202979  1.0000
  Si  Si5       1.0  0.006670372850339758  0.003928571327895311  0.9984061871607244  1.0000
  Si  Si6       1.0  0.0033370394043688756  0.008214285528422113  0.9979690895829723  1.0000
