data_image0
_chemical_formula_structural       HAl3Co6V3Al3Co6V3Al3Co6V3Al3Co6V3
_chemical_formula_sum              "H1 Al12 Co24 V12"
_cell_length_a       8.152532577514648
_cell_length_b       8.152532193037596
_cell_length_c       30.060911178588867
_cell_angle_alpha    90.0
_cell_angle_beta     90.0
_cell_angle_gamma    120.00000156005501

_space_group_name_H-M_alt    "P 1"
_space_group_IT_number       1

loop_
  _space_group_symop_operation_xyz
  'x, y, z'

loop_
  _atom_site_type_symbol
  _atom_site_label
  _atom_site_symmetry_multiplicity
  _atom_site_fract_x
  _atom_site_fract_y
  _atom_site_fract_z
  _atom_site_occupancy
  H   H1        1.0  0.00416668427070261  0.00500000101306708  0.00017597212506523398  1.0000
  Al  Al1       1.0  0.0024999917174148897  0.004166667598829083  0.9992258179230453  1.0000
  Al  Al2       1.0  0.0008333158088139354  0.0008333326887342281  0.9970173181340147  1.0000
  Al  Al3       1.0  0.0041666491043965805  0.002499999451255332  0.9981244889344139  1.0000
  Co  Co1       1.0  0.0008333158088139354  0.0008333326887342281  0.9978476966060883  1.0000
  Co  Co2       1.0  0.0041666491043965805  0.002499999451255332  0.9989548674064874  1.0000
  Co  Co3       1.0  0.00249994858339743  0.00416666575209222  0.0  1.0000
  Co  Co4       1.0  0.0024999825295213126  0.004166666015911772  0.9984012817584383  1.0000
  Co  Co5       1.0  0.0008333238104712345  0.0008333344695162037  0.9995561615970546  1.0000
  Co  Co6       1.0  0.0041666491043965805  0.002499999451255332  0.9972941107101898  1.0000
  V   V1        1.0  0.0008333158088139354  0.0008333326887342281  0.9986780745824629  1.0000
  V   V2        1.0  0.004166684167018182  0.002500001034172644  0.9997661208228443  1.0000
  V   V3        1.0  0.0024999825295213126  0.004166666015911772  0.9975709035342143  1.0000
  Al  Al4       1.0  0.002499991971015614  0.009166667820437508  0.9992258179230453  1.0000
  Al  Al5       1.0  0.0008333158975274395  0.005833332580568212  0.9970173181340147  1.0000
  Al  Al6       1.0  0.004166649111850319  0.007499999409044204  0.9981244889344139  1.0000
  Co  Co7       1.0  0.0008333158975274395  0.005833332580568212  0.9978476966060883  1.0000
  Co  Co8       1.0  0.004166649111850319  0.007499999409044204  0.9989548674064874  1.0000
  Co  Co9       1.0  0.0024999486479697734  0.009166665709881092  0.0  1.0000
  Co  Co10      1.0  0.0024999824621838797  0.009166665709881092  0.9984012817584383  1.0000
  Co  Co11      1.0  0.0008333240355126558  0.005833334691124627  0.9995561615970546  1.0000
  Co  Co12      1.0  0.004166649111850319  0.007499999409044204  0.9972941107101898  1.0000
  V   V4        1.0  0.0008333158975274395  0.005833332580568212  0.9986780745824629  1.0000
  V   V5        1.0  0.004166684260149827  0.007500000991961515  0.9997661208228443  1.0000
  V   V6        1.0  0.0024999824621838797  0.009166665709881092  0.9975709035342143  1.0000
  Al  Al7       1.0  0.007499991631736982  0.004166667598829083  0.9992258179230453  1.0000
  Al  Al8       1.0  0.005833315494661609  0.0008333326887342281  0.9970173181340147  1.0000
  Al  Al9       1.0  0.009166649332871  0.002499999451255332  0.9981244889344139  1.0000
  Co  Co13      1.0  0.005833315494661609  0.0008333326887342281  0.9978476966060883  1.0000
  Co  Co14      1.0  0.009166649332871  0.002499999451255332  0.9989548674064874  1.0000
  Co  Co15      1.0  0.007499948212126497  0.00416666575209222  0.0  1.0000
  Co  Co16      1.0  0.007499982158250381  0.004166666015911772  0.9984012817584383  1.0000
  Co  Co17      1.0  0.005833323696234025  0.0008333344695162037  0.9995561615970546  1.0000
  Co  Co18      1.0  0.009166649332871  0.002499999451255332  0.9972941107101898  1.0000
  V   V7        1.0  0.005833315494661609  0.0008333326887342281  0.9986780745824629  1.0000
  V   V8        1.0  0.009166683938543762  0.002500001034172644  0.9997661208228443  1.0000
  V   V9        1.0  0.007499982158250381  0.004166666015911772  0.9975709035342143  1.0000
  Al  Al10      1.0  0.0074999917425411945  0.009166667820437508  0.9992258179230453  1.0000
  Al  Al11      1.0  0.005833315669053019  0.005833332580568212  0.9970173181340147  1.0000
  Al  Al12      1.0  0.009166648854816595  0.007499999409044204  0.9981244889344139  1.0000
  Co  Co19      1.0  0.005833315669053019  0.005833332580568212  0.9978476966060883  1.0000
  Co  Co20      1.0  0.009166648854816595  0.007499999409044204  0.9989548674064874  1.0000
  Co  Co21      1.0  0.007499948419495354  0.009166665709881092  0.0  1.0000
  Co  Co22      1.0  0.00749998223370946  0.009166665709881092  0.9984012817584383  1.0000
  Co  Co23      1.0  0.005833323807038236  0.005833334691124627  0.9995561615970546  1.0000
  Co  Co24      1.0  0.009166648854816595  0.007499999409044204  0.9972941107101898  1.0000
  V   V10       1.0  0.005833315669053019  0.005833332580568212  0.9986780745824629  1.0000
  V   V11       1.0  0.009166683917438198  0.007500000991961515  0.9997661208228443  1.0000
  V   V12       1.0  0.00749998223370946  0.009166665709881092  0.9975709035342143  1.0000
