data_image0
_chemical_formula_structural       HCu4Ru12
_chemical_formula_sum              "H1 Cu4 Ru12"
_cell_length_a       4.728821754455566
_cell_length_b       4.728821885998948
_cell_length_c       101.58106231689453
_cell_angle_alpha    90.0
_cell_angle_beta     90.0
_cell_angle_gamma    112.36696928368107

_space_group_name_H-M_alt    "P 1"
_space_group_IT_number       1

loop_
  _space_group_symop_operation_xyz
  'x, y, z'

loop_
  _atom_site_type_symbol
  _atom_site_label
  _atom_site_symmetry_multiplicity
  _atom_site_fract_x
  _atom_site_fract_y
  _atom_site_fract_z
  _atom_site_occupancy
  H   H1        1.0  0.007500000162156961  0.007500000136299888  0.0001476651784570924  1.0000
  Cu  Cu1       1.0  0.007500000162156961  0.007500000136299888  0.9992227619174621  1.0000
  Cu  Cu2       1.0  0.0024999999942138212  0.002499999974443771  0.999481841376103  1.0000
  Cu  Cu3       1.0  0.007500000162156961  0.007500000136299888  0.9997409208347438  1.0000
  Cu  Cu4       1.0  0.0024999999942138212  0.002499999974443771  0.0  1.0000
  Ru  Ru1       1.0  0.002500000133599789  0.007500000136299888  0.9990932223348339  1.0000
  Ru  Ru2       1.0  0.00750000019509875  0.002499999974443771  0.9993523015000901  1.0000
  Ru  Ru3       1.0  0.00750000019509875  0.002499999974443771  0.9990932223348339  1.0000
  Ru  Ru4       1.0  0.002500000133599789  0.007500000136299888  0.9993523015000901  1.0000
  Ru  Ru5       1.0  0.0024999999942138212  0.002499999974443771  0.9992227619174621  1.0000
  Ru  Ru6       1.0  0.007500000162156961  0.007500000136299888  0.999481841376103  1.0000
  Ru  Ru7       1.0  0.002500000133599789  0.007500000136299888  0.999611380958731  1.0000
  Ru  Ru8       1.0  0.00750000019509875  0.002499999974443771  0.9998704601239873  1.0000
  Ru  Ru9       1.0  0.00750000019509875  0.002499999974443771  0.999611380958731  1.0000
  Ru  Ru10      1.0  0.002500000133599789  0.007500000136299888  0.9998704601239873  1.0000
  Ru  Ru11      1.0  0.0024999999942138212  0.002499999974443771  0.9997409208347438  1.0000
  Ru  Ru12      1.0  0.007500000162156961  0.007500000136299888  0.0  1.0000
