data_image0
_chemical_formula_structural       HSn3Pd9Sn3Pd9Sn3Pd9Sn3Pd9
_chemical_formula_sum              "H1 Sn12 Pd36"
_cell_length_a       8.141508102416992
_cell_length_b       9.102483502090776
_cell_length_c       104.54149627685547
_cell_angle_alpha    71.56505117707799
_cell_angle_beta     90.0
_cell_angle_gamma    90.0

_space_group_name_H-M_alt    "P 1"
_space_group_IT_number       1

loop_
  _space_group_symop_operation_xyz
  'x, y, z'

loop_
  _atom_site_type_symbol
  _atom_site_label
  _atom_site_symmetry_multiplicity
  _atom_site_fract_x
  _atom_site_fract_y
  _atom_site_fract_z
  _atom_site_occupancy
  H   H1        1.0  0.0012500000915135194  0.009633799438720437  6.078757177632956e-06  1.0000
  Sn  Sn1       1.0  0.0012500000915135194  0.007032866969106929  0.9991180031075321  1.0000
  Sn  Sn2       1.0  0.0012500000915135194  0.003699533601261689  0.9989344423820276  1.0000
  Sn  Sn3       1.0  0.0012500000915135194  0.00036620042215343863  0.9993015638991091  1.0000
  Pd  Pd1       1.0  0.00375000004575676  0.005366200285184309  0.9990262227447798  1.0000
  Pd  Pd2       1.0  0.00375000004575676  0.0020328671330384854  0.9988426620133362  1.0000
  Pd  Pd3       1.0  0.00375000004575676  0.00869953365302955  0.9992097837553608  1.0000
  Pd  Pd4       1.0  0.0012500000915135194  0.007032866969106929  0.9988426619836407  1.0000
  Pd  Pd5       1.0  0.0012500000915135194  0.003699533601261689  0.9992097835059189  1.0000
  Pd  Pd6       1.0  0.0012500000915135194  0.00036620042215343863  0.9990262227752177  1.0000
  Pd  Pd7       1.0  0.00375000004575676  0.00869953365302955  0.9989344423463931  1.0000
  Pd  Pd8       1.0  0.00375000004575676  0.005366200285184309  0.9993015641537477  1.0000
  Pd  Pd9       1.0  0.00375000004575676  0.0020328671330384854  0.9991180031372275  1.0000
  Sn  Sn4       1.0  0.0012500000915135194  0.007032866969106929  0.9996686853553148  1.0000
  Sn  Sn5       1.0  0.0012500000915135194  0.003699533601261689  0.9994851246298103  1.0000
  Sn  Sn6       1.0  0.0012500000915135194  0.00036620042215343863  0.9998522461468918  1.0000
  Pd  Pd10      1.0  0.00375000004575676  0.005366200285184309  0.9995769052776391  1.0000
  Pd  Pd11      1.0  0.00375000004575676  0.0020328671330384854  0.9993933445461954  1.0000
  Pd  Pd12      1.0  0.00375000004575676  0.00869953365302955  0.9997604660031436  1.0000
  Pd  Pd13      1.0  0.0012500000915135194  0.007032866969106929  0.9993933442314235  1.0000
  Pd  Pd14      1.0  0.0012500000915135194  0.003699533601261689  0.9997604657537017  1.0000
  Pd  Pd15      1.0  0.0012500000915135194  0.00036620042215343863  0.9995769050230005  1.0000
  Pd  Pd16      1.0  0.00375000004575676  0.00869953365302955  0.9994851248792522  1.0000
  Pd  Pd17      1.0  0.00375000004575676  0.005366200285184309  0.9998522464015305  1.0000
  Pd  Pd18      1.0  0.00375000004575676  0.0020328671330384854  0.9996686856700868  1.0000
  Sn  Sn7       1.0  0.006250000457567597  0.007032866969106929  0.9991180031075321  1.0000
  Sn  Sn8       1.0  0.006250000457567597  0.003699533601261689  0.9989344423820276  1.0000
  Sn  Sn9       1.0  0.006250000457567597  0.00036620042215343863  0.9993015638991091  1.0000
  Pd  Pd19      1.0  0.008750000183027039  0.005366200285184309  0.9990262227447798  1.0000
  Pd  Pd20      1.0  0.008750000183027039  0.0020328671330384854  0.9988426620133362  1.0000
  Pd  Pd21      1.0  0.008750000183027039  0.00869953365302955  0.9992097837553608  1.0000
  Pd  Pd22      1.0  0.006250000457567597  0.007032866969106929  0.9988426619836407  1.0000
  Pd  Pd23      1.0  0.006250000457567597  0.003699533601261689  0.9992097835059189  1.0000
  Pd  Pd24      1.0  0.006250000457567597  0.00036620042215343863  0.9990262227752177  1.0000
  Pd  Pd25      1.0  0.008750000183027039  0.00869953365302955  0.9989344423463931  1.0000
  Pd  Pd26      1.0  0.008750000183027039  0.005366200285184309  0.9993015641537477  1.0000
  Pd  Pd27      1.0  0.008750000183027039  0.0020328671330384854  0.9991180031372275  1.0000
  Sn  Sn10      1.0  0.006250000457567597  0.007032866969106929  0.9996686853553148  1.0000
  Sn  Sn11      1.0  0.006250000457567597  0.003699533601261689  0.9994851246298103  1.0000
  Sn  Sn12      1.0  0.006250000457567597  0.00036620042215343863  0.9998522461468918  1.0000
  Pd  Pd28      1.0  0.008750000183027039  0.005366200285184309  0.9995769052776391  1.0000
  Pd  Pd29      1.0  0.008750000183027039  0.0020328671330384854  0.9993933445461954  1.0000
  Pd  Pd30      1.0  0.008750000183027039  0.00869953365302955  0.9997604660031436  1.0000
  Pd  Pd31      1.0  0.006250000457567597  0.007032866969106929  0.9993933442314235  1.0000
  Pd  Pd32      1.0  0.006250000457567597  0.003699533601261689  0.9997604657537017  1.0000
  Pd  Pd33      1.0  0.006250000457567597  0.00036620042215343863  0.9995769050230005  1.0000
  Pd  Pd34      1.0  0.008750000183027039  0.00869953365302955  0.9994851248792522  1.0000
  Pd  Pd35      1.0  0.008750000183027039  0.005366200285184309  0.9998522464015305  1.0000
  Pd  Pd36      1.0  0.008750000183027039  0.0020328671330384854  0.9996686856700868  1.0000
