data_image0
_chemical_formula_structural       COCa2Pb2Ca2Pb2Ca2Pb2Ca2Pb2Ca2Pb2Ca2Pb2
_chemical_formula_sum              "C1 O1 Ca12 Pb12"
_cell_length_a       7.337684631347656
_cell_length_b       10.11185180926181
_cell_length_c       103.01957702636719
_cell_angle_alpha    111.2738495181065
_cell_angle_beta     90.0
_cell_angle_gamma    90.0

_space_group_name_H-M_alt    "P 1"
_space_group_IT_number       1

loop_
  _space_group_symop_operation_xyz
  'x, y, z'

loop_
  _atom_site_type_symbol
  _atom_site_label
  _atom_site_symmetry_multiplicity
  _atom_site_fract_x
  _atom_site_fract_y
  _atom_site_fract_z
  _atom_site_occupancy
  C   C1        1.0  0.0025000089861641098  0.008298842806467392  0.0002027661714561313  1.0000
  O   O1        1.0  0.0025000089861641098  0.008298842806467392  0.00031924854364621496  1.0000
  Ca  Ca1       1.0  0.0012499935776849726  0.0012500000118604575  0.9993496142652566  1.0000
  Ca  Ca2       1.0  0.0012499935776849726  0.006250000158139434  0.9991715490313396  1.0000
  Pb  Pb1       1.0  0.0037499935523003284  0.003749999936744226  0.9992605814983743  1.0000
  Pb  Pb2       1.0  0.0037499935523003284  0.008750000379534642  0.999082516275017  1.0000
  Ca  Ca3       1.0  0.0012499935776849726  0.0012500000118604575  0.9997057445120792  1.0000
  Ca  Ca4       1.0  0.0012499935776849726  0.006250000158139434  0.9995276795674501  1.0000
  Pb  Pb3       1.0  0.0037499935523003284  0.003749999936744226  0.9996167120344848  1.0000
  Pb  Pb4       1.0  0.0037499935523003284  0.008750000379534642  0.9994386468111275  1.0000
  Ca  Ca5       1.0  0.0012500114738592588  0.0013654414034378855  4.862754580349132e-05  1.0000
  Ca  Ca6       1.0  0.0012500017007711734  0.006126444632196014  0.9998911969508544  1.0000
  Pb  Pb5       1.0  0.003750006498468961  0.0038983884933800556  0.9999960583654535  1.0000
  Pb  Pb6       1.0  0.0037500049753902984  0.008741401547802995  0.9998286160627194  1.0000
  Ca  Ca7       1.0  0.0062499933999924625  0.0012500000118604575  0.9993496142652566  1.0000
  Ca  Ca8       1.0  0.0062499933999924625  0.006250000158139434  0.9991715490313396  1.0000
  Pb  Pb7       1.0  0.00874999350153104  0.003749999936744226  0.9992605814983743  1.0000
  Pb  Pb8       1.0  0.00874999350153104  0.008750000379534642  0.999082516275017  1.0000
  Ca  Ca9       1.0  0.0062499933999924625  0.0012500000118604575  0.9997057445120792  1.0000
  Ca  Ca10      1.0  0.0062499933999924625  0.006250000158139434  0.9995276795674501  1.0000
  Pb  Pb9       1.0  0.00874999350153104  0.003749999936744226  0.9996167120344848  1.0000
  Pb  Pb10      1.0  0.00874999350153104  0.008750000379534642  0.9994386468111275  1.0000
  Ca  Ca11      1.0  0.006250011169243527  0.0013654414034378855  4.862754580349132e-05  1.0000
  Ca  Ca12      1.0  0.0062500015230786635  0.006126444632196014  0.9998911969508544  1.0000
  Pb  Pb11      1.0  0.008750006701546116  0.0038983884933800556  0.9999960583654535  1.0000
  Pb  Pb12      1.0  0.008750004670774567  0.008741401547802995  0.9998286160627194  1.0000
