data_image0
_chemical_formula_structural       COAu3Pd6Zn3
_chemical_formula_sum              "C1 O1 Au3 Pd6 Zn3"
_cell_length_a       4.510096073150635
_cell_length_b       4.510096097902064
_cell_length_c       103.14230346679688
_cell_angle_alpha    90.0
_cell_angle_beta     90.0
_cell_angle_gamma    119.99999981845825

_space_group_name_H-M_alt    "P 1"
_space_group_IT_number       1

loop_
  _space_group_symop_operation_xyz
  'x, y, z'

loop_
  _atom_site_type_symbol
  _atom_site_label
  _atom_site_symmetry_multiplicity
  _atom_site_fract_x
  _atom_site_fract_y
  _atom_site_fract_z
  _atom_site_occupancy
  C   C1        1.0  0.009999994205050164  0.00666667210315611  8.852195839239806e-05  1.0000
  O   O1        1.0  0.009999994205050164  0.00666667210315611  0.00020486630901627245  1.0000
  Au  Au1       1.0  5.554777111347476e-09  0.0016666648068150154  0.9993842190041318  1.0000
  Au  Au2       1.0  0.0066666722180551245  0.004999997997082837  0.9990271900122849  1.0000
  Au  Au3       1.0  0.0033333382938389795  0.008333335240873489  0.9997450094655194  1.0000
  Pd  Pd1       1.0  0.0033333457354201568  0.008333323795632558  0.0  1.0000
  Pd  Pd2       1.0  5.554777111347476e-09  0.0016666648068150154  0.9996519903868373  1.0000
  Pd  Pd3       1.0  0.0066666722180551245  0.004999997997082837  0.9992949616839342  1.0000
  Pd  Pd4       1.0  0.006666662834428864  0.00500000896543873  0.9998352350361727  1.0000
  Pd  Pd5       1.0  0.003333338812641873  0.00833333142579318  0.9994734763243295  1.0000
  Pd  Pd6       1.0  5.554777111347476e-09  0.0016666648068150154  0.9991164473324825  1.0000
  Zn  Zn1       1.0  0.003333338812641873  0.00833333142579318  0.9992057046526802  1.0000
  Zn  Zn2       1.0  0.009999994054501278  0.0016666721985331171  0.9999205936385556  1.0000
  Zn  Zn3       1.0  0.0066666722180551245  0.004999997997082837  0.9995627333555834  1.0000
