data_image0
_chemical_formula_structural       COPd12V6
_chemical_formula_sum              "C1 O1 Pd12 V6"
_cell_length_a       4.803231230335089
_cell_length_b       7.235851435995372
_cell_length_c       98.19361877441406
_cell_angle_alpha    90.36638858510578
_cell_angle_beta     90.11969646051656
_cell_angle_gamma    82.34774780092249

_space_group_name_H-M_alt    "P 1"
_space_group_IT_number       1

loop_
  _space_group_symop_operation_xyz
  'x, y, z'

loop_
  _atom_site_type_symbol
  _atom_site_label
  _atom_site_symmetry_multiplicity
  _atom_site_fract_x
  _atom_site_fract_y
  _atom_site_fract_z
  _atom_site_occupancy
  C   C1        1.0  0.003368525167367575  0.008763272182480302  3.816581644178784e-05  1.0000
  O   O1        1.0  0.003368525167367575  0.008763272182480302  0.00016037359805194955  1.0000
  Pd  Pd1       1.0  0.006145676102172455  0.0022341463193059547  0.9994737302166086  1.0000
  Pd  Pd2       1.0  0.0020547668576987132  0.006779601081995013  0.9993432199784854  1.0000
  Pd  Pd3       1.0  0.007490687349694377  0.00501286069686559  0.999300947174611  1.0000
  Pd  Pd4       1.0  0.001581596635728865  0.00046740580430807213  0.9994314577194077  1.0000
  Pd  Pd5       1.0  0.004264038571205351  0.003191388808146493  0.999734756845744  1.0000
  Pd  Pd6       1.0  0.0002365851116520828  0.007688691722848523  0.9996042404177964  1.0000
  Pd  Pd7       1.0  0.005672505215856876  0.005921951337719099  0.999561967917388  1.0000
  Pd  Pd8       1.0  0.009763414434281506  0.0013764967048985003  0.9996924781555697  1.0000
  Pd  Pd9       1.0  0.002478350620721328  0.0041091832331167175  0.9999998088889784  1.0000
  Pd  Pd10      1.0  0.00829918090989617  0.008629027156496305  0.9998762703311614  1.0000
  Pd  Pd11      1.0  0.0036253194309463213  0.00694930227515909  0.9998338100051621  1.0000
  Pd  Pd12      1.0  0.00783821617147142  0.0022441742422298016  0.9999553195289521  1.0000
  V   V1        1.0  0.0009090908606659182  0.004078048828512528  0.9995178492203841  1.0000
  V   V2        1.0  0.006818181600680542  0.008623503591201585  0.999387338675529  1.0000
  V   V3        1.0  0.008936278567756433  0.00500514702987967  0.9997900498636483  1.0000
  V   V4        1.0  0.00500000024242478  0.009532594232055096  0.9996483594183853  1.0000
  V   V5        1.0  0.007306647727156848  0.00572940836052661  3.446472269406298e-06  1.0000
  V   V6        1.0  0.0031026443666563406  0.0005474311382989957  0.9998897317048618  1.0000
