data_image0
_chemical_formula_structural       COAl6Cu12Mn6
_chemical_formula_sum              "C1 O1 Al6 Cu12 Mn6"
_cell_length_a       7.189171077973584
_cell_length_b       5.869933605194092
_cell_length_c       101.61055755615234
_cell_angle_alpha    90.0
_cell_angle_beta     85.65224669100654
_cell_angle_gamma    114.09484255352575

_space_group_name_H-M_alt    "P 1"
_space_group_IT_number       1

loop_
  _space_group_symop_operation_xyz
  'x, y, z'

loop_
  _atom_site_type_symbol
  _atom_site_label
  _atom_site_symmetry_multiplicity
  _atom_site_fract_x
  _atom_site_fract_y
  _atom_site_fract_z
  _atom_site_occupancy
  C   C1        1.0  0.0022948445545231395  0.00259721599360995  0.00011816597141248212  1.0000
  O   O1        1.0  0.0022948445545231395  0.00259721599360995  0.00023626417505695653  1.0000
  Al  Al1       1.0  0.005263957843639116  0.007839518956082361  0.9997892084368909  1.0000
  Al  Al2       1.0  0.001875000096833048  0.006145833699069485  0.9992737048625492  1.0000
  Al  Al3       1.0  0.003541666738816781  0.0019791666757695554  0.9995329510444998  1.0000
  Al  Al4       1.0  0.0010303461381148584  0.0007233035685112129  0.9999156815521563  1.0000
  Al  Al5       1.0  0.007708333842181507  0.009062500254424087  0.9994033279659134  1.0000
  Al  Al6       1.0  0.009375000341763699  0.004895833516907968  0.9996625738553282  1.0000
  Cu  Cu1       1.0  0.002326524625405113  0.008916002141760594  0.9997191081867471  1.0000
  Cu  Cu2       1.0  0.003999209726128252  0.004691061716977196  0.9999785493945109  1.0000
  Cu  Cu3       1.0  0.0006250000085440924  0.003020833502611586  0.9994681393454041  1.0000
  Cu  Cu4       1.0  0.002323838647534048  0.0038272357040275945  0.9997190879842193  1.0000
  Cu  Cu5       1.0  0.004000509567396786  0.009719399983717595  0.9999785283441635  1.0000
  Cu  Cu6       1.0  0.0006250000085440924  0.008020833489918801  0.9994681393454041  1.0000
  Cu  Cu7       1.0  0.008046306242548184  0.0019090209352182516  0.9998703819479912  1.0000
  Cu  Cu8       1.0  0.004791666613503424  0.00010416650046440929  0.9993385165627905  1.0000
  Cu  Cu9       1.0  0.006458333682691781  0.005937500022365802  0.9995977624491502  1.0000
  Cu  Cu10      1.0  0.008047017111042106  0.0065525735991805775  0.9998703752021033  1.0000
  Cu  Cu11      1.0  0.004791666613503424  0.005104166805091253  0.9993385165627905  1.0000
  Cu  Cu12      1.0  0.006458333682691781  0.0009375000350585877  0.9995977624491502  1.0000
  Mn  Mn1       1.0  0.003541666738816781  0.006979166702741723  0.9995329510444998  1.0000
  Mn  Mn2       1.0  0.005207102034673321  0.0028125659262592255  0.9997930030720831  1.0000
  Mn  Mn3       1.0  0.001875000096833048  0.0011458333944426424  0.9992737048625492  1.0000
  Mn  Mn4       1.0  0.009375000341763699  0.00989583382153481  0.9996625738553282  1.0000
  Mn  Mn5       1.0  0.0012216935811199744  0.005819738606438974  0.9999020585942425  1.0000
  Mn  Mn6       1.0  0.007708333842181507  0.004062500167954488  0.9994033279659134  1.0000
