data_image0
_chemical_formula_structural       HAl3Au6Ti3
_chemical_formula_sum              "H1 Al3 Au6 Ti3"
_cell_length_a       4.593358516693115
_cell_length_b       4.593358475431343
_cell_length_c       103.754150390625
_cell_angle_alpha    90.0
_cell_angle_beta     90.0
_cell_angle_gamma    120.00000029715262

_space_group_name_H-M_alt    "P 1"
_space_group_IT_number       1

loop_
  _space_group_symop_operation_xyz
  'x, y, z'

loop_
  _atom_site_type_symbol
  _atom_site_label
  _atom_site_symmetry_multiplicity
  _atom_site_fract_x
  _atom_site_fract_y
  _atom_site_fract_z
  _atom_site_occupancy
  H   H1        1.0  0.0016666686978669956  0.0016666721997108743  0.00011874723514449016  1.0000
  Al  Al1       1.0  0.004999997537253207  0.008333333021172869  0.999286037878594  1.0000
  Al  Al2       1.0  0.0016666686978669956  0.0016666721997108743  0.0  1.0000
  Al  Al3       1.0  0.008333331071463302  0.005000000093648139  0.9996475136678352  1.0000
  Au  Au1       1.0  0.0016666644262966707  0.0016666666978827128  0.9997378827587655  1.0000
  Au  Au2       1.0  0.008333331071463302  0.005000000093648139  0.9993764069695242  1.0000
  Au  Au3       1.0  0.005000005381933314  0.00833333208469148  8.138020833333333e-05  1.0000
  Au  Au4       1.0  0.004999997537253207  0.008333333021172869  0.999557144576905  1.0000
  Au  Au5       1.0  0.0016666644262966707  0.0016666666978827128  0.9991956690749036  1.0000
  Au  Au6       1.0  0.008333335707946988  0.0050000117996655035  0.9999482824723088  1.0000
  Ti  Ti1       1.0  0.0016666644262966707  0.0016666666978827128  0.9994667760604544  1.0000
  Ti  Ti2       1.0  0.008333331071463302  0.005000000093648139  0.9991052999839733  1.0000
  Ti  Ti3       1.0  0.0050000001369258995  0.008333330211728702  0.9998308634340431  1.0000
