data_image0
_chemical_formula_structural       COV12Rh4V12Rh4
_chemical_formula_sum              "C1 O1 V24 Rh8"
_cell_length_a       4.781739234924316
_cell_length_b       6.762400150299072
_cell_length_c       103.81200408935547
_cell_angle_alpha    90.0
_cell_angle_beta     90.0
_cell_angle_gamma    90.0

_space_group_name_H-M_alt    "P 1"
_space_group_IT_number       1

loop_
  _space_group_symop_operation_xyz
  'x, y, z'

loop_
  _atom_site_type_symbol
  _atom_site_label
  _atom_site_symmetry_multiplicity
  _atom_site_fract_x
  _atom_site_fract_y
  _atom_site_fract_z
  _atom_site_occupancy
  C   C1        1.0  0.00249999093946281  0.0013138337105279654  0.0001334691093388498  1.0000
  O   O1        1.0  0.00249999093946281  0.0013138337105279654  0.00024906233788033334  1.0000
  V   V1        1.0  2.605000042242235e-08  0.006875000396635655  0.9987926124045307  1.0000
  V   V2        1.0  2.605000042242235e-08  0.001875000033052971  0.9991183167057365  1.0000
  V   V3        1.0  2.605000042242235e-08  0.0043750000771236  0.9992811687127995  1.0000
  V   V4        1.0  2.605000042242235e-08  0.009375000440706284  0.9989554644115937  1.0000
  V   V5        1.0  0.005000025896152726  0.006875000396635655  0.9989554644115937  1.0000
  V   V6        1.0  0.005000025896152726  0.001875000033052971  0.9992811687127995  1.0000
  V   V7        1.0  0.005000025896152726  0.009375000440706284  0.9987926124045307  1.0000
  V   V8        1.0  0.005000025896152726  0.0043750000771236  0.9991183167057365  1.0000
  V   V9        1.0  0.007500025989640642  0.0031250000550882852  0.998874038551602  1.0000
  V   V10       1.0  0.007500025989640642  0.00812500041867097  0.9991997425657281  1.0000
  V   V11       1.0  0.002500025997431301  0.0031250000550882852  0.998874038551602  1.0000
  V   V12       1.0  0.002500025997431301  0.00812500041867097  0.9991997425657281  1.0000
  Rh  Rh1       1.0  0.005000025896152726  0.005625000374600341  0.9993625945727912  1.0000
  Rh  Rh2       1.0  0.005000025896152726  0.0006250000110176571  0.9990368905586651  1.0000
  Rh  Rh3       1.0  2.605000042242235e-08  0.005625000374600341  0.9990368905586651  1.0000
  Rh  Rh4       1.0  2.605000042242235e-08  0.0006250000110176571  0.9993625945727912  1.0000
  V   V13       1.0  2.605000042242235e-08  0.006875000396635655  0.9994440207198626  1.0000
  V   V14       1.0  2.765000049400147e-08  0.0019272985100126  0.9997698757379281  1.0000
  V   V15       1.0  3.404999780841714e-08  0.004451139799983514  0.9999332734835631  1.0000
  V   V16       1.0  2.605000042242235e-08  0.009375000440706284  0.9996068730140054  1.0000
  V   V17       1.0  0.005000025896152726  0.006875000396635655  0.9996068730140054  1.0000
  V   V18       1.0  0.005000007977635497  0.0017982367108016967  0.9999332711869252  1.0000
  V   V19       1.0  0.005000025896152726  0.009375000440706284  0.9994440207198626  1.0000
  V   V20       1.0  0.005000023948487809  0.004322301796932275  0.9997698016713571  1.0000
  V   V21       1.0  0.007500025989640642  0.0031250000550882852  0.999525446866934  1.0000
  V   V22       1.0  0.007500740393131895  0.008125682411644911  0.9998477627660545  1.0000
  V   V23       1.0  0.002500025997431301  0.0031250000550882852  0.999525446866934  1.0000
  V   V24       1.0  0.0024993201636656797  0.008125681309879203  0.999847762191895  1.0000
  Rh  Rh5       1.0  0.005000060954121217  0.0054208288657468335  0.0  1.0000
  Rh  Rh6       1.0  0.005000025896152726  0.0006250000110176571  0.9996882985869173  1.0000
  Rh  Rh7       1.0  2.605000042242235e-08  0.005625000374600341  0.9996882985869173  1.0000
  Rh  Rh8       1.0  0.009999973885708804  0.0008294309168353043  0.9999999770336214  1.0000
