data_image0
_chemical_formula_structural       COMo4Ir4Mo4Ir4
_chemical_formula_sum              "C1 O1 Mo8 Ir8"
_cell_length_a       4.865481376647949
_cell_length_b       5.259682472147813
_cell_length_c       106.81777954101562
_cell_angle_alpha    63.75068719701914
_cell_angle_beta     90.0
_cell_angle_gamma    90.0

_space_group_name_H-M_alt    "P 1"
_space_group_IT_number       1

loop_
  _space_group_symop_operation_xyz
  'x, y, z'

loop_
  _atom_site_type_symbol
  _atom_site_label
  _atom_site_symmetry_multiplicity
  _atom_site_fract_x
  _atom_site_fract_y
  _atom_site_fract_z
  _atom_site_occupancy
  C   C1        1.0  0.002503628234552054  0.009363159573974501  0.9999985954820648  1.0000
  O   O1        1.0  0.002503628234552054  0.009363159573974501  0.00011093655833746582  1.0000
  Mo  Mo1       1.0  0.0017473919836094992  0.0033225861912635772  0.999096478748979  1.0000
  Mo  Mo2       1.0  0.0017473919836094992  0.008322586601912365  0.9993426776122271  1.0000
  Mo  Mo3       1.0  0.008330163819255337  0.0008225861340096596  0.9989733791746295  1.0000
  Mo  Mo4       1.0  0.008330163819255337  0.005822586001733368  0.9992195780497013  1.0000
  Ir  Ir1       1.0  0.006781369693641122  0.005822586001733368  0.9989733793002709  1.0000
  Ir  Ir2       1.0  0.006781369693641122  0.0008225861340096596  0.9992195782030614  1.0000
  Ir  Ir3       1.0  0.0032961855349809  0.0033225861912635772  0.9993426772194078  1.0000
  Ir  Ir4       1.0  0.0032961855349809  0.008322586601912365  0.9990964788627966  1.0000
  Mo  Mo5       1.0  0.001773486342796904  0.0033503401264919565  0.9995904154006651  1.0000
  Mo  Mo6       1.0  0.001669836471694356  0.008515792118262403  0.9998145459580016  1.0000
  Mo  Mo7       1.0  0.008330163819255337  0.0008225861340096596  0.9994657769524918  1.0000
  Mo  Mo8       1.0  0.008263202513040918  0.005701387750303703  0.9997073810118136  1.0000
  Ir  Ir5       1.0  0.006781369693641122  0.005822586001733368  0.9994657767991316  1.0000
  Ir  Ir6       1.0  0.006891903013371485  0.0006368407043979955  0.9997181356345857  1.0000
  Ir  Ir7       1.0  0.0033374199974097515  0.0034583545775639496  0.9998210572641626  1.0000
  Ir  Ir8       1.0  0.0033194347124324286  0.008408119216422474  0.9995879790065368  1.0000
