data_image0
_chemical_formula_structural       COV12Rh12V12Rh12
_chemical_formula_sum              "C1 O1 V24 Rh24"
_cell_length_a       5.609452724456787
_cell_length_b       13.486313025919113
_cell_length_c       105.62532806396484
_cell_angle_alpha    101.1537843241815
_cell_angle_beta     90.0
_cell_angle_gamma    90.0

_space_group_name_H-M_alt    "P 1"
_space_group_IT_number       1

loop_
  _space_group_symop_operation_xyz
  'x, y, z'

loop_
  _atom_site_type_symbol
  _atom_site_label
  _atom_site_symmetry_multiplicity
  _atom_site_fract_x
  _atom_site_fract_y
  _atom_site_fract_z
  _atom_site_occupancy
  C   C1        1.0  0.0049996599759858035  0.0011369094621317853  0.00013261299295242265  1.0000
  O   O1        1.0  0.0049996599759858035  0.0011369094621317853  0.0002462223377814211  1.0000
  V   V1        1.0  8.320000010259972e-08  0.0043211798615773005  0.999695585027398  1.0000
  V   V2        1.0  0.009999659975985804  0.0008836870606944963  0.9999654754399606  1.0000
  V   V3        1.0  8.320000010259972e-08  0.007654513022229423  0.9994145180610691  1.0000
  V   V4        1.0  8.320000010259972e-08  0.005678819620379068  0.999581108620542  1.0000
  V   V5        1.0  3.480000151422132e-07  0.0023707334850032943  0.9998670455384435  1.0000
  V   V6        1.0  8.320000010259972e-08  0.009012152781031192  0.9993000419363642  1.0000
  V   V7        1.0  8.320000010259972e-08  0.0043211798615773005  0.9992739846971627  1.0000
  V   V8        1.0  8.320000010259972e-08  0.0009878467009251772  0.9995550513813404  1.0000
  V   V9        1.0  1.6750000233800232e-07  0.007684288143002962  0.9998395074379998  1.0000
  V   V10       1.0  8.320000010259972e-08  0.0023454866004996716  0.9994405752601124  1.0000
  V   V11       1.0  8.320000010259972e-08  0.009012152781031192  0.9997216422665995  1.0000
  V   V12       1.0  0.009999916986324658  0.005645674963641445  0.9999800774790466  1.0000
  Rh  Rh1       1.0  0.0025000069731487286  0.0023789805143699357  5.875828961288356e-05  1.0000
  Rh  Rh2       1.0  0.002500083345730042  0.009286083554293206  0.999517951983862  1.0000
  Rh  Rh3       1.0  0.0025000381862906565  0.0059863370767376314  0.9997930255231043  1.0000
  Rh  Rh4       1.0  0.002500083345730042  0.004047249369860737  0.9994776747047028  1.0000
  Rh  Rh5       1.0  0.002500083345730042  0.0007139162092086139  0.9997587416710317  1.0000
  Rh  Rh6       1.0  0.0025007882978610365  0.007188903853192308  2.9405155604121853e-05  1.0000
  Rh  Rh7       1.0  0.002500083345730042  0.002619416951443509  0.9996584852971794  1.0000
  Rh  Rh8       1.0  0.0025000021583555586  0.009208260449849988  0.9999376140835278  1.0000
  Rh  Rh9       1.0  0.002500083345730042  0.005952750393641084  0.9993774186199555  1.0000
  Rh  Rh10      1.0  0.002500083345730042  0.0007139162092086139  0.9993371413407965  1.0000
  Rh  Rh11      1.0  0.002500083345730042  0.007380582812058311  0.9996182083577144  1.0000
  Rh  Rh12      1.0  0.002499982733155529  0.004090706473397532  0.9998964211154148  1.0000
  V   V13       1.0  0.005000083345730042  0.0043211798615773005  0.999695585027398  1.0000
  V   V14       1.0  0.0049996599759858035  0.0008836870606944963  0.9999654754399606  1.0000
  V   V15       1.0  0.005000083345730042  0.007654513022229423  0.9994145180610691  1.0000
  V   V16       1.0  0.005000083345730042  0.005678819620379068  0.999581108620542  1.0000
  V   V17       1.0  0.005000347993327029  0.0023707334850032943  0.9998670455384435  1.0000
  V   V18       1.0  0.005000083345730042  0.009012152781031192  0.9993000419363642  1.0000
  V   V19       1.0  0.005000083345730042  0.0043211798615773005  0.9992739846971627  1.0000
  V   V20       1.0  0.005000083345730042  0.0009878467009251772  0.9995550513813404  1.0000
  V   V21       1.0  0.005000167687624188  0.007684288143002962  0.9998395074379998  1.0000
  V   V22       1.0  0.005000083345730042  0.0023454866004996716  0.9994405752601124  1.0000
  V   V23       1.0  0.005000083345730042  0.009012152781031192  0.9997216422665995  1.0000
  V   V24       1.0  0.004999916986324659  0.005645674963641445  0.9999800774790466  1.0000
  Rh  Rh13      1.0  0.00750000730520343  0.0023789805143699357  5.875828961288356e-05  1.0000
  Rh  Rh14      1.0  0.0075000836777847435  0.009286083554293206  0.999517951983862  1.0000
  Rh  Rh15      1.0  0.007500038518345358  0.0059863370767376314  0.9997930255231043  1.0000
  Rh  Rh16      1.0  0.0075000836777847435  0.004047249369860737  0.9994776747047028  1.0000
  Rh  Rh17      1.0  0.0075000836777847435  0.0007139162092086139  0.9997587416710317  1.0000
  Rh  Rh18      1.0  0.007500788297861036  0.007188903853192308  2.9405155604121853e-05  1.0000
  Rh  Rh19      1.0  0.0075000836777847435  0.002619416951443509  0.9996584852971794  1.0000
  Rh  Rh20      1.0  0.0075000019923282075  0.009208260449849988  0.9999376140835278  1.0000
  Rh  Rh21      1.0  0.0075000836777847435  0.005952750393641084  0.9993774186199555  1.0000
  Rh  Rh22      1.0  0.0075000836777847435  0.0007139162092086139  0.9993371413407965  1.0000
  Rh  Rh23      1.0  0.0075000836777847435  0.007380582812058311  0.9996182083577144  1.0000
  Rh  Rh24      1.0  0.007499982733155529  0.004090706473397532  0.9998964211154148  1.0000
