data_image0
_chemical_formula_structural       HCu5Au15Cu5Au15
_chemical_formula_sum              "H1 Cu10 Au30"
_cell_length_a       5.778500556945801
_cell_length_b       9.136611987681292
_cell_length_c       105.38594818115234
_cell_angle_alpha    75.03678361299485
_cell_angle_beta     90.0
_cell_angle_gamma    71.56505196603612

_space_group_name_H-M_alt    "P 1"
_space_group_IT_number       1

loop_
  _space_group_symop_operation_xyz
  'x, y, z'

loop_
  _atom_site_type_symbol
  _atom_site_label
  _atom_site_symmetry_multiplicity
  _atom_site_fract_x
  _atom_site_fract_y
  _atom_site_fract_z
  _atom_site_occupancy
  H   H1        1.0  0.005681589561926389  0.00919528967985174  0.9999744085255811  1.0000
  Cu  Cu1       1.0  0.008071061335339287  0.004499999957121776  0.9987682054456984  1.0000
  Cu  Cu2       1.0  0.006071061503278999  0.008499999621242352  0.9989025156030874  1.0000
  Cu  Cu3       1.0  7.106152104431692e-05  0.0004999999580150721  0.9993054452872765  1.0000
  Cu  Cu4       1.0  0.004071061466180455  0.0024999999017374028  0.9990368255091333  1.0000
  Cu  Cu5       1.0  0.002071061522458125  0.0064999997891820645  0.9991711353787309  1.0000
  Au  Au1       1.0  0.009071061363031473  0.0024999999017374028  0.9990368255091333  1.0000
  Au  Au2       1.0  0.007071061419309144  0.0064999997891820645  0.9991711353787309  1.0000
  Au  Au3       1.0  0.0010710616064279809  0.008499999621242352  0.9989025156030874  1.0000
  Au  Au4       1.0  0.005071061438041621  0.0004999999580150721  0.9993054452872765  1.0000
  Au  Au5       1.0  0.0030710614384882686  0.004499999957121776  0.9987682054456984  1.0000
  Au  Au6       1.0  0.005071061540560748  0.005499999649827836  0.9989696705586099  1.0000
  Au  Au7       1.0  0.0030710617085004596  0.009499999313948413  0.9991039804332067  1.0000
  Au  Au8       1.0  0.007071061428452058  0.0014999998740452163  0.9988353604037206  1.0000
  Au  Au9       1.0  0.0010710615597398743  0.003499999817767547  0.9992382903342535  1.0000
  Au  Au10      1.0  0.009071061298057537  0.007499999928536293  0.9987010504901759  1.0000
  Au  Au11      1.0  7.106164370972957e-05  0.005499999649827836  0.9989696705586099  1.0000
  Au  Au12      1.0  0.008071061605351478  0.009499999313948413  0.9991039804332067  1.0000
  Au  Au13      1.0  0.0020710615316010396  0.0014999998740452163  0.9988353604037206  1.0000
  Au  Au14      1.0  0.006071061456590893  0.003499999817767547  0.9992382903342535  1.0000
  Au  Au15      1.0  0.004071061401206519  0.007499999928536293  0.9987010504901759  1.0000
  Cu  Cu6       1.0  0.008071061335339287  0.004499999957121776  0.9994397551543746  1.0000
  Cu  Cu7       1.0  0.006071061503278999  0.008499999621242352  0.9995740650289713  1.0000
  Cu  Cu8       1.0  0.009928938336732902  0.0007133413443672535  0.9999535400800452  1.0000
  Cu  Cu9       1.0  0.004013435050147817  0.002458425666824992  0.9997109548176719  1.0000
  Cu  Cu10      1.0  0.002141269792292828  0.006470334311080717  0.9998313460344757  1.0000
  Au  Au16      1.0  0.009013700574313846  0.0024899447348284837  0.9997084529678462  1.0000
  Au  Au17      1.0  0.00714566415116253  0.006504871827411603  0.9998434778511754  1.0000
  Au  Au18      1.0  0.0010710616064279809  0.008499999621242352  0.9995740650289713  1.0000
  Au  Au19      1.0  0.004971521576998383  0.0005821654668815456  0.9999700063593694  1.0000
  Au  Au20      1.0  0.0030710614384882686  0.004499999957121776  0.9994397551543746  1.0000
  Au  Au21      1.0  0.005071061540560748  0.005499999649827836  0.9996412199844938  1.0000
  Au  Au22      1.0  0.003069197669606344  0.009331944367104833  0.9997911045617056  1.0000
  Au  Au23      1.0  0.007071061428452058  0.0014999998740452163  0.9995069101123967  1.0000
  Au  Au24      1.0  0.0010835966111563044  0.0034890198658243175  0.9999140706536499  1.0000
  Au  Au25      1.0  0.009071061298057537  0.007499999928536293  0.999372600198852  1.0000
  Au  Au26      1.0  7.106164370972957e-05  0.005499999649827836  0.9996412199844938  1.0000
  Au  Au27      1.0  0.0081562547566329  0.009367347487587612  0.9997920455794553  1.0000
  Au  Au28      1.0  0.0020710615316010396  0.0014999998740452163  0.9995069101123967  1.0000
  Au  Au29      1.0  0.006081142220143884  0.003503193798825434  0.999915910509142  1.0000
  Au  Au30      1.0  0.004071061401206519  0.007499999928536293  0.999372600198852  1.0000
