data_image0
_chemical_formula_structural       CONi20Sb8
_chemical_formula_sum              "C1 O1 Ni20 Sb8"
_cell_length_a       6.2132995286767905
_cell_length_b       7.107237526403237
_cell_length_c       104.85698699951172
_cell_angle_alpha    84.64856882057221
_cell_angle_beta     89.87596406704023
_cell_angle_gamma    64.41802018450595

_space_group_name_H-M_alt    "P 1"
_space_group_IT_number       1

loop_
  _space_group_symop_operation_xyz
  'x, y, z'

loop_
  _atom_site_type_symbol
  _atom_site_label
  _atom_site_symmetry_multiplicity
  _atom_site_fract_x
  _atom_site_fract_y
  _atom_site_fract_z
  _atom_site_occupancy
  C   C1        1.0  0.004979421504480176  0.009941804506617311  8.375210124942218e-05  1.0000
  O   O1        1.0  0.004979421504480176  0.009941804506617311  0.00019819392016942367  1.0000
  Ni  Ni1       1.0  0.005313088008264384  0.008641071921829505  0.9992849194210167  1.0000
  Ni  Ni2       1.0  0.006033097778239415  0.007201052849887076  0.9990455709603101  1.0000
  Ni  Ni3       1.0  0.003995499776222232  0.005730328078686451  0.9992259330381624  1.0000
  Ni  Ni4       1.0  0.007350685810693261  0.00011179685441308495  0.9991045573990136  1.0000
  Ni  Ni5       1.0  0.008866013770167826  0.0076039120214049325  0.9994510511287936  1.0000
  Ni  Ni6       1.0  0.001051600455009877  0.0010953557618480242  0.9993543308423491  1.0000
  Ni  Ni7       1.0  0.007570806415700571  0.004717191893004648  0.9993940083964916  1.0000
  Ni  Ni8       1.0  0.0030533598262516273  0.0025689715516594817  0.9991764985598897  1.0000
  Ni  Ni9       1.0  0.008292825805728682  0.003273153290160103  0.9991539918778576  1.0000
  Ni  Ni10      1.0  0.0023468074375891487  0.003982076036296231  0.9994113735737756  1.0000
  Ni  Ni11      1.0  0.003858185260001655  0.0015370933282766947  0.9997599400932252  1.0000
  Ni  Ni12      1.0  0.004604526270991099  5.819575188750931e-05  0.9995204625508115  1.0000
  Ni  Ni13      1.0  0.0025851120761148467  0.008629572692663427  0.9997003332663832  1.0000
  Ni  Ni14      1.0  0.005922114221274899  0.0029689395585185837  0.9995794492181516  1.0000
  Ni  Ni15      1.0  0.007699756977794077  0.0005177580655326979  0.9998983722036756  1.0000
  Ni  Ni16      1.0  0.009635043858502735  0.00385221869506495  0.9998293407929059  1.0000
  Ni  Ni17      1.0  0.006272435581235123  0.007564914889533744  0.9998592330108121  1.0000
  Ni  Ni18      1.0  0.0016247884915527272  0.005426114347044932  0.9996513900941991  1.0000
  Ni  Ni19      1.0  0.006864254171245503  0.006130296085545553  0.9996288836964243  1.0000
  Ni  Ni20      1.0  0.0008251582406590508  0.006831142673705331  0.9998751585882821  1.0000
  Sb  Sb1       1.0  0.0032716595363272904  0.007173991338372125  0.999462960760691  1.0000
  Sb  Sb2       1.0  0.006645954389066135  0.001525276444880832  0.9993424212104903  1.0000
  Sb  Sb3       1.0  0.009552657463649318  0.0061582969772931324  0.9992140774643492  1.0000
  Sb  Sb4       1.0  0.0017935277232859251  0.00968382779442345  0.9991164132012733  1.0000
  Sb  Sb5       1.0  0.001996556455507345  0.00992192913704363  0.9999370225555212  1.0000
  Sb  Sb6       1.0  0.005180031957941277  0.004426057921138272  0.9998265058751538  1.0000
  Sb  Sb7       1.0  0.008125908895952128  0.009057549769953726  0.9996820779963379  1.0000
  Sb  Sb8       1.0  0.0003649565338478135  0.0025409706599119025  0.9995913047919648  1.0000
