data_image0
_chemical_formula_structural       COTi6Au24
_chemical_formula_sum              "C1 O1 Ti6 Au24"
_cell_length_a       7.761548702851828
_cell_length_b       9.378463745117188
_cell_length_c       110.83516693115234
_cell_angle_alpha    90.0
_cell_angle_beta     69.52709714118866
_cell_angle_gamma    52.83144436155617

_space_group_name_H-M_alt    "P 1"
_space_group_IT_number       1

loop_
  _space_group_symop_operation_xyz
  'x, y, z'

loop_
  _atom_site_type_symbol
  _atom_site_label
  _atom_site_symmetry_multiplicity
  _atom_site_fract_x
  _atom_site_fract_y
  _atom_site_fract_z
  _atom_site_occupancy
  C   C1        1.0  0.003823525459081702  0.002286439381887096  0.9999381084277932  1.0000
  O   O1        1.0  0.003823525459081702  0.002286439381887096  4.6377532725868315e-05  1.0000
  Ti  Ti1       1.0  0.006817331927527501  0.0016442430312446044  0.9995089987090395  1.0000
  Ti  Ti2       1.0  0.00015066525345908312  0.004977576368278814  0.998894946232423  1.0000
  Ti  Ti3       1.0  0.003483998585256204  0.008310909321051415  0.9992019723364153  1.0000
  Ti  Ti4       1.0  0.006817331927527501  0.0016442430312446044  0.9990484590744858  1.0000
  Ti  Ti5       1.0  0.00015066525345908312  0.004977576368278814  0.9993554855980881  1.0000
  Ti  Ti6       1.0  0.0036156410483819557  0.008269945168710977  0.999642015286004  1.0000
  Au  Au1       1.0  0.0021572663590906  0.004914948121847658  0.9990797702019274  1.0000
  Au  Au2       1.0  0.005490599701361897  0.00824828106938317  0.9993867960367744  1.0000
  Au  Au3       1.0  0.008800044883236015  0.0018171140829784146  0.9997066112899049  1.0000
  Au  Au4       1.0  0.004810730811421808  0.0017068708856953065  0.9993241750086804  1.0000
  Au  Au5       1.0  0.008096569713928817  0.005065505365347254  0.9996356515696355  1.0000
  Au  Au6       1.0  0.001477397469150511  0.008373537572719657  0.9990171486360561  1.0000
  Au  Au7       1.0  0.006190216686915087  0.0049677022615923485  0.9989906970358186  1.0000
  Au  Au8       1.0  0.009523550029186385  0.008301035209127861  0.9992977234084429  1.0000
  Au  Au9       1.0  0.0027645217236814366  0.0016417040365981927  0.9996223275300492  1.0000
  Au  Au10      1.0  0.007444447168139915  0.008320783038239183  0.9991062216509305  1.0000
  Au  Au11      1.0  0.0007777802322170919  0.0016541172688582715  0.9994132476431691  1.0000
  Au  Au12      1.0  0.004113032694949645  0.005020087315702194  0.9997280554355036  1.0000
  Au  Au13      1.0  0.008823932708459556  0.0015816149471631806  0.9992332833208318  1.0000
  Au  Au14      1.0  0.002106270192736962  0.00490817148545879  0.9995491964124033  1.0000
  Au  Au15      1.0  0.005490599701361897  0.00824828106938317  0.998926256939998  1.0000
  Au  Au16      1.0  0.005191547055440058  0.0016024285837079183  0.999764186389888  1.0000
  Au  Au17      1.0  0.008144063818519467  0.005040204398035179  0.9991706617549605  1.0000
  Au  Au18      1.0  0.001477397469150511  0.008373537572719657  0.9994776882706098  1.0000
  Au  Au19      1.0  0.0028568833446437902  0.0016343689168392954  0.9991442102977479  1.0000
  Au  Au20      1.0  0.006190216686915087  0.0049677022615923485  0.9994512366703723  1.0000
  Au  Au21      1.0  0.009849334783828984  0.008418384572935735  0.9997587578124256  1.0000
  Au  Au22      1.0  0.004111113490694979  0.004987450258290489  0.9992597349210695  1.0000
  Au  Au23      1.0  0.007437681353070989  0.00824540485749368  0.9995758836843898  1.0000
  Au  Au24      1.0  0.0007777802322170919  0.0016541172688582715  0.9989527085463927  1.0000
