data_image0
_chemical_formula_structural       COCa2Cu2Sb2Ca2Cu2Sb2
_chemical_formula_sum              "C1 O1 Ca4 Cu4 Sb4"
_cell_length_a       9.463381180219995
_cell_length_b       4.53070356116054
_cell_length_c       106.2456283569336
_cell_angle_alpha    60.000000120790475
_cell_angle_beta     61.3954484425065
_cell_angle_gamma    76.15000238996504

_space_group_name_H-M_alt    "P 1"
_space_group_IT_number       1

loop_
  _space_group_symop_operation_xyz
  'x, y, z'

loop_
  _atom_site_type_symbol
  _atom_site_label
  _atom_site_symmetry_multiplicity
  _atom_site_fract_x
  _atom_site_fract_y
  _atom_site_fract_z
  _atom_site_occupancy
  C   C1        1.0  0.0023538967112475754  0.006379108408509609  0.9997636069069318  1.0000
  O   O1        1.0  0.0023538967112475754  0.006379108408509609  0.9998765529594354  1.0000
  Ca  Ca1       1.0  0.0007911718261175817  0.002009324606620722  0.9993508526195944  1.0000
  Ca  Ca2       1.0  0.0056236388430130095  0.0021232132412306363  0.9995619381371352  1.0000
  Cu  Cu1       1.0  0.003244144549896791  0.008374902185722987  0.9995554276330513  1.0000
  Cu  Cu2       1.0  0.009372984440960326  0.005169990682350817  0.9995668732106966  1.0000
  Sb  Sb1       1.0  0.008127015451428406  0.008291765177193777  0.9993571966187279  1.0000
  Sb  Sb2       1.0  0.002526072048914515  0.004589426338177998  0.9994827633374711  1.0000
  Ca  Ca3       1.0  0.0006270156576833354  0.0016250980421406813  0.9989662964997386  1.0000
  Ca  Ca4       1.0  0.005627015594910096  0.0016250980421406813  0.9991795151792129  1.0000
  Cu  Cu3       1.0  0.0031270155142016456  0.008291765177193777  0.9991439787807656  1.0000
  Cu  Cu4       1.0  0.008127015451428406  0.004958431134951255  0.9992150510437944  1.0000
  Sb  Sb3       1.0  0.008127015451428406  0.008291765177193777  0.9989307604320297  1.0000
  Sb  Sb4       1.0  0.0031270155142016456  0.004958431134951255  0.999001833205832  1.0000
