data_image0
_chemical_formula_structural       COSi12Rh12
_chemical_formula_sum              "C1 O1 Si12 Rh12"
_cell_length_a       7.1681569534085305
_cell_length_b       6.417975521161973
_cell_length_c       106.40836334228516
_cell_angle_alpha    111.8492293155532
_cell_angle_beta     119.30300796632223
_cell_angle_gamma    77.79643123233721

_space_group_name_H-M_alt    "P 1"
_space_group_IT_number       1

loop_
  _space_group_symop_operation_xyz
  'x, y, z'

loop_
  _atom_site_type_symbol
  _atom_site_label
  _atom_site_symmetry_multiplicity
  _atom_site_fract_x
  _atom_site_fract_y
  _atom_site_fract_z
  _atom_site_occupancy
  C   C1        1.0  0.004169519245624656  0.002184672473404239  0.00024433101738532303  1.0000
  O   O1        1.0  0.004169519245624656  0.002184672473404239  0.00035710433652842873  1.0000
  Si  Si1       1.0  0.0039255062944697225  0.0008571061933687679  0.9997110966140454  1.0000
  Si  Si2       1.0  0.007258839715267063  0.004190439583839098  0.9999962273082871  1.0000
  Si  Si3       1.0  0.0005921731718451338  0.007523772891655214  0.999425965651552  1.0000
  Si  Si4       1.0  0.009407826792374136  0.0037681077842476743  0.9994208342680682  1.0000
  Si  Si5       1.0  0.002741160248952207  0.0071014414047482  0.999705965080683  1.0000
  Si  Si6       1.0  0.006074493371576796  0.00043477462829065103  0.9999910960414218  1.0000
  Si  Si7       1.0  0.008175934418062586  0.006231891901664359  0.9997431553159202  1.0000
  Si  Si8       1.0  0.0015092680237270323  0.009565225516513768  2.8286413398600836e-05  1.0000
  Si  Si9       1.0  0.004842601295437997  0.002898558656233999  0.9994580246347651  1.0000
  Si  Si10      1.0  0.005157398668781273  0.00839332170698448  0.9993887752778361  1.0000
  Si  Si11      1.0  0.00849073149323311  0.0017266553326846779  0.9996739062377714  1.0000
  Si  Si12      1.0  0.0018240650988975565  0.005059988791191881  0.9999590370516653  1.0000
  Rh  Rh1       1.0  0.008841427375002738  0.007489615531633268  0.9995786449070727  1.0000
  Rh  Rh2       1.0  0.0021747606824944333  0.0008229489013836942  0.9998637757091435  1.0000
  Rh  Rh3       1.0  0.005508093954205398  0.004156282297505142  0.00014890639859662378  1.0000
  Rh  Rh4       1.0  0.004491906010013872  0.007135598691082156  0.9995532859903734  1.0000
  Rh  Rh5       1.0  0.00782523913263846  0.00046893191462460746  0.9998384166710372  1.0000
  Rh  Rh6       1.0  0.0011585726637597194  0.0038022651414440626  0.00012354775734784836  1.0000
  Rh  Rh7       1.0  0.001139387558034436  0.0038406354905508163  0.9996942100891312  1.0000
  Rh  Rh8       1.0  0.004472720680659025  0.007173968735981177  0.9999793410503613  1.0000
  Rh  Rh9       1.0  0.007806054101456366  0.0005073021045635983  0.9994090792817805  1.0000
  Rh  Rh10      1.0  0.0021939457136765286  0.0007845787114447036  0.9994377206360692  1.0000
  Rh  Rh11      1.0  0.005527278985387493  0.004117911951223947  0.9997228516020878  1.0000
  Rh  Rh12      1.0  0.008860612406184834  0.007451245498036481  7.982299838902422e-06  1.0000
