data_image0
_chemical_formula_structural       COFe4Si8Fe4Si8Fe4Si8Fe4Si8
_chemical_formula_sum              "C1 O1 Fe16 Si32"
_cell_length_a       7.6846184730529785
_cell_length_b       7.494193755693023
_cell_length_c       108.60551452636719
_cell_angle_alpha    75.74567905074791
_cell_angle_beta     90.0
_cell_angle_gamma    59.155835224580954

_space_group_name_H-M_alt    "P 1"
_space_group_IT_number       1

loop_
  _space_group_symop_operation_xyz
  'x, y, z'

loop_
  _atom_site_type_symbol
  _atom_site_label
  _atom_site_symmetry_multiplicity
  _atom_site_fract_x
  _atom_site_fract_y
  _atom_site_fract_z
  _atom_site_occupancy
  C   C1        1.0  0.0038839939276545245  0.007775801147144629  0.9999402590588593  1.0000
  O   O1        1.0  0.0038839939276545245  0.007775801147144629  5.075090976599732e-05  1.0000
  Fe  Fe1       1.0  0.004014791370674137  0.00751420238292687  0.9988027696900781  1.0000
  Fe  Fe2       1.0  0.002764791617459894  0.005014202044482498  0.9989508803539449  1.0000
  Fe  Fe3       1.0  0.0002647919571952051  1.4202099441935691e-05  0.9992471016692438  1.0000
  Fe  Fe4       1.0  0.001514791879994953  0.0025142021593118386  0.9990989910101102  1.0000
  Si  Si1       1.0  0.003446585877868962  0.008650613368537221  0.99916631676462  1.0000
  Si  Si2       1.0  0.0021965861246547188  0.006150613030092849  0.9987219848728557  1.0000
  Si  Si3       1.0  0.0046965860475981875  0.0011506131842059114  0.999018205912061  1.0000
  Si  Si4       1.0  0.0009465863116441585  0.0036506132960134273  0.998870095252045  1.0000
  Si  Si5       1.0  0.004582997650434104  0.006377790792951569  0.9990316649070269  1.0000
  Si  Si6       1.0  0.003332997595037386  0.0038777910588721474  0.9991797755606251  1.0000
  Si  Si7       1.0  0.0008329975587754882  0.008877791131395942  0.9988835542431601  1.0000
  Si  Si8       1.0  0.002082997448345747  0.0013777910226102502  0.9987354436637266  1.0000
  Fe  Fe5       1.0  0.004014791370674137  0.00751420238292687  0.9993952119713002  1.0000
  Fe  Fe6       1.0  0.002764791617459894  0.005014202044482498  0.9995433226351669  1.0000
  Fe  Fe7       1.0  0.00027900033996913184  0.009985798173088884  0.999830335721025  1.0000
  Fe  Fe8       1.0  0.0015297789033285937  0.0024842368385462536  0.9996842007942751  1.0000
  Si  Si9       1.0  0.0034810626067978104  0.008581663788858055  0.9997737854442221  1.0000
  Si  Si10      1.0  0.0021965861246547188  0.006150613030092849  0.9993144274284866  1.0000
  Si  Si11      1.0  0.004735207807262012  0.001073374512601425  0.9996151321397256  1.0000
  Si  Si12      1.0  0.0009465863116441585  0.0036506132960134273  0.999462538082085  1.0000
  Si  Si13      1.0  0.004625908040250572  0.006291966135140103  0.9996339310274992  1.0000
  Si  Si14      1.0  0.003459365414555384  0.003625058328470049  0.9997733166943471  1.0000
  Si  Si15      1.0  0.0008329975587754882  0.008877791131395942  0.9994759970732  1.0000
  Si  Si16      1.0  0.002082997448345747  0.0013777910226102502  0.9993278862193576  1.0000
  Fe  Fe9       1.0  0.009014791700319312  0.00751420238292687  0.9988027696900781  1.0000
  Fe  Fe10      1.0  0.007764791947105069  0.005014202044482498  0.9989508803539449  1.0000
  Fe  Fe11      1.0  0.005264791589980175  1.4202099441935691e-05  0.9992471016692438  1.0000
  Fe  Fe12      1.0  0.006514791482481653  0.0025142021593118386  0.9990989910101102  1.0000
  Si  Si17      1.0  0.008446586207514137  0.008650613368537221  0.99916631676462  1.0000
  Si  Si18      1.0  0.007196586454299894  0.006150613030092849  0.9987219848728557  1.0000
  Si  Si19      1.0  0.009696586377243362  0.0011506131842059114  0.999018205912061  1.0000
  Si  Si20      1.0  0.0059465859141308594  0.0036506132960134273  0.998870095252045  1.0000
  Si  Si21      1.0  0.009582997495306963  0.006377790792951569  0.9990316649070269  1.0000
  Si  Si22      1.0  0.008332997439910244  0.0038777910588721474  0.9991797755606251  1.0000
  Si  Si23      1.0  0.005832997403648347  0.008877791131395942  0.9988835542431601  1.0000
  Si  Si24      1.0  0.007082997535604763  0.0013777910226102502  0.9987354436637266  1.0000
  Fe  Fe13      1.0  0.009014791700319312  0.00751420238292687  0.9993952119713002  1.0000
  Fe  Fe14      1.0  0.007764791947105069  0.005014202044482498  0.9995433226351669  1.0000
  Fe  Fe15      1.0  0.005278999700069674  0.009985798173088884  0.999830335721025  1.0000
  Fe  Fe16      1.0  0.006529778990587611  0.0024842368385462536  0.9996842007942751  1.0000
  Si  Si25      1.0  0.008481062936442987  0.008581663788858055  0.9997737854442221  1.0000
  Si  Si26      1.0  0.007196586454299894  0.006150613030092849  0.9993144274284866  1.0000
  Si  Si27      1.0  0.009735207652134871  0.001073374512601425  0.9996151321397256  1.0000
  Si  Si28      1.0  0.0059465859141308594  0.0036506132960134273  0.999462538082085  1.0000
  Si  Si29      1.0  0.00962590788512343  0.006291966135140103  0.9996339310274992  1.0000
  Si  Si30      1.0  0.00845936574420056  0.003625058328470049  0.9997733166943471  1.0000
  Si  Si31      1.0  0.005832997403648347  0.008877791131395942  0.9994759970732  1.0000
  Si  Si32      1.0  0.007082997535604763  0.0013777910226102502  0.9993278862193576  1.0000
