data_image0
_chemical_formula_structural       COFe6Si12
_chemical_formula_sum              "C1 O1 Fe6 Si12"
_cell_length_a       5.832489158367816
_cell_length_b       6.075224109421197
_cell_length_c       98.44456481933594
_cell_angle_alpha    87.55179486611408
_cell_angle_beta     86.45018258029603
_cell_angle_gamma    65.37691397997598

_space_group_name_H-M_alt    "P 1"
_space_group_IT_number       1

loop_
  _space_group_symop_operation_xyz
  'x, y, z'

loop_
  _atom_site_type_symbol
  _atom_site_label
  _atom_site_symmetry_multiplicity
  _atom_site_fract_x
  _atom_site_fract_y
  _atom_site_fract_z
  _atom_site_occupancy
  C   C1        1.0  0.007334325058496708  0.004466230915359801  0.0001230285740255151  1.0000
  O   O1        1.0  0.007334325058496708  0.004466230915359801  0.0002449248345323023  1.0000
  Fe  Fe1       1.0  0.004788511731944607  0.005292961659456323  0.9995851787175627  1.0000
  Fe  Fe2       1.0  0.003955178254931419  0.0077929615380198  0.9993443955030655  1.0000
  Fe  Fe3       1.0  0.004371845047123732  0.0015429615042874326  0.9994647870119783  1.0000
  Fe  Fe4       1.0  0.006119693345402709  0.006466024645979612  0.9999327719412636  1.0000
  Fe  Fe5       1.0  0.005121700152874551  0.009069845668319268  0.9997028747282151  1.0000
  Fe  Fe6       1.0  0.005722145399460011  0.0027019248671257753  0.9998225142224141  1.0000
  Si  Si1       1.0  0.007193723352335141  0.007395269741930225  0.9994921500003012  1.0000
  Si  Si2       1.0  0.007610390711456607  0.001145269876859695  0.9996125415066897  1.0000
  Si  Si3       1.0  0.006777057234443419  0.0036452697554231715  0.9993717582921925  1.0000
  Si  Si4       1.0  0.001549966140624036  0.005690653118222223  0.9994374242230281  1.0000
  Si  Si5       1.0  0.0019666327524326074  0.009440653442052952  0.9995578159284357  1.0000
  Si  Si6       1.0  0.0011332995427762217  0.0019406531317151699  0.9993170325166799  1.0000
  Si  Si7       1.0  0.008339319211910865  0.008675927849520437  0.9998729074889438  1.0000
  Si  Si8       1.0  0.008866700605550842  0.0025834188430862224  0.9999606638914028  1.0000
  Si  Si9       1.0  0.008031884153783017  0.004983566359587342  0.999728262557023  1.0000
  Si  Si10      1.0  0.0028202738846827458  0.006823276055809074  0.9998094754013074  1.0000
  Si  Si11      1.0  0.0034889217486010326  0.0005593468733446853  0.9999245484948404  1.0000
  Si  Si12      1.0  0.002433933874760291  0.0031896638693160798  0.9996781687059233  1.0000
