data_image0
_chemical_formula_structural       HAs8Si4Zn4
_chemical_formula_sum              "H1 As8 Si4 Zn4"
_cell_length_a       5.728379249572754
_cell_length_b       6.893372901151093
_cell_length_c       100.73766326904297
_cell_angle_alpha    95.3654311431604
_cell_angle_beta     90.0
_cell_angle_gamma    114.55074552919376

_space_group_name_H-M_alt    "P 1"
_space_group_IT_number       1

loop_
  _space_group_symop_operation_xyz
  'x, y, z'

loop_
  _atom_site_type_symbol
  _atom_site_label
  _atom_site_symmetry_multiplicity
  _atom_site_fract_x
  _atom_site_fract_y
  _atom_site_fract_z
  _atom_site_occupancy
  H   H1        1.0  0.008568193829512787  0.008528999889180499  0.00019031282211961272  1.0000
  As  As1       1.0  0.002670802612159685  0.0006165772303040796  0.9991303492179485  1.0000
  As  As2       1.0  0.00990673301518917  0.004826842787038178  0.9992508334528254  1.0000
  As  As3       1.0  0.004029800599096087  0.0030729779808648856  0.9995184083449029  1.0000
  As  As4       1.0  0.007099064273606693  0.008949910431735035  0.9993846207749167  1.0000
  As  As5       1.0  0.001004135958120439  0.007283243948238463  0.9996388922865664  1.0000
  As  As6       1.0  0.008240066457030876  0.0014935096707215873  0.9997593767710103  1.0000
  As  As7       1.0  0.002849156376647315  0.00980008885151242  6.270713790782166e-05  1.0000
  As  As8       1.0  0.005531230613457742  0.005647958085725591  0.9998938195945102  1.0000
  Si  Si1       1.0  0.00884326651315753  0.007699910121142265  0.9991939170542773  1.0000
  Si  Si2       1.0  9.326689240741028e-05  0.0001999105347682133  0.9995753244468936  1.0000
  Si  Si3       1.0  0.007176600029660957  0.004366577154149121  0.9997024600775767  1.0000
  Si  Si4       1.0  0.008425449872463048  0.008243511975081018  6.70942801139108e-05  1.0000
  Zn  Zn1       1.0  0.0030099333384228785  0.006033243637645694  0.9994481888617679  1.0000
  Zn  Zn2       1.0  0.005926600017715081  0.0018665771302573703  0.9993210529359605  1.0000
  Zn  Zn3       1.0  0.0017862384812907179  0.0022192537265207156  0.9999323410014892  1.0000
  Zn  Zn4       1.0  0.004091571687652105  0.008551237136872135  0.9998393872057447  1.0000
