data_image0
_chemical_formula_structural       COSi6Pt4Si6Pt4Si6Pt4Si6Pt4Si6Pt4Si6Pt4
_chemical_formula_sum              "C1 O1 Si36 Pt24"
_cell_length_a       7.908113411283123
_cell_length_b       12.15311336517334
_cell_length_c       105.58650970458984
_cell_angle_alpha    90.0
_cell_angle_beta     59.999999714170045
_cell_angle_gamma    90.0

_space_group_name_H-M_alt    "P 1"
_space_group_IT_number       1

loop_
  _space_group_symop_operation_xyz
  'x, y, z'

loop_
  _atom_site_type_symbol
  _atom_site_label
  _atom_site_symmetry_multiplicity
  _atom_site_fract_x
  _atom_site_fract_y
  _atom_site_fract_z
  _atom_site_occupancy
  C   C1        1.0  0.0005584963451351154  0.0024986612866730183  0.9999140784297466  1.0000
  O   O1        1.0  0.0005584963451351154  0.0024986612866730183  2.7729542490727485e-05  1.0000
  Si  Si1       1.0  0.001685308604991209  0.005650891117665583  0.9989964388278757  1.0000
  Si  Si2       1.0  0.003351975329678891  0.0006508913138445963  0.9987467820365168  1.0000
  Si  Si3       1.0  0.003351975329678891  0.004346432179090566  0.9987467820365168  1.0000
  Si  Si4       1.0  0.001685308604991209  0.009346432289441261  0.9989964388278757  1.0000
  Si  Si5       1.0  1.8641850556424293e-05  0.002498661746467581  0.9988716103857636  1.0000
  Si  Si6       1.0  1.8641850556424293e-05  0.007498661397023714  0.9988716103857636  1.0000
  Pt  Pt1       1.0  0.001685308604991209  0.0036269257226234346  0.9989964388278757  1.0000
  Pt  Pt2       1.0  0.003351975329678891  0.008626925526444422  0.9987467820365168  1.0000
  Pt  Pt3       1.0  0.003351975329678891  0.006370397880662423  0.9987467820365168  1.0000
  Pt  Pt4       1.0  0.001685308604991209  0.0013703977703117276  0.9989964388278757  1.0000
  Si  Si7       1.0  0.001685308604991209  0.005650891117665583  0.9993709240624608  1.0000
  Si  Si8       1.0  0.003351975329678891  0.0006508913138445963  0.9991212669888468  1.0000
  Si  Si9       1.0  0.003351975329678891  0.004346432179090566  0.9991212669888468  1.0000
  Si  Si10      1.0  0.001685308604991209  0.009346432289441261  0.9993709240624608  1.0000
  Si  Si11      1.0  1.8641850556424293e-05  0.002498661746467581  0.9992460953380936  1.0000
  Si  Si12      1.0  1.8641850556424293e-05  0.007498661397023714  0.9992460953380936  1.0000
  Pt  Pt5       1.0  0.001685308604991209  0.0036269257226234346  0.9993709240624608  1.0000
  Pt  Pt6       1.0  0.003351975329678891  0.008626925526444422  0.9991212669888468  1.0000
  Pt  Pt7       1.0  0.003351975329678891  0.006370397880662423  0.9991212669888468  1.0000
  Pt  Pt8       1.0  0.001685308604991209  0.0013703977703117276  0.9993709240624608  1.0000
  Si  Si13      1.0  0.001706593115905728  0.005612336423976748  0.9997419934618984  1.0000
  Si  Si14      1.0  0.0033754849918663818  0.0006150138889469252  0.9994922632208807  1.0000
  Si  Si15      1.0  0.003375485535813402  0.004382309642304451  0.9994922632005108  1.0000
  Si  Si16      1.0  0.001706590940117647  0.009384985757011261  0.9997419935433784  1.0000
  Si  Si17      1.0  0.00986544743741598  0.0024986612866730183  0.9996433946705714  1.0000
  Si  Si18      1.0  0.009981358195849055  0.007498663236201965  0.9996262130762997  1.0000
  Pt  Pt9       1.0  0.0018230203520345045  0.0036416140132003367  0.9997246604309609  1.0000
  Pt  Pt10      1.0  0.0033883449873184624  0.008606359222175322  0.9994902986654267  1.0000
  Pt  Pt11      1.0  0.0033883447153449523  0.006390964184931521  0.9994902986756117  1.0000
  Pt  Pt12      1.0  0.0018230206240080146  0.0013557087134105541  0.9997246604207759  1.0000
  Si  Si19      1.0  0.0066853085070807455  0.005650891117665583  0.998996438650899  1.0000
  Si  Si20      1.0  0.008351975231768427  0.0006508913138445963  0.9987467821417952  1.0000
  Si  Si21      1.0  0.008351975231768427  0.004346432179090566  0.9987467821417952  1.0000
  Si  Si22      1.0  0.0066853085070807455  0.009346432289441261  0.998996438650899  1.0000
  Si  Si23      1.0  0.005018641782393063  0.002498661746467581  0.998871610489928  1.0000
  Si  Si24      1.0  0.005018641782393063  0.007498661397023714  0.998871610489928  1.0000
  Pt  Pt13      1.0  0.0066853085070807455  0.0036269257226234346  0.998996438650899  1.0000
  Pt  Pt14      1.0  0.008351975231768427  0.008626925526444422  0.9987467821417952  1.0000
  Pt  Pt15      1.0  0.008351975231768427  0.006370397880662423  0.9987467821417952  1.0000
  Pt  Pt16      1.0  0.0066853085070807455  0.0013703977703117276  0.998996438650899  1.0000
  Si  Si25      1.0  0.0066853085070807455  0.005650891117665583  0.9993709238854842  1.0000
  Si  Si26      1.0  0.008351975231768427  0.0006508913138445963  0.9991212668118702  1.0000
  Si  Si27      1.0  0.008351975231768427  0.004346432179090566  0.9991212668118702  1.0000
  Si  Si28      1.0  0.0066853085070807455  0.009346432289441261  0.9993709238854842  1.0000
  Si  Si29      1.0  0.005018641782393063  0.002498661746467581  0.9992460957245131  1.0000
  Si  Si30      1.0  0.005018641782393063  0.007498661397023714  0.9992460957245131  1.0000
  Pt  Pt17      1.0  0.0066853085070807455  0.0036269257226234346  0.9993709238854842  1.0000
  Pt  Pt18      1.0  0.008351975231768427  0.008626925526444422  0.9991212668118702  1.0000
  Pt  Pt19      1.0  0.008351975231768427  0.006370397880662423  0.9991212668118702  1.0000
  Pt  Pt20      1.0  0.0066853085070807455  0.0013703977703117276  0.9993709238854842  1.0000
  Si  Si31      1.0  0.006706593153982019  0.005612336423976748  0.9997419932798293  1.0000
  Si  Si32      1.0  0.008375485165929428  0.0006150138889469252  0.9994922630337192  1.0000
  Si  Si33      1.0  0.008375485709876448  0.004382309642304451  0.9994922630133491  1.0000
  Si  Si34      1.0  0.006706590978193938  0.009384985757011261  0.9997419939258193  1.0000
  Si  Si35      1.0  0.004865447807299954  0.0024986612866730183  0.999643394837363  1.0000
  Si  Si36      1.0  0.004981358021786009  0.007498663236201965  0.9996262126989514  1.0000
  Pt  Pt21      1.0  0.006823020662084306  0.0036416140132003367  0.9997246602387068  1.0000
  Pt  Pt22      1.0  0.008388345161381509  0.008606359222175322  0.9994902990427751  1.0000
  Pt  Pt23      1.0  0.008388344617434488  0.006390964184931521  0.9994902990631451  1.0000
  Pt  Pt24      1.0  0.006823020662084306  0.0013557087134105541  0.9997246602387068  1.0000
