data_image0
_chemical_formula_structural       Re6Pt2Re6Pt2Re6Pt2Re6Pt2H
_chemical_formula_sum              "Re24 Pt8 H1"
_cell_length_a       5.5993157412276675
_cell_length_b       8.881783485412598
_cell_length_c       30.804790496826172
_cell_angle_alpha    90.0
_cell_angle_beta     119.99999942152355
_cell_angle_gamma    90.0

_space_group_name_H-M_alt    "P 1"
_space_group_IT_number       1

loop_
  _space_group_symop_operation_xyz
  'x, y, z'

loop_
  _atom_site_type_symbol
  _atom_site_label
  _atom_site_symmetry_multiplicity
  _atom_site_fract_x
  _atom_site_fract_y
  _atom_site_fract_z
  _atom_site_occupancy
  Re  Re1       1.0  0.0015871447733072656  0.0012499948619771883  0.998818919161933  1.0000
  Re  Re2       1.0  0.0015828655079614302  0.0012499964348413144  0.9996854891346921  1.0000
  Re  Re3       1.0  0.006808882156466594  0.0012499948619771883  0.9988189190221801  1.0000
  Re  Re4       1.0  0.008417133823673442  0.003750000838860867  0.9994092882791469  1.0000
  Re  Re5       1.0  0.008066398851889452  0.0037500025165826015  0.00022565749658881267  1.0000
  Re  Re6       1.0  0.003229258737163948  0.0037499958056956637  0.9994093528085796  1.0000
  Pt  Pt1       1.0  0.0032628087459697737  0.003750005033165203  0.00029653660612172217  1.0000
  Pt  Pt2       1.0  0.006684653821649725  0.001250003670016294  0.9997224718660337  1.0000
  Re  Re7       1.0  0.0015871447733072656  0.0012499948619771883  0.9970012423090183  1.0000
  Re  Re8       1.0  0.0015871447733072656  0.0012499948619771883  0.9978697762185084  1.0000
  Re  Re9       1.0  0.006808882156466594  0.0012499948619771883  0.9970012424111299  1.0000
  Re  Re10      1.0  0.008401636203311424  0.0037499949668347967  0.9975802647368001  1.0000
  Re  Re11      1.0  0.008401636203311424  0.0037499949668347967  0.9985294081639533  1.0000
  Re  Re12      1.0  0.0031798990122110403  0.0037499949668347967  0.9975802646521436  1.0000
  Pt  Pt3       1.0  0.0033277239010270415  0.0037499949668347967  0.9985025379729643  1.0000
  Pt  Pt4       1.0  0.006661057459709537  0.0012499948619771883  0.9978966459606788  1.0000
  Re  Re13      1.0  0.0015871447733072656  0.006249994966834796  0.998818919161933  1.0000
  Re  Re14      1.0  0.0015828655079614302  0.006249996225126097  0.9996854891346921  1.0000
  Re  Re15      1.0  0.006808882156466594  0.006249994966834796  0.9988189190221801  1.0000
  Re  Re16      1.0  0.008417133823673442  0.008750000838860867  0.9994092882791469  1.0000
  Re  Re17      1.0  0.008066398851889452  0.008750002516582601  0.00022565749658881267  1.0000
  Re  Re18      1.0  0.003229258737163948  0.008749995805695663  0.9994093528085796  1.0000
  Pt  Pt5       1.0  0.0032628087459697737  0.008750005033165203  0.00029653660612172217  1.0000
  Pt  Pt6       1.0  0.006684653821649725  0.0062500033554434686  0.9997224718660337  1.0000
  Re  Re19      1.0  0.0015871447733072656  0.006249994966834796  0.9970012423090183  1.0000
  Re  Re20      1.0  0.0015871447733072656  0.006249994966834796  0.9978697762185084  1.0000
  Re  Re21      1.0  0.006808882156466594  0.006249994966834796  0.9970012424111299  1.0000
  Re  Re22      1.0  0.008401636203311424  0.008749994966834797  0.9975802647368001  1.0000
  Re  Re23      1.0  0.008401636203311424  0.008749994966834797  0.9985294081639533  1.0000
  Re  Re24      1.0  0.0031798990122110403  0.008749994966834797  0.9975802646521436  1.0000
  Pt  Pt7       1.0  0.0033277239010270415  0.008749994966834797  0.9985025379729643  1.0000
  Pt  Pt8       1.0  0.006661057459709537  0.006249994966834796  0.9978966459606788  1.0000
  H   H1        1.0  0.0015828655079614302  0.0012499964348413144  0.00017242592124262166  1.0000
