data_image0
_chemical_formula_structural       HRe4Ir12Re4Ir12
_chemical_formula_sum              "H1 Re8 Ir24"
_cell_length_a       7.087817460539563
_cell_length_b       5.550826626350222
_cell_length_c       112.52690124511719
_cell_angle_alpha    66.94745353064003
_cell_angle_beta     76.9001367000288
_cell_angle_gamma    66.94745342840982

_space_group_name_H-M_alt    "P 1"
_space_group_IT_number       1

loop_
  _space_group_symop_operation_xyz
  'x, y, z'

loop_
  _atom_site_type_symbol
  _atom_site_label
  _atom_site_symmetry_multiplicity
  _atom_site_fract_x
  _atom_site_fract_y
  _atom_site_fract_z
  _atom_site_occupancy
  H   H1        1.0  0.00029744668415507074  0.004619658720849095  0.9999794357818772  1.0000
  Re  Re1       1.0  0.0021987561029058957  0.00166666678439568  0.9996462372317985  1.0000
  Re  Re2       1.0  0.007198756079971607  0.0016666669480367294  0.999331298276184  1.0000
  Re  Re3       1.0  0.008032089505042094  0.00833333363115614  0.9996987273670852  1.0000
  Re  Re4       1.0  0.0030320895279763826  0.008333333649856651  0.9993837884242095  1.0000
  Ir  Ir1       1.0  0.0005282924813109401  0.008348522038214193  0.9998559571470523  1.0000
  Ir  Ir2       1.0  0.0055282924583766515  0.008348522019513681  0.9995410187246524  1.0000
  Ir  Ir3       1.0  0.008039683621307268  0.003325739036115547  0.9996992052518958  1.0000
  Ir  Ir4       1.0  0.003039683644241556  0.003325739054816058  0.9993842668387125  1.0000
  Ir  Ir5       1.0  0.0005282924813109401  0.0033257392333979193  0.9998559575318786  1.0000
  Ir  Ir6       1.0  0.0055282924583766515  0.0033257392146974086  0.9995410185797863  1.0000
  Ir  Ir7       1.0  0.009702552553279838  0.0016514788215326642  0.9994890069217442  1.0000
  Ir  Ir8       1.0  0.004702553149571338  0.0016514785783796984  0.9998039458707092  1.0000
  Ir  Ir9       1.0  0.002191161986640722  0.006674260832411592  0.9996457588278618  1.0000
  Ir  Ir10      1.0  0.007191161963706434  0.006674260813711081  0.9993308204054618  1.0000
  Ir  Ir11      1.0  0.009702552553279838  0.006674260896982696  0.9994890070806988  1.0000
  Ir  Ir12      1.0  0.004702553149571338  0.006674260653829731  0.9998039460296637  1.0000
  Re  Re5       1.0  0.0021987561029058957  0.00166666678439568  0.9990163598665227  1.0000
  Re  Re6       1.0  0.007198756079971607  0.0016666669480367294  0.9987014209109083  1.0000
  Re  Re7       1.0  0.008032089505042094  0.00833333363115614  0.999068849472117  1.0000
  Re  Re8       1.0  0.0030320895279763826  0.008333333649856651  0.9987539105292413  1.0000
  Ir  Ir13      1.0  0.0005282924813109401  0.008348522038214193  0.9992260797817766  1.0000
  Ir  Ir14      1.0  0.0055282924583766515  0.008348522019513681  0.9989111408296842  1.0000
  Ir  Ir15      1.0  0.008039683621307268  0.003325739036115547  0.9990693278866202  1.0000
  Ir  Ir16      1.0  0.003039683644241556  0.003325739054816058  0.9987543889437444  1.0000
  Ir  Ir17      1.0  0.0005282924813109401  0.0033257392333979193  0.9992260796369106  1.0000
  Ir  Ir18      1.0  0.0055282924583766515  0.0033257392146974086  0.9989111412145105  1.0000
  Ir  Ir19      1.0  0.009702552553279838  0.0016514788215326642  0.9988591295564685  1.0000
  Ir  Ir20      1.0  0.004702553149571338  0.0016514785783796984  0.9991740685054336  1.0000
  Ir  Ir21      1.0  0.002191161986640722  0.006674260832411592  0.999015881462586  1.0000
  Ir  Ir22      1.0  0.007191161963706434  0.006674260813711081  0.9987009425104937  1.0000
  Ir  Ir23      1.0  0.009702552553279838  0.006674260896982696  0.998859129715423  1.0000
  Ir  Ir24      1.0  0.004702553149571338  0.006674260653829731  0.9991740681346956  1.0000
