data_image0
_chemical_formula_structural       HTi2Pt2Ti2Pt2Ti2Pt2
_chemical_formula_sum              "H1 Ti6 Pt6"
_cell_length_a       4.893535137176514
_cell_length_b       4.635851860046387
_cell_length_c       100.82281494140625
_cell_angle_alpha    90.0
_cell_angle_beta     90.0
_cell_angle_gamma    90.0

_space_group_name_H-M_alt    "P 1"
_space_group_IT_number       1

loop_
  _space_group_symop_operation_xyz
  'x, y, z'

loop_
  _atom_site_type_symbol
  _atom_site_label
  _atom_site_symmetry_multiplicity
  _atom_site_fract_x
  _atom_site_fract_y
  _atom_site_fract_z
  _atom_site_occupancy
  H   H1        1.0  0.009056042988166514  0.0012499615204429892  1.5841315899874144e-05  1.0000
  Ti  Ti1       1.0  0.006000667619603319  0.008749973224624839  0.0  1.0000
  Ti  Ti2       1.0  0.0021121209002505923  0.0037499636137758915  6.503003242969682e-09  1.0000
  Pt  Pt1       1.0  0.0009439576893617502  0.00875003831482256  0.9998936386525044  1.0000
  Pt  Pt2       1.0  0.007168127228809157  0.003749884460881132  0.9998936445643255  1.0000
  Ti  Ti3       1.0  0.00594816184359113  0.008749992510609348  0.999745963725406  1.0000
  Ti  Ti4       1.0  0.002165001029660257  0.0037499222292674637  0.9997459867815085  1.0000
  Pt  Pt3       1.0  0.0009534487945636375  0.008749933849073131  0.9996102702861919  1.0000
  Pt  Pt4       1.0  0.0071593505733551725  0.0037499342830077825  0.9996102702861919  1.0000
  Ti  Ti5       1.0  0.006062600173695714  0.008749933849073131  0.9994713099746213  1.0000
  Ti  Ti6       1.0  0.0020501995748569523  0.0037499342830077825  0.9994713099746213  1.0000
  Pt  Pt5       1.0  0.0009534487945636375  0.008749933849073131  0.9993323496630507  1.0000
  Pt  Pt6       1.0  0.0071593505733551725  0.0037499342830077825  0.9993323496630507  1.0000
