data_image0
_chemical_formula_structural       HGe12Mn12Rh12
_chemical_formula_sum              "H1 Ge12 Mn12 Rh12"
_cell_length_a       7.337201504174746
_cell_length_b       7.337201515575742
_cell_length_c       108.23524475097656
_cell_angle_alpha    92.80917572780525
_cell_angle_beta     92.80917573217384
_cell_angle_gamma    98.70650350587813

_space_group_name_H-M_alt    "P 1"
_space_group_IT_number       1

loop_
  _space_group_symop_operation_xyz
  'x, y, z'

loop_
  _atom_site_type_symbol
  _atom_site_label
  _atom_site_symmetry_multiplicity
  _atom_site_fract_x
  _atom_site_fract_y
  _atom_site_fract_z
  _atom_site_occupancy
  H   H1        1.0  0.00986636478173314  0.004363937455564854  4.727789481958936e-05  1.0000
  Ge  Ge1       1.0  0.008357881519657068  0.009455386208094644  9.005150040516241e-05  1.0000
  Ge  Ge2       1.0  0.0035097636904186827  0.004091444202413663  0.999635081189237  1.0000
  Ge  Ge3       1.0  0.0009244340745477461  0.0042945551301865805  0.9993026187577154  1.0000
  Ge  Ge4       1.0  0.0059244341554150325  0.00929455575785977  0.9997441943130909  1.0000
  Ge  Ge5       1.0  0.009192219210771825  0.00587998686142135  0.9997506762475493  1.0000
  Ge  Ge6       1.0  0.004192219203237794  0.0008799868125451595  0.9993091006943404  1.0000
  Ge  Ge7       1.0  0.001833947764814373  0.0005446145327655117  0.9998621476533129  1.0000
  Ge  Ge8       1.0  0.006562499782891807  0.006038707918155302  0.9994142936323672  1.0000
  Ge  Ge9       1.0  0.002680167799016992  0.006172836019099572  9.377286214264639e-06  1.0000
  Ge  Ge10      1.0  0.008351042401128819  0.0017211634857259627  0.9995298881950752  1.0000
  Ge  Ge11      1.0  0.006461982280309708  0.003169985234492447  0.9999644231887592  1.0000
  Ge  Ge12      1.0  0.00176561067767877  0.00845337850588197  0.9995234068095035  1.0000
  Mn  Mn1       1.0  0.0017367777627128704  0.0079100136601442  0.999283833651165  1.0000
  Mn  Mn2       1.0  0.006736777982656608  0.0029100132897141215  0.9997254095341037  1.0000
  Mn  Mn3       1.0  0.009729645555972293  0.004227218659261094  0.999932992284539  1.0000
  Mn  Mn4       1.0  0.005381069023176763  0.00926572189216079  0.9995046214259896  1.0000
  Mn  Mn5       1.0  0.0027370680572260464  0.007109886749153049  0.9997342479655317  1.0000
  Mn  Mn6       1.0  0.007737068273106831  0.002109886764587635  0.9992926723582092  1.0000
  Mn  Mn7       1.0  0.005471652002656278  0.00821357699334846  0.9999587682558152  1.0000
  Mn  Mn8       1.0  0.009580942590207472  0.005266012383428124  0.9995134604098548  1.0000
  Mn  Mn9       1.0  0.006597930563817041  0.006421152793055961  0.9998977496428086  1.0000
  Mn  Mn10      1.0  0.0016756139559965751  0.0018751265738997799  0.9994562222659417  1.0000
  Mn  Mn11      1.0  0.009346182303930629  0.009204558741385937  0.9996770102644429  1.0000
  Mn  Mn12      1.0  0.0043461822468306  0.004204558370955859  0.999235434710001  1.0000
  Rh  Rh1       1.0  0.0010251599591034118  0.002059463256406695  5.264619959691542e-05  1.0000
  Rh  Rh2       1.0  0.00634214436105348  0.0063710886534995076  0.9996400279733652  1.0000
  Rh  Rh3       1.0  0.0035998310767812766  0.003783060133330462  0.9998686728788855  1.0000
  Rh  Rh4       1.0  0.0088421443102979  0.008871088324228326  0.99941924041587  1.0000
  Rh  Rh5       1.0  0.005437958637336461  0.008044277070964261  0.9992621570143904  1.0000
  Rh  Rh6       1.0  0.0004379585781286496  0.0030442772150204027  0.9997037326778329  1.0000
  Rh  Rh7       1.0  0.0001336360667875679  0.007830159225006275  0.9999421260486547  1.0000
  Rh  Rh8       1.0  0.0055153326558864185  0.0029669031179478346  0.999482945121536  1.0000
  Rh  Rh9       1.0  0.0032747922188140683  0.0058811104993252575  0.9994531977851493  1.0000
  Rh  Rh10      1.0  0.008332518554397626  0.0008643073948232117  0.9998819839838099  1.0000
  Rh  Rh11      1.0  0.00835216621515846  0.005803736402252689  0.9992324096778867  1.0000
  Rh  Rh12      1.0  0.0033521662373640253  0.0008037365463088305  0.9996739853415997  1.0000
