data_image0
_chemical_formula_structural       COCa4Cu8Ge8
_chemical_formula_sum              "C1 O1 Ca4 Cu8 Ge8"
_cell_length_a       5.949729919433594
_cell_length_b       6.002978771583776
_cell_length_c       105.69837951660156
_cell_angle_alpha    90.0
_cell_angle_beta     90.0
_cell_angle_gamma    119.70700062465758

_space_group_name_H-M_alt    "P 1"
_space_group_IT_number       1

loop_
  _space_group_symop_operation_xyz
  'x, y, z'

loop_
  _atom_site_type_symbol
  _atom_site_label
  _atom_site_symmetry_multiplicity
  _atom_site_fract_x
  _atom_site_fract_y
  _atom_site_fract_z
  _atom_site_occupancy
  C   C1        1.0  0.0024999938014334823  0.007499995798877652  9.647134281134724e-05  1.0000
  O   O1        1.0  0.0024999938014334823  0.007499995798877652  0.00021000216867240294  1.0000
  Ca  Ca1       1.0  0.00499999770108522  0.009999998685363075  0.9998652203846111  1.0000
  Ca  Ca2       1.0  4.000000153252104e-10  1.7000000566511731e-09  0.9995886455175573  1.0000
  Ca  Ca3       1.0  0.005000000649639186  1.7000000566511731e-09  0.9993071970361225  1.0000
  Ca  Ca4       1.0  4.000000153252104e-10  1.7000000566511731e-09  0.9990257485546876  1.0000
  Cu  Cu1       1.0  0.004999996958134855  0.004999995055821998  0.0  1.0000
  Cu  Cu2       1.0  0.010000000085276094  0.005000000771634716  0.9997294505387503  1.0000
  Cu  Cu3       1.0  0.009999990251616837  0.004999993626868819  0.9999999875939235  1.0000
  Cu  Cu4       1.0  0.005000000038834841  0.0050000018433496015  0.9997294550500508  1.0000
  Cu  Cu5       1.0  0.005000000508430564  0.0050000018433496015  0.9994479211358618  1.0000
  Cu  Cu6       1.0  3.957275908582677e-10  0.0050000018433496015  0.9991664726544268  1.0000
  Cu  Cu7       1.0  3.957275908582677e-10  0.0050000018433496015  0.9994479211358618  1.0000
  Cu  Cu8       1.0  0.005000000508430564  0.0050000018433496015  0.9991664726544268  1.0000
  Ge  Ge1       1.0  0.008789473293128633  0.007579059063824868  0.9998779202595868  1.0000
  Ge  Ge2       1.0  0.0037835332507302403  0.00756706728874219  0.9995886455175573  1.0000
  Ge  Ge3       1.0  0.0062164679093080905  0.0024329362193378653  0.9995886455175573  1.0000
  Ge  Ge4       1.0  0.001210521965922269  0.002420936227774405  0.9998779202595868  1.0000
  Ge  Ge5       1.0  0.008783533444010252  0.00756706728874219  0.9993071970361225  1.0000
  Ge  Ge6       1.0  0.0037835332507302403  0.00756706728874219  0.9990257485546876  1.0000
  Ge  Ge7       1.0  0.0062164679093080905  0.0024329362193378653  0.9990257485546876  1.0000
  Ge  Ge8       1.0  0.0012164676117135047  0.0024329362193378653  0.9993071970361225  1.0000
