data_image0
_chemical_formula_structural       COCa20In10Na10
_chemical_formula_sum              "C1 O1 Ca20 In10 Na10"
_cell_length_a       17.114261911403705
_cell_length_b       5.704753875732422
_cell_length_c       110.7400894165039
_cell_angle_alpha    90.0
_cell_angle_beta     81.95053295816062
_cell_angle_gamma    90.0

_space_group_name_H-M_alt    "P 1"
_space_group_IT_number       1

loop_
  _space_group_symop_operation_xyz
  'x, y, z'

loop_
  _atom_site_type_symbol
  _atom_site_label
  _atom_site_symmetry_multiplicity
  _atom_site_fract_x
  _atom_site_fract_y
  _atom_site_fract_z
  _atom_site_occupancy
  C   C1        1.0  0.0038948307541490147  2.3499999432458316e-09  0.9999285076779332  1.0000
  O   O1        1.0  0.0038948307541490147  2.3499999432458316e-09  3.686973888076459e-05  1.0000
  Ca  Ca1       1.0  0.0017163983441112161  5.000000013819725e-11  0.9991292724082725  1.0000
  Ca  Ca2       1.0  0.007049731573681188  5.000000013819725e-11  0.999374531791523  1.0000
  Ca  Ca3       1.0  0.006383064727627015  5.000000013819725e-11  0.9988840130549247  1.0000
  Ca  Ca4       1.0  0.0023359183723674916  0.009999999947758794  0.9996297391995226  1.0000
  Ca  Ca5       1.0  0.0010497317178946733  5.000000013819725e-11  0.9986387533977973  1.0000
  Ca  Ca6       1.0  0.0020497317671383025  0.004999999973879397  0.9993745317765717  1.0000
  Ca  Ca7       1.0  0.007400702789598124  0.0050000032389547885  0.9996004763701757  1.0000
  Ca  Ca8       1.0  0.0067163979308164715  0.004999999973879397  0.9991292724279812  1.0000
  Ca  Ca9       1.0  0.0060497315244375585  0.004999999973879397  0.9986387534127485  1.0000
  Ca  Ca10      1.0  0.0013830650310029447  0.004999999973879397  0.9988840130375947  1.0000
  Ca  Ca11      1.0  0.0097163976388721  0.004999999973879397  0.9994971617641613  1.0000
  Ca  Ca12      1.0  0.005021347359438422  0.004999997688326623  0.9997432958682412  1.0000
  Ca  Ca13      1.0  0.004383065068815017  0.004999999973879397  0.9992519018283995  1.0000
  Ca  Ca14      1.0  0.003716398222760844  0.004999999973879397  0.9987613830918012  1.0000
  Ca  Ca15      1.0  0.009049731232493186  0.004999999973879397  0.9990066424798091  1.0000
  Ca  Ca16      1.0  0.009383064875357902  5.000000013819725e-11  0.9992519018433508  1.0000
  Ca  Ca17      1.0  0.004716398272004474  5.000000013819725e-11  0.9994971617396952  1.0000
  Ca  Ca18      1.0  0.004049731425950301  5.000000013819725e-11  0.9990066424648578  1.0000
  Ca  Ca19      1.0  0.00011693494668353585  0.009999997335698481  0.9997316347928373  1.0000
  Ca  Ca20      1.0  0.00871639846897899  5.000000013819725e-11  0.9987613830972377  1.0000
  In  In1       1.0  0.0032163981981390296  5.000000013819725e-11  0.9993132170763626  1.0000
  In  In2       1.0  0.00852604634129403  1.4500000477957934e-09  0.9995683667574587  1.0000
  In  In3       1.0  0.007883064361817198  5.000000013819725e-11  0.9990679577277721  1.0000
  In  In4       1.0  0.00403795648281403  2.3499999432458316e-09  0.9997705444407935  1.0000
  In  In5       1.0  0.002549731571922487  5.000000013819725e-11  0.9988226977967678  1.0000
  In  In6       1.0  0.0005497317482322662  0.004999999973879397  0.9991905871120498  1.0000
  In  In7       1.0  0.0058830647030052  0.004999999973879397  0.999435846501247  1.0000
  In  In8       1.0  0.005216398296626288  0.004999999973879397  0.9989453277551338  1.0000
  In  In9       1.0  0.0011627477153277577  0.004999998014834163  0.9996645636611211  1.0000
  In  In10      1.0  0.009883064460304456  0.004999999973879397  0.9987000684065434  1.0000
  Na  Na1       1.0  0.0008830650063811302  5.000000013819725e-11  0.9994358464839169  1.0000
  Na  Na2       1.0  0.006283012225476617  2.9499999254428327e-09  0.9997236099108935  1.0000
  Na  Na3       1.0  0.005549731499815744  5.000000013819725e-11  0.9991905871281904  1.0000
  Na  Na4       1.0  0.004883065093436832  5.000000013819725e-11  0.9987000681129578  1.0000
  Na  Na5       1.0  0.0002163983389450318  5.000000013819725e-11  0.9989453277434532  1.0000
  Na  Na6       1.0  0.0028830649949495735  0.004999999973879397  0.999067957703306  1.0000
  Na  Na7       1.0  0.008216398004681916  0.004999999973879397  0.9993132170913138  1.0000
  Na  Na8       1.0  0.007549731598303002  0.004999999973879397  0.9988226978069616  1.0000
  Na  Na9       1.0  0.003398164347348014  0.004999999647371858  0.9996095450772062  1.0000
  Na  Na10      1.0  0.00881934403433975  0.0049999967088040055  0.9998091445772432  1.0000
