data_image0
_chemical_formula_structural       HCu6Ga6Rh12
_chemical_formula_sum              "H1 Cu6 Ga6 Rh12"
_cell_length_a       6.0377655029296875
_cell_length_b       7.3947223229555386
_cell_length_c       102.51435852050781
_cell_angle_alpha    94.34775284334478
_cell_angle_beta     90.0
_cell_angle_gamma    114.09484259169135

_space_group_name_H-M_alt    "P 1"
_space_group_IT_number       1

loop_
  _space_group_symop_operation_xyz
  'x, y, z'

loop_
  _atom_site_type_symbol
  _atom_site_label
  _atom_site_symmetry_multiplicity
  _atom_site_fract_x
  _atom_site_fract_y
  _atom_site_fract_z
  _atom_site_occupancy
  H   H1        1.0  0.004970571103187854  0.005023206159746994  7.560773274325296e-05  1.0000
  Cu  Cu1       1.0  0.006887751332438912  0.003552372283863978  0.9997685435095645  1.0000
  Cu  Cu2       1.0  0.002744618862410755  0.005262467025265721  0.9995044364166851  1.0000
  Cu  Cu3       1.0  0.0010499881550785782  0.0018685348187268563  3.30668778697352e-05  1.0000
  Cu  Cu4       1.0  0.00982795200180495  0.0094291339503597  0.9996365897516637  1.0000
  Cu  Cu5       1.0  0.0056612856274856635  0.0010958005847229518  0.999372282502929  1.0000
  Cu  Cu6       1.0  0.0040715406488147626  0.007917617708708202  0.9999201384160913  1.0000
  Ga  Ga1       1.0  0.0018807557918362773  0.0035331535984671147  0.9997618427024827  1.0000
  Ga  Ga2       1.0  0.007744618847757049  0.005262467025265721  0.9995044364166851  1.0000
  Ga  Ga3       1.0  0.006183195059057587  0.002135691020484384  1.1678873084364163e-05  1.0000
  Ga  Ga4       1.0  0.004827952276754762  0.0094291339503597  0.9996365897516637  1.0000
  Ga  Ga5       1.0  0.0006612856903423528  0.0010958005847229518  0.999372282502929  1.0000
  Ga  Ga6       1.0  0.00893743373649629  0.00765263852631291  0.9999048514271512  1.0000
  Rh  Rh1       1.0  0.004863661231414542  0.004809386724699458  0.9999548388847301  1.0000
  Rh  Rh2       1.0  0.0008696190373043112  0.006512467379680319  0.9997026667678277  1.0000
  Rh  Rh3       1.0  0.00670295203437703  0.0081791335959451  0.9994383594005212  1.0000
  Rh  Rh4       1.0  0.004619618848716446  0.004012467224623933  0.9993062057778571  1.0000
  Rh  Rh5       1.0  0.002848287004375246  0.0005718497896589227  0.9998364627336165  1.0000
  Rh  Rh6       1.0  0.008786285661137067  0.002345800454586341  0.9995705131421354  1.0000
  Rh  Rh7       1.0  0.009619619046155862  0.004012467224623933  0.9993062057778571  1.0000
  Rh  Rh8       1.0  0.007950065057116526  0.0005708659776498357  0.9998364154909468  1.0000
  Rh  Rh9       1.0  0.00378628546369765  0.002345800454586341  0.9995705131421354  1.0000
  Rh  Rh10      1.0  0.00017204756160345497  0.004808661836090195  0.9999547482880639  1.0000
  Rh  Rh11      1.0  0.005869618926244639  0.006512467379680319  0.9997026667678277  1.0000
  Rh  Rh12      1.0  0.0017029521454367015  0.0081791335959451  0.9994383594005212  1.0000
