data_image0
_chemical_formula_structural       COCa4Zn8
_chemical_formula_sum              "C1 O1 Ca4 Zn8"
_cell_length_a       5.854468459360093
_cell_length_b       5.854468402561224
_cell_length_c       101.90863037109375
_cell_angle_alpha    91.80294082675584
_cell_angle_beta     91.8029408092583
_cell_angle_gamma    79.5962940013473

_space_group_name_H-M_alt    "P 1"
_space_group_IT_number       1

loop_
  _space_group_symop_operation_xyz
  'x, y, z'

loop_
  _atom_site_type_symbol
  _atom_site_label
  _atom_site_symmetry_multiplicity
  _atom_site_fract_x
  _atom_site_fract_y
  _atom_site_fract_z
  _atom_site_occupancy
  C   C1        1.0  0.0005625402150883317  0.003683521346048558  0.00016118352441016974  1.0000
  O   O1        1.0  0.0005625402150883317  0.003683521346048558  0.00027893571743202856  1.0000
  Ca  Ca1       1.0  0.008613369154069237  0.008399383309668584  0.9999791733442102  1.0000
  Ca  Ca2       1.0  0.0009614140908145235  0.0007627792947892943  0.9996003213590485  1.0000
  Ca  Ca3       1.0  0.004224153672545453  0.004015069301605686  1.4891893578194478e-05  1.0000
  Ca  Ca4       1.0  0.006716604138237593  0.006517969426451148  0.9996397310966917  1.0000
  Zn  Zn1       1.0  0.005777569739711254  0.0017971419846904428  0.9997512005184505  1.0000
  Zn  Zn2       1.0  0.00824355757126021  0.004275157785612258  0.9993601272869957  1.0000
  Zn  Zn3       1.0  0.00943745956972621  0.0031289164657858186  0.9998827656188196  1.0000
  Zn  Zn4       1.0  0.0019344606545560368  0.005505590283663237  0.9994885372941806  1.0000
  Zn  Zn5       1.0  0.002000975450897218  0.005562341887417878  0.9997512805237004  1.0000
  Zn  Zn6       1.0  0.004473792751196206  0.008044922653384958  0.999360127287082  1.0000
  Zn  Zn7       1.0  0.0033362343957471143  0.00923722025100818  0.9998826140608019  1.0000
  Zn  Zn8       1.0  0.00570422547462004  0.0017358257342059832  0.9994885372946697  1.0000
