data_image0
_chemical_formula_structural       HGa4Ru8Si4Ga4Ru8Si4Ga4Ru8Si4Ga4Ru8Si4
_chemical_formula_sum              "H1 Ga16 Ru32 Si16"
_cell_length_a       8.4573392868042
_cell_length_b       8.4573392868042
_cell_length_c       105.88145446777344
_cell_angle_alpha    90.0
_cell_angle_beta     90.0
_cell_angle_gamma    90.0

_space_group_name_H-M_alt    "P 1"
_space_group_IT_number       1

loop_
  _space_group_symop_operation_xyz
  'x, y, z'

loop_
  _atom_site_type_symbol
  _atom_site_label
  _atom_site_symmetry_multiplicity
  _atom_site_fract_x
  _atom_site_fract_y
  _atom_site_fract_z
  _atom_site_occupancy
  H   H1        1.0  0.0012500011408436561  0.0012500003700033479  0.00011634004820834908  1.0000
  Ga  Ga1       1.0  0.0025000014007269603  0.0025000007400066957  0.9995872755923833  1.0000
  Ga  Ga2       1.0  2.8500001136117528e-09  0.009999998555225022  0.9998701252446842  1.0000
  Ga  Ga3       1.0  0.0025000014007269603  0.0025000007400066957  0.9990224705140526  1.0000
  Ga  Ga4       1.0  1.3500000372342e-09  5.500000385069684e-10  0.9993048729124835  1.0000
  Ru  Ru1       1.0  0.0025000036031278404  2.250000167075658e-09  0.9999999572167475  1.0000
  Ru  Ru2       1.0  0.002500001841207136  0.010000000317145727  0.9997274121359893  1.0000
  Ru  Ru3       1.0  1.4500000633297684e-09  0.0025000000792864316  0.9997275303528712  1.0000
  Ru  Ru4       1.0  0.009999999436185375  0.0024999980971256394  0.0  1.0000
  Ru  Ru5       1.0  0.0025000014007269603  5.500000385069684e-10  0.9994460745339021  1.0000
  Ru  Ru6       1.0  0.0025000014007269603  5.500000385069684e-10  0.9991636718540025  1.0000
  Ru  Ru7       1.0  1.3500000372342e-09  0.0025000007400066957  0.9991636718540025  1.0000
  Ru  Ru8       1.0  1.3500000372342e-09  0.0025000007400066957  0.9994460745339021  1.0000
  Si  Si1       1.0  1.3500000372342e-09  5.500000385069684e-10  0.9995872755923833  1.0000
  Si  Si2       1.0  0.002500000519766608  0.0025000014007269603  0.9998713822841955  1.0000
  Si  Si3       1.0  1.3500000372342e-09  5.500000385069684e-10  0.9990224705140526  1.0000
  Si  Si4       1.0  0.0025000014007269603  0.0025000007400066957  0.9993048729124835  1.0000
  Ga  Ga5       1.0  0.0025000014007269603  0.007500001339059735  0.9995872755923833  1.0000
  Ga  Ga6       1.0  2.8500001136117528e-09  0.004999998396652159  0.9998701252446842  1.0000
  Ga  Ga7       1.0  0.0025000014007269603  0.007500001339059735  0.9990224705140526  1.0000
  Ga  Ga8       1.0  1.3500000372342e-09  0.00500000059905304  0.9993048729124835  1.0000
  Ru  Ru9       1.0  0.0025000036031278404  0.005000002360973744  0.9999999572167475  1.0000
  Ru  Ru10      1.0  0.002500001841207136  0.0049999997180926875  0.9997274121359893  1.0000
  Ru  Ru11      1.0  1.4500000633297684e-09  0.007500000458099384  0.9997275303528712  1.0000
  Ru  Ru12      1.0  0.009999999436185375  0.007499998696178679  0.0  1.0000
  Ru  Ru13      1.0  0.0025000014007269603  0.00500000059905304  0.9994460745339021  1.0000
  Ru  Ru14      1.0  0.0025000014007269603  0.00500000059905304  0.9991636718540025  1.0000
  Ru  Ru15      1.0  1.3500000372342e-09  0.007500001339059735  0.9991636718540025  1.0000
  Ru  Ru16      1.0  1.3500000372342e-09  0.007500001339059735  0.9994460745339021  1.0000
  Si  Si5       1.0  1.3500000372342e-09  0.00500000059905304  0.9995872755923833  1.0000
  Si  Si6       1.0  0.002500000519766608  0.007500001339059735  0.9998713822841955  1.0000
  Si  Si7       1.0  1.3500000372342e-09  0.00500000059905304  0.9990224705140526  1.0000
  Si  Si8       1.0  0.0025000014007269603  0.007500001339059735  0.9993048729124835  1.0000
  Ga  Ga9       1.0  0.007500001339059735  0.0025000007400066957  0.9995872755923833  1.0000
  Ga  Ga10      1.0  0.005000003241934096  0.009999998555225022  0.9998701252446842  1.0000
  Ga  Ga11      1.0  0.007500001339059735  0.0025000007400066957  0.9990224705140526  1.0000
  Ga  Ga12      1.0  0.0050000014800133915  5.500000385069684e-10  0.9993048729124835  1.0000
  Ru  Ru17      1.0  0.0075000039819407924  2.250000167075658e-09  0.9999999572167475  1.0000
  Ru  Ru18      1.0  0.007500002220020088  0.010000000317145727  0.9997274121359893  1.0000
  Ru  Ru19      1.0  0.005000001920493568  0.0025000000792864316  0.9997275303528712  1.0000
  Ru  Ru20      1.0  0.004999998837132335  0.0024999980971256394  0.0  1.0000
  Ru  Ru21      1.0  0.007500001339059735  5.500000385069684e-10  0.9994460745339021  1.0000
  Ru  Ru22      1.0  0.007500001339059735  5.500000385069684e-10  0.9991636718540025  1.0000
  Ru  Ru23      1.0  0.0050000014800133915  0.0025000007400066957  0.9991636718540025  1.0000
  Ru  Ru24      1.0  0.0050000014800133915  0.0025000007400066957  0.9994460745339021  1.0000
  Si  Si9       1.0  0.0050000014800133915  5.500000385069684e-10  0.9995872755923833  1.0000
  Si  Si10      1.0  0.007500000458099384  0.0025000014007269603  0.9998713822841955  1.0000
  Si  Si11      1.0  0.0050000014800133915  5.500000385069684e-10  0.9990224705140526  1.0000
  Si  Si12      1.0  0.007500001339059735  0.0025000007400066957  0.9993048729124835  1.0000
  Ga  Ga13      1.0  0.007500001339059735  0.007500001339059735  0.9995872755923833  1.0000
  Ga  Ga14      1.0  0.005000003241934096  0.004999998396652159  0.9998701252446842  1.0000
  Ga  Ga15      1.0  0.007500001339059735  0.007500001339059735  0.9990224705140526  1.0000
  Ga  Ga16      1.0  0.0050000014800133915  0.00500000059905304  0.9993048729124835  1.0000
  Ru  Ru25      1.0  0.0075000039819407924  0.005000002360973744  0.9999999572167475  1.0000
  Ru  Ru26      1.0  0.007500002220020088  0.0049999997180926875  0.9997274121359893  1.0000
  Ru  Ru27      1.0  0.005000001920493568  0.007500000458099384  0.9997275303528712  1.0000
  Ru  Ru28      1.0  0.004999998837132335  0.007499998696178679  0.0  1.0000
  Ru  Ru29      1.0  0.007500001339059735  0.00500000059905304  0.9994460745339021  1.0000
  Ru  Ru30      1.0  0.007500001339059735  0.00500000059905304  0.9991636718540025  1.0000
  Ru  Ru31      1.0  0.0050000014800133915  0.007500001339059735  0.9991636718540025  1.0000
  Ru  Ru32      1.0  0.0050000014800133915  0.007500001339059735  0.9994460745339021  1.0000
  Si  Si13      1.0  0.0050000014800133915  0.00500000059905304  0.9995872755923833  1.0000
  Si  Si14      1.0  0.007500000458099384  0.007500001339059735  0.9998713822841955  1.0000
  Si  Si15      1.0  0.0050000014800133915  0.00500000059905304  0.9990224705140526  1.0000
  Si  Si16      1.0  0.007500001339059735  0.007500001339059735  0.9993048729124835  1.0000
