data_image0
_chemical_formula_structural       COV5Rh5V5Rh5
_chemical_formula_sum              "C1 O1 V10 Rh10"
_cell_length_a       6.135930877932933
_cell_length_b       4.579458113628444
_cell_length_c       102.0320053100586
_cell_angle_alpha    76.00719388658389
_cell_angle_beta     76.71072701609538
_cell_angle_gamma    74.4561201734205

_space_group_name_H-M_alt    "P 1"
_space_group_IT_number       1

loop_
  _space_group_symop_operation_xyz
  'x, y, z'

loop_
  _atom_site_type_symbol
  _atom_site_label
  _atom_site_symmetry_multiplicity
  _atom_site_fract_x
  _atom_site_fract_y
  _atom_site_fract_z
  _atom_site_occupancy
  C   C1        1.0  0.0034140493730952927  0.007492363227236239  0.9999098274428728  1.0000
  O   O1        1.0  0.0034140493730952927  0.007492363227236239  2.743725243777797e-05  1.0000
  V   V1        1.0  0.004037678246133143  0.008112795948691636  0.9992165543542071  1.0000
  V   V2        1.0  0.008037678258793755  0.006112796141421236  0.9993212012875795  1.0000
  V   V3        1.0  3.767790166194505e-05  0.00011279599364753599  0.9991119073293737  1.0000
  V   V4        1.0  0.002037678031536723  0.004112795903950836  0.9989026134806407  1.0000
  V   V5        1.0  0.0060376777322812426  0.0021127960966804363  0.999007260418325  1.0000
  Rh  Rh1       1.0  0.004037678246133143  0.008112795948691636  0.9989549369917422  1.0000
  Rh  Rh2       1.0  0.008037678258793755  0.006112796141421236  0.9990595839251147  1.0000
  Rh  Rh3       1.0  3.767790166194505e-05  0.00011279599364753599  0.9993735243997506  1.0000
  Rh  Rh4       1.0  0.002037678031536723  0.004112795903950836  0.9991642308431055  1.0000
  Rh  Rh5       1.0  0.0060376777322812426  0.0021127960966804363  0.9992688774887017  1.0000
  V   V6        1.0  0.003939673056121248  0.008261189997631077  0.9997320872040667  1.0000
  V   V7        1.0  0.00818286382881834  0.006178818075261239  0.9998198269445701  1.0000
  V   V8        1.0  0.009962322551194435  0.00028456969187196774  0.9996334170167883  1.0000
  V   V9        1.0  0.002037678031536723  0.004112795903950836  0.9994258482055702  1.0000
  V   V10       1.0  0.0060376777322812426  0.0021127960966804363  0.9995304948511665  1.0000
  Rh  Rh6       1.0  0.004037678246133143  0.008112795948691636  0.9994781714245838  1.0000
  Rh  Rh7       1.0  0.008037678258793755  0.006112796141421236  0.9995828186500443  1.0000
  Rh  Rh8       1.0  0.00015369825062319293  0.009887204037541964  0.9998811669913142  1.0000
  Rh  Rh9       1.0  0.0020395758389822284  0.0042353099811961985  0.9996931274421383  1.0000
  Rh  Rh10      1.0  0.006043984078270848  0.0020223375121516014  0.9997859808643244  1.0000
