data_image0
_chemical_formula_structural       COCa12Al12Au12
_chemical_formula_sum              "C1 O1 Ca12 Al12 Au12"
_cell_length_a       9.12017277056363
_cell_length_b       11.804947198155588
_cell_length_c       104.85432434082031
_cell_angle_alpha    96.97773511867307
_cell_angle_beta     74.57019664472556
_cell_angle_gamma    66.87303483890207

_space_group_name_H-M_alt    "P 1"
_space_group_IT_number       1

loop_
  _space_group_symop_operation_xyz
  'x, y, z'

loop_
  _atom_site_type_symbol
  _atom_site_label
  _atom_site_symmetry_multiplicity
  _atom_site_fract_x
  _atom_site_fract_y
  _atom_site_fract_z
  _atom_site_occupancy
  C   C1        1.0  0.008870696921483744  0.002820429539221946  8.052177700152995e-07  1.0000
  O   O1        1.0  0.008870696921483744  0.002820429539221946  0.00011524937436049983  1.0000
  Ca  Ca1       1.0  0.0031924683090576163  0.009823565595711608  0.9992611367769457  1.0000
  Ca  Ca2       1.0  0.0031924683090576163  0.003156898755245943  0.9995381426956611  1.0000
  Ca  Ca3       1.0  0.0031017394450049596  0.006446757703033499  0.9998127894969686  1.0000
  Ca  Ca4       1.0  0.0018489026633286988  0.00860475434839451  0.9995753600900615  1.0000
  Ca  Ca5       1.0  0.0019225727149586786  0.0018527001675885137  0.9998578234096991  1.0000
  Ca  Ca6       1.0  0.0018489026633286988  0.005271420769199181  0.9992983542338206  1.0000
  Ca  Ca7       1.0  0.00693944297302836  0.006805859342958069  0.9998683034350927  1.0000
  Ca  Ca8       1.0  0.006848902828872468  0.00017643446012825012  0.9993141410428481  1.0000
  Ca  Ca9       1.0  0.006848902828872468  0.003509767562436087  0.9995911471767925  1.0000
  Ca  Ca10      1.0  0.008192468829338034  0.008061912906552953  0.9995539294345619  1.0000
  Ca  Ca11      1.0  0.007842158348688228  0.0015799774654127509  0.9998401299253226  1.0000
  Ca  Ca12      1.0  0.008192468829338034  0.004728579327357624  0.999276923862547  1.0000
  Al  Al1       1.0  0.0007034492174717656  0.0084230952616955  0.9992852329377905  1.0000
  Al  Al2       1.0  0.0007034492174717656  0.001756428580192335  0.9995622385744541  1.0000
  Al  Al3       1.0  0.0006620782332608952  0.005074153486486953  0.9998387977144712  1.0000
  Al  Al4       1.0  0.009231260710208878  0.0082866867412215  0.999849790005983  1.0000
  Al  Al5       1.0  0.009337921979581092  0.0015769046154742665  0.9992900451624174  1.0000
  Al  Al6       1.0  0.009337921979581092  0.004910237876744601  0.999567051298536  1.0000
  Al  Al7       1.0  0.00570344920564721  0.007788395933562337  0.9993907220435534  1.0000
  Al  Al8       1.0  0.005710987595909438  0.0010861285702757912  0.9996648814694447  1.0000
  Al  Al9       1.0  0.00570344920564721  0.004455062354367007  0.9991137161873125  1.0000
  Al  Al10      1.0  0.004339194017902792  0.008836316868877226  0.9997391903849308  1.0000
  Al  Al11      1.0  0.004337921695791775  0.0022116043600703865  0.9991845557849655  1.0000
  Al  Al12      1.0  0.004337921695791775  0.005544937939265716  0.9994615619254325  1.0000
  Au  Au1       1.0  0.008896280528541335  0.007180107816340409  0.9992264917130341  1.0000
  Au  Au2       1.0  0.008896280528541335  0.0005134409758747449  0.9995034976317495  1.0000
  Au  Au3       1.0  0.00911510290427718  0.003766802214541284  0.9997728084285608  1.0000
  Au  Au4       1.0  0.0011606507777189514  0.009411414710338637  0.9998727281566369  1.0000
  Au  Au5       1.0  0.0011450909641253977  0.002819892280216395  0.9993487860991074  1.0000
  Au  Au6       1.0  0.0011272169668854947  0.006177800274668554  0.9996241914305442  1.0000
  Au  Au7       1.0  0.003896280008260918  0.00690282929771289  0.9992725766388989  1.0000
  Au  Au8       1.0  0.003896280008260918  0.00023616245724722507  0.9995495822733884  1.0000
  Au  Au9       1.0  0.0038285572347810976  0.003528051963793815  0.9998092806549639  1.0000
  Au  Au10      1.0  0.006246703314084093  0.009604999932693016  0.9998400147290767  1.0000
  Au  Au11      1.0  0.006145091129669166  0.003097170917089466  0.9993027014672949  1.0000
  Au  Au12      1.0  0.006145091129669166  0.006430503860434805  0.9995797075990653  1.0000
