data_image0
_chemical_formula_structural       HAl12Pd6Ru6
_chemical_formula_sum              "H1 Al12 Pd6 Ru6"
_cell_length_a       6.09077787399292
_cell_length_b       7.459648921137195
_cell_length_c       102.79984283447266
_cell_angle_alpha    94.34775299434632
_cell_angle_beta     90.0
_cell_angle_gamma    114.09484269919831

_space_group_name_H-M_alt    "P 1"
_space_group_IT_number       1

loop_
  _space_group_symop_operation_xyz
  'x, y, z'

loop_
  _atom_site_type_symbol
  _atom_site_label
  _atom_site_symmetry_multiplicity
  _atom_site_fract_x
  _atom_site_fract_y
  _atom_site_fract_z
  _atom_site_occupancy
  H   H1        1.0  0.00843730768834944  0.0022336612217503547  0.00013279357628467187  1.0000
  Al  Al1       1.0  0.00432374279298821  0.004009934309041987  0.9992958899449587  1.0000
  Al  Al2       1.0  0.002655297833181795  0.000573398872871828  0.9998333411405004  1.0000
  Al  Al3       1.0  0.00849040934590215  0.002343267635055948  0.9995617775503584  1.0000
  Al  Al4       1.0  0.004868124448687685  0.004864773151743098  0.9999618835803762  1.0000
  Al  Al5       1.0  0.0005737427713325459  0.006509934045544578  0.9996947215227138  1.0000
  Al  Al6       1.0  0.006407075845325525  0.008176600719530617  0.9994288339173141  1.0000
  Al  Al7       1.0  0.009634590358416998  0.004864222002996282  0.9999618614146236  1.0000
  Al  Al8       1.0  0.005573742661239506  0.006509934045544578  0.9996947215227138  1.0000
  Al  Al9       1.0  0.0014070761083255653  0.008176600719530617  0.9994288339173141  1.0000
  Al  Al10      1.0  0.00932374268289517  0.004009934309041987  0.9992958899449587  1.0000
  Al  Al11      1.0  0.007556051470391305  0.0005737285877284584  0.999833418329941  1.0000
  Al  Al12      1.0  0.0034904094559951907  0.002343267635055948  0.9995617775503584  1.0000
  Pd  Pd1       1.0  0.006587653586428173  0.003538945316663808  0.999753666417345  1.0000
  Pd  Pd2       1.0  0.002448742743933628  0.0052599341772932824  0.9994953058787893  1.0000
  Pd  Pd3       1.0  0.0008328105303829722  0.00202246544104126  1.3602789133823434e-05  1.0000
  Pd  Pd4       1.0  0.00953207599888112  0.009426601136734847  0.9996282495642583  1.0000
  Pd  Pd5       1.0  0.0053654092796064645  0.0010932676981855356  0.9993623619060564  1.0000
  Pd  Pd6       1.0  0.0036283829512591685  0.007620808379835941  0.9998956380176355  1.0000
  Ru  Ru1       1.0  0.0015892936483831834  0.0035427547755567715  0.9997593190934867  1.0000
  Ru  Ru2       1.0  0.007448742519160338  0.0052599341772932824  0.9994953058787893  1.0000
  Ru  Ru3       1.0  0.005829846268160897  0.0020209392146435137  1.1117433722749854e-05  1.0000
  Ru  Ru4       1.0  0.004532076166314286  0.009426601136734847  0.9996282495642583  1.0000
  Ru  Ru5       1.0  0.00036540956171987973  0.0010932676981855356  0.9993623619060564  1.0000
  Ru  Ru6       1.0  0.008650161277678583  0.007664033482896805  0.9998860253678484  1.0000
