data_image0
_chemical_formula_structural       HMo6V12W6
_chemical_formula_sum              "H1 Mo6 V12 W6"
_cell_length_a       6.156365871429443
_cell_length_b       7.539977430499181
_cell_length_c       103.15304565429688
_cell_angle_alpha    94.34775344087119
_cell_angle_beta     90.0
_cell_angle_gamma    114.09484288156077

_space_group_name_H-M_alt    "P 1"
_space_group_IT_number       1

loop_
  _space_group_symop_operation_xyz
  'x, y, z'

loop_
  _atom_site_type_symbol
  _atom_site_label
  _atom_site_symmetry_multiplicity
  _atom_site_fract_x
  _atom_site_fract_y
  _atom_site_fract_z
  _atom_site_occupancy
  H   H1        1.0  0.0036519751716397983  0.0018326029004147478  0.00012987681255381686  1.0000
  Mo  Mo1       1.0  0.00704003947524465  0.0036082216403308166  0.9997661183869254  1.0000
  Mo  Mo2       1.0  0.0028446967936958134  0.005219518933963421  0.9994984426253115  1.0000
  Mo  Mo3       1.0  0.0009475719764548777  0.0014255964002872876  9.625081129155435e-06  1.0000
  Mo  Mo4       1.0  0.009928030589848327  0.009386186216148597  0.9996323578782051  1.0000
  Mo  Mo5       1.0  0.005761363579215435  0.0010528521948828114  0.9993645273754274  1.0000
  Mo  Mo6       1.0  0.004072871509341952  0.007673088859345546  0.9999091628745742  1.0000
  V   V1        1.0  0.005102723942263027  0.004701619849778494  0.9999603860076761  1.0000
  V   V2        1.0  0.0009696968261939814  0.00646951917292943  0.9996993155644209  1.0000
  V   V3        1.0  0.00680303028883175  0.008136185977182587  0.9994314849390957  1.0000
  V   V4        1.0  0.0018030302283205597  0.008136185977182587  0.9994314849390957  1.0000
  V   V5        1.0  7.197009896620668e-05  0.004701355357854293  0.9999603643180861  1.0000
  V   V6        1.0  0.005969696886705173  0.00646951917292943  0.9996993155644209  1.0000
  V   V7        1.0  0.009719696844026494  0.0039695189665496945  0.9992975696877068  1.0000
  V   V8        1.0  0.008036890392420731  0.0006138383701951583  0.9998318630443453  1.0000
  V   V9        1.0  0.003886363381388725  0.0023028521622965375  0.9995654003130321  1.0000
  V   V10       1.0  0.008886363441899916  0.0023028521622965375  0.9995654003130321  1.0000
  V   V11       1.0  0.0047196967835153045  0.0039695189665496945  0.9992975696877068  1.0000
  V   V12       1.0  0.0030488695837328347  0.0006138144735942039  0.9998318848693636  1.0000
  W   W1        1.0  0.00202377978691494  0.0035759805092544675  0.9997698296617462  1.0000
  W   W2        1.0  0.007844696948755739  0.005219518933963421  0.9994984426253115  1.0000
  W   W3        1.0  0.006146677652588637  0.001820207896431054  1.0086358248295298e-05  1.0000
  W   W4        1.0  0.004928030378059159  0.009386186216148597  0.9996323578782051  1.0000
  W   W5        1.0  0.0007613634808847499  0.0010528521948828114  0.9993645273754274  1.0000
  W   W6        1.0  0.009065180231068337  0.0076573062406242775  0.9999056910835655  1.0000
