data_image0
_chemical_formula_structural       COPt8Zn8
_chemical_formula_sum              "C1 O1 Pt8 Zn8"
_cell_length_a       4.598393098944848
_cell_length_b       5.434497679661305
_cell_length_c       104.10832977294922
_cell_angle_alpha    88.86467805942405
_cell_angle_beta     88.65821287343941
_cell_angle_gamma    79.93325963535139

_space_group_name_H-M_alt    "P 1"
_space_group_IT_number       1

loop_
  _space_group_symop_operation_xyz
  'x, y, z'

loop_
  _atom_site_type_symbol
  _atom_site_label
  _atom_site_symmetry_multiplicity
  _atom_site_fract_x
  _atom_site_fract_y
  _atom_site_fract_z
  _atom_site_occupancy
  C   C1        1.0  0.001446046843755158  0.0032234934245777974  9.012422670653827e-05  1.0000
  O   O1        1.0  0.001446046843755158  0.0032234934245777974  0.00020538843986048208  1.0000
  Pt  Pt1       1.0  0.004981021350577415  0.004642857095111104  0.9996329484058444  1.0000
  Pt  Pt2       1.0  0.008833865356801564  0.004032746516445786  0.9999651526608908  1.0000
  Pt  Pt3       1.0  0.004242050350348851  0.007623652577326112  0.9998700311336612  1.0000
  Pt  Pt4       1.0  0.009649610429436883  0.0010545169735283926  0.9997473535382586  1.0000
  Pt  Pt5       1.0  0.0064095925185903325  0.008928571229629598  0.9991649150025589  1.0000
  Pt  Pt6       1.0  0.0003381641380027815  0.008214286004740787  0.9995159400385366  1.0000
  Pt  Pt7       1.0  0.005695307007424862  0.00178571428074074  0.9993989316717994  1.0000
  Pt  Pt8       1.0  0.0010524498307342312  0.005357143016296322  0.9992819233046345  1.0000
  Zn  Zn1       1.0  0.004213340094786969  0.002517648530663067  0.9998822213752768  1.0000
  Zn  Zn2       1.0  0.00966183597192859  0.006110275314039707  0.9997457988407072  1.0000
  Zn  Zn3       1.0  0.004981021241852425  0.009642857150814817  0.9996329485812351  1.0000
  Zn  Zn4       1.0  0.008981187777454333  0.008918279272434649  0.9999814867780945  1.0000
  Zn  Zn5       1.0  0.005695306529408415  0.0067857141623703515  0.9993989318477521  1.0000
  Zn  Zn6       1.0  0.0010524497592989946  0.00035714285179629546  0.9992819234158052  1.0000
  Zn  Zn7       1.0  0.006409592555547319  0.003928571522074089  0.999164915113145  1.0000
  Zn  Zn8       1.0  0.00033816411590804836  0.003214285600888871  0.9995159404361665  1.0000
