data_image0
_chemical_formula_structural       Al10V30H
_chemical_formula_sum              "Al10 V30 H1"
_cell_length_a       6.817296981811523
_cell_length_b       10.779093289031593
_cell_length_c       103.39779663085938
_cell_angle_alpha    75.03678366968659
_cell_angle_beta     90.0
_cell_angle_gamma    71.56505173497682

_space_group_name_H-M_alt    "P 1"
_space_group_IT_number       1

loop_
  _space_group_symop_operation_xyz
  'x, y, z'

loop_
  _atom_site_type_symbol
  _atom_site_label
  _atom_site_symmetry_multiplicity
  _atom_site_fract_x
  _atom_site_fract_y
  _atom_site_fract_z
  _atom_site_occupancy
  Al  Al1       1.0  0.008024855105435694  0.004000204165719688  0.9992207065329061  1.0000
  Al  Al2       1.0  0.006024855241727896  0.008000203893135284  0.9993822080081213  1.0000
  Al  Al3       1.0  6.292049776076911e-05  1.998429971559452e-05  0.9998726369534908  1.0000
  Al  Al4       1.0  0.0040248545564163865  0.002000204302011891  0.999543709488052  1.0000
  Al  Al5       1.0  0.002118940200500308  0.005967946315167663  0.9997079066181207  1.0000
  Al  Al6       1.0  0.008036458662600082  0.004011536862376617  0.9996116693593343  1.0000
  Al  Al7       1.0  0.005858114703144999  0.00791527719289914  0.9997869451553619  1.0000
  Al  Al8       1.0  2.4854698938745208e-05  2.0439999224608578e-07  0.9994629590397054  1.0000
  Al  Al9       1.0  0.0040248545564163865  0.002000204302011891  0.9991399557952984  1.0000
  Al  Al10      1.0  0.002024854692708589  0.006000204029427486  0.9993014575587433  1.0000
  V   V1        1.0  0.006024854810427237  0.005500203968853173  0.9993822078677329  1.0000
  V   V2        1.0  0.004024854757424714  0.00950020407485822  0.9995437093327576  1.0000
  V   V3        1.0  0.008024854626811352  0.0015002043360849418  0.9992207066781997  1.0000
  V   V4        1.0  0.001931077664894262  0.00342292566901905  0.9997073866122687  1.0000
  V   V5        1.0  0.009663151739380454  0.007730746636550734  0.9998306041120371  1.0000
  V   V6        1.0  0.004024854987717046  0.004500204226294001  0.9995437096284404  1.0000
  V   V7        1.0  0.0018541844090644972  0.008553912167731725  0.9997028500264892  1.0000
  V   V8        1.0  0.006024854922410366  0.0005002043569073615  0.9993822081570466  1.0000
  V   V9        1.0  0.009975145236604957  0.0025587526534577515  0.9998436802442128  1.0000
  V   V10       1.0  0.008024854254547976  0.00650020446859125  0.9992207066631039  1.0000
  V   V11       1.0  0.0005248549305727106  0.004000204165719688  0.999422583235168  1.0000
  V   V12       1.0  0.008581655422114441  0.007963538261885528  0.9995879562395339  1.0000
  V   V13       1.0  0.0025248548134364315  2.0439999224608578e-07  0.9992610820492137  1.0000
  V   V14       1.0  0.00646870502801343  0.0021596862444459414  0.9997450219686109  1.0000
  V   V15       1.0  0.004524854933145192  0.006000204029427486  0.9990995805682517  1.0000
  V   V16       1.0  0.009524854867571573  0.006000204029427486  0.9995033342610053  1.0000
  V   V17       1.0  0.007524460347151711  0.009999795258824344  0.9996759458834295  1.0000
  V   V18       1.0  0.0015248548624266093  0.002000204302011891  0.9993418327857901  1.0000
  V   V19       1.0  0.005705755078960464  0.003830786900296136  0.9998080027397991  1.0000
  V   V20       1.0  0.0035248550012912934  0.008000203893135284  0.9991803313058594  1.0000
  V   V21       1.0  0.0006245604983762217  0.0015027813944848785  0.999633333621109  1.0000
  V   V22       1.0  0.00861174676873542  0.005425638883329514  0.9997660023441212  1.0000
  V   V23       1.0  0.0025248551845835614  0.007500203832560971  0.9994629588935702  1.0000
  V   V24       1.0  0.006524854451414491  0.00950020407485822  0.9991399559282338  1.0000
  V   V25       1.0  0.004524855048291358  0.003500204105145376  0.999301457418355  1.0000
  V   V26       1.0  0.007524854613560722  0.0025002043625862035  0.999462958602603  1.0000
  V   V27       1.0  0.005658384885099766  0.006437397992858047  0.9996209561474227  1.0000
  V   V28       1.0  0.009524855298872235  0.008500203953709595  0.9993014571226723  1.0000
  V   V29       1.0  0.003536733883881942  0.0004949005553028933  0.9997777214491296  1.0000
  V   V30       1.0  0.001524854747280443  0.004500204226294001  0.9991399559356868  1.0000
  H   H1        1.0  0.004456894483620812  0.007635529117829637  0.9998486542355198  1.0000
