data_image0
_chemical_formula_structural       COGa8Os4
_chemical_formula_sum              "C1 O1 Ga8 Os4"
_cell_length_a       4.806750774383545
_cell_length_b       5.0281810345332705
_cell_length_c       36.46394729614258
_cell_angle_alpha    90.0
_cell_angle_beta     90.0
_cell_angle_gamma    118.55362580022408

_space_group_name_H-M_alt    "P 1"
_space_group_IT_number       1

loop_
  _space_group_symop_operation_xyz
  'x, y, z'

loop_
  _atom_site_type_symbol
  _atom_site_label
  _atom_site_symmetry_multiplicity
  _atom_site_fract_x
  _atom_site_fract_y
  _atom_site_fract_z
  _atom_site_occupancy
  C   C1        1.0  0.007500052212561529  0.004999901650941614  0.00031752955782652747  1.0000
  O   O1        1.0  0.007500052212561529  0.004999901650941614  0.000646621998644182  1.0000
  Ga  Ga1       1.0  0.009999990791401672  0.00500002268944829  0.9992568051458838  1.0000
  Ga  Ga2       1.0  0.005000001859836486  0.005000000759126523  0.9989118940926717  1.0000
  Ga  Ga3       1.0  0.004999990340652681  0.009999999831305218  0.9995031867052158  1.0000
  Ga  Ga4       1.0  0.009999997320765086  2.465000099345659e-08  0.9998719595114138  1.0000
  Ga  Ga5       1.0  0.005000001859836486  0.005000000759126523  0.9981382438429803  1.0000
  Ga  Ga6       1.0  0.009999991366511782  0.0050000129894982774  0.0  1.0000
  Ga  Ga7       1.0  1.9999999327908884e-09  6.500000197720345e-10  0.998337078843799  1.0000
  Ga  Ga8       1.0  0.00500000173552214  6.500000197720345e-10  0.998713059091853  1.0000
  Os  Os1       1.0  0.005000113058611277  0.00499979031238495  0.9996850523221783  1.0000
  Os  Os2       1.0  1.9999999327908884e-09  6.500000197720345e-10  0.9990998842166986  1.0000
  Os  Os3       1.0  2.1930917150754627e-09  0.005000000759126523  0.998525068967826  1.0000
  Os  Os4       1.0  0.00500000173552214  6.500000197720345e-10  0.9979502537189534  1.0000
