data_image0
_chemical_formula_structural       HV12Au4V12Au4
_chemical_formula_sum              "H1 V24 Au8"
_cell_length_a       4.8841705322265625
_cell_length_b       6.907259941101074
_cell_length_c       104.53630065917969
_cell_angle_alpha    90.0
_cell_angle_beta     90.0
_cell_angle_gamma    90.0

_space_group_name_H-M_alt    "P 1"
_space_group_IT_number       1

loop_
  _space_group_symop_operation_xyz
  'x, y, z'

loop_
  _atom_site_type_symbol
  _atom_site_label
  _atom_site_symmetry_multiplicity
  _atom_site_fract_x
  _atom_site_fract_y
  _atom_site_fract_z
  _atom_site_occupancy
  H   H1        1.0  0.004999982670835299  0.005425366967681087  8.623764230083358e-05  1.0000
  V   V1        1.0  2.159999956714137e-08  0.006874999935280438  0.9993783797839215  1.0000
  V   V2        1.0  2.159999956714137e-08  0.0018749999946067032  0.9990480036191642  1.0000
  V   V3        1.0  2.159999956714137e-08  0.004375000032359781  0.9992131917015429  1.0000
  V   V4        1.0  2.159999956714137e-08  0.009375000647195616  0.9988828155367857  1.0000
  V   V5        1.0  0.005000021569928598  0.006874999935280438  0.9988828155367857  1.0000
  V   V6        1.0  0.005000021569928598  0.0018749999946067032  0.9992131917015429  1.0000
  V   V7        1.0  0.005000021569928598  0.009375000647195616  0.9993783797839215  1.0000
  V   V8        1.0  0.005000021569928598  0.004375000032359781  0.9990480036191642  1.0000
  V   V9        1.0  0.007500021295346763  0.003125000215731872  0.9988002216381416  1.0000
  V   V10       1.0  0.007500021295346763  0.008125000021573186  0.9991305975178083  1.0000
  V   V11       1.0  0.002500021653828603  0.003125000215731872  0.9988002216381416  1.0000
  V   V12       1.0  0.002500021653828603  0.008125000021573186  0.9991305975178083  1.0000
  Au  Au1       1.0  0.005000021569928598  0.00562500038831737  0.999295785600187  1.0000
  Au  Au2       1.0  0.005000021569928598  0.0006250000431463744  0.9989654094354297  1.0000
  Au  Au3       1.0  2.159999956714137e-08  0.00562500038831737  0.9989654094354297  1.0000
  Au  Au4       1.0  2.159999956714137e-08  0.0006250000431463744  0.999295785600187  1.0000
  V   V13       1.0  0.009999940171669051  0.0069105719636998846  0.0  1.0000
  V   V14       1.0  2.159999956714137e-08  0.0018749999946067032  0.9997087559486788  1.0000
  V   V15       1.0  0.009999978308035031  0.00434042090988248  0.9998663677469106  1.0000
  V   V16       1.0  2.159999956714137e-08  0.009375000647195616  0.9995435675812095  1.0000
  V   V17       1.0  0.005000021569928598  0.006874999935280438  0.9995435675812095  1.0000
  V   V18       1.0  0.005000063138567516  0.0019094134080396123  0.9998663723083611  1.0000
  V   V19       1.0  0.005000099368115196  0.009339070503868193  1.7105439277898306e-09  1.0000
  V   V20       1.0  0.005000021569928598  0.004375000032359781  0.9997087559486788  1.0000
  V   V21       1.0  0.007500021295346763  0.003125000215731872  0.9994609739676562  1.0000
  V   V22       1.0  0.007499994599890578  0.008124913189494596  0.9998004245679504  1.0000
  V   V23       1.0  0.002500021653828603  0.003125000215731872  0.9994609739676562  1.0000
  V   V24       1.0  0.00250004644246649  0.008124913189494596  0.999800423997769  1.0000
  Au  Au5       1.0  0.004999982670835299  0.005425366967681087  0.9999683788849508  1.0000
  Au  Au6       1.0  0.005000021569928598  0.0006250000431463744  0.9996261617649441  1.0000
  Au  Au7       1.0  2.159999956714137e-08  0.00562500038831737  0.9996261617649441  1.0000
  Au  Au8       1.0  5.450000117757054e-08  0.0008244662041654338  0.9999683709024125  1.0000
