data_image0
_chemical_formula_structural       HTi6Pt2Ti6Pt2
_chemical_formula_sum              "H1 Ti12 Pt4"
_cell_length_a       5.060669422149658
_cell_length_b       5.060669422149658
_cell_length_c       100.364013671875
_cell_angle_alpha    90.0
_cell_angle_beta     90.0
_cell_angle_gamma    90.0

_space_group_name_H-M_alt    "P 1"
_space_group_IT_number       1

loop_
  _space_group_symop_operation_xyz
  'x, y, z'

loop_
  _atom_site_type_symbol
  _atom_site_label
  _atom_site_symmetry_multiplicity
  _atom_site_fract_x
  _atom_site_fract_y
  _atom_site_fract_z
  _atom_site_occupancy
  H   H1        1.0  0.009999997762176985  0.0050000176523012875  0.00012276367280146002  1.0000
  Ti  Ti1       1.0  0.002500002569079712  0.005000047097340967  0.9995075372083447  1.0000
  Ti  Ti2       1.0  0.00750000273838869  0.005000047097340967  0.9995075372083447  1.0000
  Ti  Ti3       1.0  0.005000002561718452  4.694999973787215e-08  0.9991293636528127  1.0000
  Ti  Ti4       1.0  0.005000002561718452  4.694999973787215e-08  0.99938147925752  1.0000
  Ti  Ti5       1.0  2.5499999229621145e-09  0.002500046920670729  0.9992554213066952  1.0000
  Ti  Ti6       1.0  2.5499999229621145e-09  0.0075000469059482095  0.9992554213066952  1.0000
  Pt  Pt1       1.0  0.005000002561718452  0.005000047097340967  0.9992554213066952  1.0000
  Pt  Pt2       1.0  2.5499999229621145e-09  4.694999973787215e-08  0.9995075372083447  1.0000
  Ti  Ti7       1.0  0.0023823992646325124  0.005000016916175296  1.0096038650809674e-08  1.0000
  Ti  Ti8       1.0  0.0076175959211035  0.005000018756490276  0.0  1.0000
  Ti  Ti9       1.0  0.005000002561718452  4.694999973787215e-08  0.9996335951591695  1.0000
  Ti  Ti10      1.0  0.005000084271703562  9.884999635292013e-08  0.9998998942134695  1.0000
  Ti  Ti11      1.0  8.734999901289702e-08  0.002494686819260128  0.9997550784167162  1.0000
  Ti  Ti12      1.0  9.154999789491776e-08  0.0075053359712005845  0.9997550807922546  1.0000
  Pt  Pt3       1.0  0.004999998881088492  0.005000002929781448  0.9997604536664707  1.0000
  Pt  Pt4       1.0  0.009999917524443859  0.009999952858491474  0.999997589422301  1.0000
