data_image0
_chemical_formula_structural       COAs8Ni8As8Ni8
_chemical_formula_sum              "C1 O1 As16 Ni16"
_cell_length_a       5.088677883148193
_cell_length_b       7.359123229980469
_cell_length_c       108.20934295654297
_cell_angle_alpha    90.0
_cell_angle_beta     90.0
_cell_angle_gamma    90.0

_space_group_name_H-M_alt    "P 1"
_space_group_IT_number       1

loop_
  _space_group_symop_operation_xyz
  'x, y, z'

loop_
  _atom_site_type_symbol
  _atom_site_label
  _atom_site_symmetry_multiplicity
  _atom_site_fract_x
  _atom_site_fract_y
  _atom_site_fract_z
  _atom_site_occupancy
  C   C1        1.0  0.00125628067771995  1.7499999664012281e-09  0.0001600648636433982  1.0000
  O   O1        1.0  0.00125628067771995  1.7499999664012281e-09  0.000270960691916466  1.0000
  As  As1       1.0  0.006249381543631488  0.01  0.9999344923294895  1.0000
  As  As2       1.0  0.0012505572293344445  1.4999999410283544e-10  0.9997231322376485  1.0000
  As  As3       1.0  0.006250557254957045  0.0025000002531069387  0.9996250635213878  1.0000
  As  As4       1.0  0.00125628067771995  0.0025000017717485682  0.0  1.0000
  As  As5       1.0  0.006250557254957045  1.4999999410283544e-10  0.9993308088998157  1.0000
  As  As6       1.0  0.0012505572293344445  1.4999999410283544e-10  0.9991346224436772  1.0000
  As  As7       1.0  0.006250557254957045  0.0025000002531069387  0.9990365540028301  1.0000
  As  As8       1.0  0.0012505572293344445  0.0025000002531069387  0.9994288770652493  1.0000
  Ni  Ni1       1.0  0.008706129920488064  0.00250000151864163  0.9998183994469871  1.0000
  Ni  Ni2       1.0  0.0037901920650220667  0.0024999992406791855  0.9998183157212592  1.0000
  Ni  Ni3       1.0  0.0037494426132695814  1.4999999410283544e-10  0.9995270201431763  1.0000
  Ni  Ni4       1.0  0.00874944236436432  1.4999999410283544e-10  0.999526920994288  1.0000
  Ni  Ni5       1.0  0.00874944236436432  0.0025000002531069387  0.9992326663727159  1.0000
  Ni  Ni6       1.0  0.0037494426132695814  0.0025000002531069387  0.9992327655216042  1.0000
  Ni  Ni7       1.0  0.0037494426132695814  1.4999999410283544e-10  0.9989385106246186  1.0000
  Ni  Ni8       1.0  0.00874944236436432  1.4999999410283544e-10  0.9989384112003167  1.0000
  As  As9       1.0  0.006249381543631488  0.005  0.9999344923294895  1.0000
  As  As10      1.0  0.0012505572293344445  0.005  0.9997231322376485  1.0000
  As  As11      1.0  0.006250557254957045  0.007500000000000001  0.9996250635213878  1.0000
  As  As12      1.0  0.00125628067771995  0.007500001518641631  0.0  1.0000
  As  As13      1.0  0.006250557254957045  0.005  0.9993308088998157  1.0000
  As  As14      1.0  0.0012505572293344445  0.005  0.9991346224436772  1.0000
  As  As15      1.0  0.006250557254957045  0.007500000000000001  0.9990365540028301  1.0000
  As  As16      1.0  0.0012505572293344445  0.007500000000000001  0.9994288770652493  1.0000
  Ni  Ni9       1.0  0.008706129920488064  0.007500001518641631  0.9998183994469871  1.0000
  Ni  Ni10      1.0  0.0037901920650220667  0.007499999493786124  0.9998183157212592  1.0000
  Ni  Ni11      1.0  0.0037494426132695814  0.005  0.9995270201431763  1.0000
  Ni  Ni12      1.0  0.00874944236436432  0.005  0.999526920994288  1.0000
  Ni  Ni13      1.0  0.00874944236436432  0.007500000000000001  0.9992326663727159  1.0000
  Ni  Ni14      1.0  0.0037494426132695814  0.007500000000000001  0.9992327655216042  1.0000
  Ni  Ni15      1.0  0.0037494426132695814  0.005  0.9989385106246186  1.0000
  Ni  Ni16      1.0  0.00874944236436432  0.005  0.9989384112003167  1.0000
