data_image0
_chemical_formula_structural       HPt12V12
_chemical_formula_sum              "H1 Pt12 V12"
_cell_length_a       6.535878322666195
_cell_length_b       7.077017534435013
_cell_length_c       97.70478820800781
_cell_angle_alpha    84.39872887829979
_cell_angle_beta     87.63700320704017
_cell_angle_gamma    85.37100035815197

_space_group_name_H-M_alt    "P 1"
_space_group_IT_number       1

loop_
  _space_group_symop_operation_xyz
  'x, y, z'

loop_
  _atom_site_type_symbol
  _atom_site_label
  _atom_site_symmetry_multiplicity
  _atom_site_fract_x
  _atom_site_fract_y
  _atom_site_fract_z
  _atom_site_occupancy
  H   H1        1.0  0.005176557624180556  0.005629979676418433  9.382641471700622e-06  1.0000
  Pt  Pt1       1.0  0.0003986661994655672  0.00019245575295860726  0.9999975398288092  1.0000
  Pt  Pt2       1.0  0.005266002894611641  0.005863476145595069  0.9998823325355035  1.0000
  Pt  Pt3       1.0  0.009613852183284623  0.005509435730323117  0.9998549114766853  1.0000
  Pt  Pt4       1.0  0.004754656336899077  0.009632695655214818  0.999980199989211  1.0000
  Pt  Pt5       1.0  0.0003806071917245378  0.0020269497320689212  0.9997441366536143  1.0000
  Pt  Pt6       1.0  0.005342371328985526  0.007989362649799837  0.9996157356425305  1.0000
  Pt  Pt7       1.0  0.009657627982183531  0.007429118283855858  0.9995980845264136  1.0000
  Pt  Pt8       1.0  0.004648821264092504  0.0014826746750892172  0.9997252798477665  1.0000
  Pt  Pt9       1.0  0.00034237158600067426  0.003898453539599918  0.9994868464435304  1.0000
  Pt  Pt10      1.0  0.005342371748622526  0.009807544535499552  0.9993579574392559  1.0000
  Pt  Pt11      1.0  0.009657627875481046  0.009247299639057809  0.9993403060233171  1.0000
  Pt  Pt12      1.0  0.004657628047336505  0.003338208908407057  0.9994691953298179  1.0000
  V   V1        1.0  0.002823049683820648  0.003221688257359829  0.999920101954357  1.0000
  V   V2        1.0  0.007868949014724258  0.009124205059709433  0.9998080686923116  1.0000
  V   V3        1.0  0.007263534330315195  0.002469583804556815  0.9999022466443532  1.0000
  V   V4        1.0  0.002161067595795342  0.008478310768646276  0.9997928869891329  1.0000
  V   V5        1.0  0.0028968330355278364  0.005079376576851556  0.9996815839451122  1.0000
  V   V6        1.0  0.007896833095165678  0.0009884672677149757  0.9995526949310773  1.0000
  V   V7        1.0  0.00710316706207829  0.004430013095655622  0.9996611249223399  1.0000
  V   V8        1.0  0.002103166814425325  0.00033910405176792416  0.999532236029287  1.0000
  V   V9        1.0  0.002896832884704289  0.006897558462551272  0.9994238057434109  1.0000
  V   V10       1.0  0.007896832949857263  0.0028066490871024707  0.9992949167298297  1.0000
  V   V11       1.0  0.007103166889194211  0.00624819524660422  0.9994033467188242  1.0000
  V   V12       1.0  0.0021031668117320475  0.002157285871155419  0.999274457827646  1.0000
