data_image0
_chemical_formula_structural       In3Pd2In3Pd2H
_chemical_formula_sum              "In6 Pd4 H1"
_cell_length_a       4.664608009233955
_cell_length_b       5.631325721740723
_cell_length_c       37.34774398803711
_cell_angle_alpha    90.0
_cell_angle_beta     119.9999999466356
_cell_angle_gamma    90.0

_space_group_name_H-M_alt    "P 1"
_space_group_IT_number       1

loop_
  _space_group_symop_operation_xyz
  'x, y, z'

loop_
  _atom_site_type_symbol
  _atom_site_label
  _atom_site_symmetry_multiplicity
  _atom_site_fract_x
  _atom_site_fract_y
  _atom_site_fract_z
  _atom_site_occupancy
  In  In1       1.0  0.0015868212684287872  0.0007282193823220245  0.9995109249301242  1.0000
  In  In2       1.0  0.0049574175499893765  0.007387975099125756  0.00035373919781566836  1.0000
  In  In3       1.0  0.008413178501026936  0.004240166805344501  0.9999674249960895  1.0000
  Pd  Pd1       1.0  0.004726145214859888  0.0023501042923044237  0.00029513984557588685  1.0000
  Pd  Pd2       1.0  0.00831733386795014  0.009220146965904263  0.9999445231267043  1.0000
  In  In4       1.0  0.0015868212684287872  0.0007282193823220245  0.9982619586344486  1.0000
  In  In5       1.0  0.004920154678610213  0.007155651754703276  0.9990946030651157  1.0000
  In  In6       1.0  0.008253487858247362  0.004300786758559414  0.9986782807867258  1.0000
  Pd  Pd3       1.0  0.004920154678610213  0.0021846579815836004  0.9990946030651157  1.0000
  Pd  Pd4       1.0  0.008253487858247362  0.009271780697061563  0.9986782807867258  1.0000
  H   H1        1.0  0.004841781151880356  0.004869039613023853  0.000726070407720175  1.0000
