data_image0
_chemical_formula_structural       COMnAlMnAlMnAlMnAlMnAlMnAlMnAlMnAlMnAlMnAlMnAlMnAl
_chemical_formula_sum              "C1 O1 Mn12 Al12"
_cell_length_a       6.913395881652832
_cell_length_b       5.4381232261657715
_cell_length_c       99.90967559814453
_cell_angle_alpha    90.0
_cell_angle_beta     90.0
_cell_angle_gamma    90.0

_space_group_name_H-M_alt    "P 1"
_space_group_IT_number       1

loop_
  _space_group_symop_operation_xyz
  'x, y, z'

loop_
  _atom_site_type_symbol
  _atom_site_label
  _atom_site_symmetry_multiplicity
  _atom_site_fract_x
  _atom_site_fract_y
  _atom_site_fract_z
  _atom_site_occupancy
  C   C1        1.0  0.0037501440564268905  0.0024999983079701115  0.00017336172519413556  1.0000
  O   O1        1.0  0.0037501440564268905  0.0024999983079701115  0.00029346985928833887  1.0000
  Mn  Mn1       1.0  0.0037501440564268905  0.0024999983079701115  0.0  1.0000
  Al  Al1       1.0  0.0012503120108957224  0.009999999397171538  0.9999086323632086  1.0000
  Mn  Mn2       1.0  0.003750138129065868  0.0024999967666473385  0.9997898757931339  1.0000
  Al  Al2       1.0  0.0012498560082352297  8.000000086576649e-10  0.9996369557652897  1.0000
  Mn  Mn3       1.0  0.0037498560405662897  0.0025000008768414  0.9995008797270842  1.0000
  Al  Al3       1.0  0.0012498560082352297  8.000000086576649e-10  0.9993648036888788  1.0000
  Mn  Mn4       1.0  0.0037501440564268905  0.007499998520330138  0.0  1.0000
  Al  Al4       1.0  0.0012503120108957224  0.004999999356069597  0.9999086323632086  1.0000
  Mn  Mn5       1.0  0.003750138129065868  0.0074999971502654516  0.9997898757931339  1.0000
  Al  Al5       1.0  0.0012498560082352297  0.005000000726134285  0.9996369557652897  1.0000
  Mn  Mn6       1.0  0.0037498560405662897  0.007500000575427169  0.9995008797270842  1.0000
  Al  Al6       1.0  0.0012498560082352297  0.005000000726134285  0.9993648036888788  1.0000
  Mn  Mn7       1.0  0.008750143851663509  0.0024999983079701115  0.0  1.0000
  Al  Al7       1.0  0.0062503122102705935  0.009999999397171538  0.9999086323632086  1.0000
  Mn  Mn8       1.0  0.008750137924302487  0.0024999967666473385  0.9997898757931339  1.0000
  Al  Al8       1.0  0.006249855803471849  8.000000086576649e-10  0.9996369557652897  1.0000
  Mn  Mn9       1.0  0.00874985610522841  0.0025000008768414  0.9995008797270842  1.0000
  Al  Al9       1.0  0.006249855803471849  8.000000086576649e-10  0.9993648036888788  1.0000
  Mn  Mn10      1.0  0.008750143851663509  0.007499998520330138  0.0  1.0000
  Al  Al10      1.0  0.0062503122102705935  0.004999999356069597  0.9999086323632086  1.0000
  Mn  Mn11      1.0  0.008750137924302487  0.0074999971502654516  0.9997898757931339  1.0000
  Al  Al11      1.0  0.006249855803471849  0.005000000726134285  0.9996369557652897  1.0000
  Mn  Mn12      1.0  0.00874985610522841  0.007500000575427169  0.9995008797270842  1.0000
  Al  Al12      1.0  0.006249855803471849  0.005000000726134285  0.9993648036888788  1.0000
