data_image0
_chemical_formula_structural       COAu6Se6Au6Se6
_chemical_formula_sum              "C1 O1 Au12 Se12"
_cell_length_a       9.152459365469518
_cell_length_b       7.556042194366455
_cell_length_c       100.58232116699219
_cell_angle_alpha    90.0
_cell_angle_beta     83.15313277275658
_cell_angle_gamma    101.91110090994749

_space_group_name_H-M_alt    "P 1"
_space_group_IT_number       1

loop_
  _space_group_symop_operation_xyz
  'x, y, z'

loop_
  _atom_site_type_symbol
  _atom_site_label
  _atom_site_symmetry_multiplicity
  _atom_site_fract_x
  _atom_site_fract_y
  _atom_site_fract_z
  _atom_site_occupancy
  C   C1        1.0  0.0007509436213649173  0.003887953752554016  0.00010853285143034998  1.0000
  O   O1        1.0  0.0007509436213649173  0.003887953752554016  0.00022783835342579488  1.0000
  Au  Au1       1.0  0.005988360245020227  0.001447307852078524  0.99993503802649  1.0000
  Au  Au2       1.0  0.002001203896094665  0.002950093363512255  0.9995247700102607  1.0000
  Au  Au3       1.0  0.008667869989984395  0.004616760133495374  0.9991869337163953  1.0000
  Au  Au4       1.0  0.008833919421047578  0.004657788837294082  0.9997373867990391  1.0000
  Au  Au5       1.0  0.0053345370478157985  0.0012834266754773302  0.9993558518621914  1.0000
  Au  Au6       1.0  0.002001203896094665  0.002950093363512255  0.9990180154060676  1.0000
  Se  Se1       1.0  0.006091758077395364  0.0039746714549195135  0.9997823665467873  1.0000
  Se  Se2       1.0  0.00258238968752062  0.0005953897853310525  0.9993566617851812  1.0000
  Se  Se3       1.0  0.009249056410067964  0.002262056519892101  0.9990188254844962  1.0000
  Se  Se4       1.0  0.0015676331989693637  0.00034221098653523183  0.999693897655051  1.0000
  Se  Se5       1.0  0.008086684408110978  0.001971463542513231  0.9993550416429037  1.0000
  Se  Se6       1.0  0.004753351046837306  0.0036381301511979147  0.9990172054853509  1.0000
  Au  Au7       1.0  0.005988360245020227  0.0064473081352576745  0.99993503802649  1.0000
  Au  Au8       1.0  0.002001203896094665  0.007950093531139521  0.9995247700102607  1.0000
  Au  Au9       1.0  0.008667869989984395  0.009616760054611954  0.9991869337163953  1.0000
  Au  Au10      1.0  0.008833919421047578  0.009657789251432035  0.9997373867990391  1.0000
  Au  Au11      1.0  0.0053345370478157985  0.006283426858511514  0.9993558518621914  1.0000
  Au  Au12      1.0  0.002001203896094665  0.007950093531139521  0.9990180154060676  1.0000
  Se  Se7       1.0  0.006091758077395364  0.00897467162254678  0.9997823665467873  1.0000
  Se  Se8       1.0  0.00258238968752062  0.0055953900184377205  0.9993566617851812  1.0000
  Se  Se9       1.0  0.009249056410067964  0.007262056699074555  0.9990188254844962  1.0000
  Se  Se10      1.0  0.0015676331989693637  0.005342211173421146  0.999693897655051  1.0000
  Se  Se11      1.0  0.008086684408110978  0.006971463698585309  0.9993550416429037  1.0000
  Se  Se12      1.0  0.004753351046837306  0.00863813031882518  0.9990172054853509  1.0000
