data_image0
_chemical_formula_structural       COGa4Cu2Ga4Cu2Ga4Cu2Ga4Cu2Ga4Cu2Ga4Cu2
_chemical_formula_sum              "C1 O1 Ga24 Cu12"
_cell_length_a       5.750155448913574
_cell_length_b       12.282827688449611
_cell_length_c       101.6258544921875
_cell_angle_alpha    103.53698272273672
_cell_angle_beta     90.0
_cell_angle_gamma    90.0

_space_group_name_H-M_alt    "P 1"
_space_group_IT_number       1

loop_
  _space_group_symop_operation_xyz
  'x, y, z'

loop_
  _atom_site_type_symbol
  _atom_site_label
  _atom_site_symmetry_multiplicity
  _atom_site_fract_x
  _atom_site_fract_y
  _atom_site_fract_z
  _atom_site_occupancy
  C   C1        1.0  0.002506793612057849  0.005707007630329618  0.00022081719583821847  1.0000
  O   O1        1.0  0.002506793612057849  0.005707007630329618  0.00033889703658359483  1.0000
  Ga  Ga1       1.0  0.0025036667203093966  0.0020970296995134197  0.999359084286137  1.0000
  Ga  Ga2       1.0  0.0025036667203093966  0.0070970299428415075  0.9995005383422303  1.0000
  Ga  Ga3       1.0  0.0025036667203093966  0.004252806286623498  0.9994200729516245  1.0000
  Ga  Ga4       1.0  0.0025036667203093966  0.009252806373972041  0.9992786189048862  1.0000
  Cu  Cu1       1.0  3.666650082487035e-06  0.0006749179493941865  0.9994603056422499  1.0000
  Cu  Cu2       1.0  3.666650082487035e-06  0.005674918270712047  0.9993188516021307  1.0000
  Ga  Ga5       1.0  0.0025036667203093966  0.0020970296995134197  0.9996419923845558  1.0000
  Ga  Ga6       1.0  0.0025036660724503377  0.007140211943706568  0.99978624962036  1.0000
  Ga  Ga7       1.0  0.0025036667203093966  0.004252806286623498  0.9997029810500432  1.0000
  Ga  Ga8       1.0  0.0025036667203093966  0.009252806373972041  0.999561527003305  1.0000
  Cu  Cu3       1.0  3.666650082487035e-06  0.0006749179493941865  0.9997432137406685  1.0000
  Cu  Cu4       1.0  3.666650082487035e-06  0.005674918270712047  0.9996017597005495  1.0000
  Ga  Ga9       1.0  0.002494224984347725  0.0020584589219061282  0.9999261960894819  1.0000
  Ga  Ga10      1.0  0.002509831909079978  0.006445241966050226  9.966071017997545e-05  1.0000
  Ga  Ga11      1.0  0.0025037553150357205  0.004289758776462317  0.9999913647724308  1.0000
  Ga  Ga12      1.0  0.002497185862212299  0.009325082303292674  0.9998568807326987  1.0000
  Cu  Cu5       1.0  0.009996333765584897  0.0007080832559059196  2.003224874505184e-05  1.0000
  Cu  Cu6       1.0  4.022350012894015e-06  0.005705109671238846  0.9998701409899081  1.0000
  Ga  Ga13      1.0  0.007503666882274162  0.0020970296995134197  0.999359084286137  1.0000
  Ga  Ga14      1.0  0.007503666882274162  0.0070970299428415075  0.9995005383422303  1.0000
  Ga  Ga15      1.0  0.007503666882274162  0.004252806286623498  0.9994200729516245  1.0000
  Ga  Ga16      1.0  0.007503666882274162  0.009252806373972041  0.9992786189048862  1.0000
  Cu  Cu7       1.0  0.005003666882274161  0.0006749179493941865  0.9994603056422499  1.0000
  Cu  Cu8       1.0  0.005003666882274161  0.005674918270712047  0.9993188516021307  1.0000
  Ga  Ga17      1.0  0.007503666882274162  0.0020970296995134197  0.9996419923845558  1.0000
  Ga  Ga18      1.0  0.007503666234415102  0.007140211943706568  0.99978624962036  1.0000
  Ga  Ga19      1.0  0.007503666882274162  0.004252806286623498  0.9997029810500432  1.0000
  Ga  Ga20      1.0  0.007503666882274162  0.009252806373972041  0.999561527003305  1.0000
  Cu  Cu9       1.0  0.005003666882274161  0.0006749179493941865  0.9997432137406685  1.0000
  Cu  Cu10      1.0  0.005003666882274161  0.005674918270712047  0.9996017597005495  1.0000
  Ga  Ga21      1.0  0.007494224984347725  0.0020584589219061282  0.9999261960894819  1.0000
  Ga  Ga22      1.0  0.007509831909079978  0.006445241966050226  9.966071017997545e-05  1.0000
  Ga  Ga23      1.0  0.00750375563896525  0.004289758776462317  0.9999913647724308  1.0000
  Ga  Ga24      1.0  0.0074971863481065925  0.009325082303292674  0.9998568807326987  1.0000
  Cu  Cu11      1.0  0.004996333441655368  0.0007080832559059196  2.003224874505184e-05  1.0000
  Cu  Cu12      1.0  0.0050040225568975735  0.005705109671238846  0.9998701409899081  1.0000
