data_image0
_chemical_formula_structural       HSb8
_chemical_formula_sum              "H1 Sb8"
_cell_length_a       8.841442108154297
_cell_length_b       4.616843065072497
_cell_length_c       99.11063385009766
_cell_angle_alpha    92.65535432508945
_cell_angle_beta     90.0
_cell_angle_gamma    118.60445741431364

_space_group_name_H-M_alt    "P 1"
_space_group_IT_number       1

loop_
  _space_group_symop_operation_xyz
  'x, y, z'

loop_
  _atom_site_type_symbol
  _atom_site_label
  _atom_site_symmetry_multiplicity
  _atom_site_fract_x
  _atom_site_fract_y
  _atom_site_fract_z
  _atom_site_occupancy
  H   H1        1.0  0.0027556747553076884  0.0010938638196370388  0.00013721868402202225  1.0000
  Sb  Sb1       1.0  0.00019922379674823236  0.0058680603393283385  1.2663792961292842e-05  1.0000
  Sb  Sb2       1.0  0.0017671526322261088  0.0021213787150906236  0.9998631089577981  1.0000
  Sb  Sb3       1.0  0.0034697467573006706  0.008906135803019619  0.9996383260709497  1.0000
  Sb  Sb4       1.0  0.004800776015812691  0.004230252179770757  0.9994423904983466  1.0000
  Sb  Sb5       1.0  0.005199223809388558  0.0058680603393283385  1.2663792961292842e-05  1.0000
  Sb  Sb6       1.0  0.006767152644866435  0.0021213787150906236  0.9998631089577981  1.0000
  Sb  Sb7       1.0  0.008469746769940997  0.008906135803019619  0.9996383260709497  1.0000
  Sb  Sb8       1.0  0.009800776133789066  0.004230252179770757  0.9994423904983466  1.0000
