data_image0
_chemical_formula_structural       COSi15Pd30
_chemical_formula_sum              "C1 O1 Si15 Pd30"
_cell_length_a       11.390435218811035
_cell_length_b       9.656530097295098
_cell_length_c       40.13426208496094
_cell_angle_alpha    92.68454936383151
_cell_angle_beta     90.0
_cell_angle_gamma    53.85868081062775

_space_group_name_H-M_alt    "P 1"
_space_group_IT_number       1

loop_
  _space_group_symop_operation_xyz
  'x, y, z'

loop_
  _atom_site_type_symbol
  _atom_site_label
  _atom_site_symmetry_multiplicity
  _atom_site_fract_x
  _atom_site_fract_y
  _atom_site_fract_z
  _atom_site_occupancy
  C   C1        1.0  0.002753995419037473  0.006344310131462477  0.00037004162432549255  1.0000
  O   O1        1.0  0.002753995419037473  0.006344310131462477  0.0006690382619646957  1.0000
  Si  Si1       1.0  0.007131273187721564  0.0020339378719075995  0.9993576846855385  1.0000
  Si  Si2       1.0  0.00513127321930339  0.006033937808743945  0.9989856117893123  1.0000
  Si  Si3       1.0  0.009084844433275409  0.00822335660573311  0.9997329731663357  1.0000
  Si  Si4       1.0  0.003131273241071251  3.393800068728564e-05  0.9986135390964537  1.0000
  Si  Si5       1.0  0.0010735261990137042  0.004047349948574832  4.465646990903153e-05  1.0000
  Si  Si6       1.0  0.00046460662353189555  0.0020339378719075995  0.9993576846855385  1.0000
  Si  Si7       1.0  0.008464606910216043  0.006033937808743945  0.9989856117893123  1.0000
  Si  Si8       1.0  0.002322566531708761  0.00822256801707345  0.9997330363083828  1.0000
  Si  Si9       1.0  0.006464606604929648  3.393800068728564e-05  0.9986135390964537  1.0000
  Si  Si10      1.0  0.004507414152214704  0.004048345254650132  4.4428208872960244e-05  1.0000
  Si  Si11      1.0  0.006800616782950543  0.006029089998239687  0.9999228323685837  1.0000
  Si  Si12      1.0  0.004832266867339523  0.009966061938601436  0.9995521417429042  1.0000
  Si  Si13      1.0  0.008797940360232143  0.0020339378719075995  0.9984275024616038  1.0000
  Si  Si14      1.0  0.0027979402265224003  0.004033937720697638  0.9991716484217187  1.0000
  Si  Si15      1.0  0.0007979398992198256  0.008033938375302788  0.9987995755335812  1.0000
  Pd  Pd1       1.0  0.009267232079489252  0.0010953544333933826  0.99900846309559  1.0000
  Pd  Pd2       1.0  0.007267231991442944  0.005095354609485996  0.9986363905733429  1.0000
  Pd  Pd3       1.0  0.0012595857488089236  0.007111781554387567  0.999371234636688  1.0000
  Pd  Pd4       1.0  0.005351251142401711  0.008928037135145294  0.00010061243314023442  1.0000
  Pd  Pd5       1.0  0.003334246416179864  0.0029606790821758997  0.9997598688616042  1.0000
  Pd  Pd6       1.0  0.006737643631085917  0.0035849314637595893  0.9999031084521043  1.0000
  Pd  Pd7       1.0  0.004718090968954691  0.007446758991717584  0.9995451417616018  1.0000
  Pd  Pd8       1.0  0.008736524049212543  0.009503229301186111  0.998416076890948  1.0000
  Pd  Pd9       1.0  0.00273652338797724  0.0015032297863978228  0.9991602226874449  1.0000
  Pd  Pd10      1.0  0.000736523479373134  0.005503229603606034  0.9987881497898705  1.0000
  Pd  Pd11      1.0  0.009307664551925861  0.0035844883611510663  0.9999032426897126  1.0000
  Pd  Pd12      1.0  0.007465621593823836  0.00744633742217319  0.9995452806972657  1.0000
  Pd  Pd13      1.0  0.001390065241973233  0.009503229301186111  0.998416076890948  1.0000
  Pd  Pd14      1.0  0.005390064999367377  0.0015032297863978228  0.9991602226874449  1.0000
  Pd  Pd15      1.0  0.003390065090763271  0.005503229603606034  0.9987881497898705  1.0000
  Pd  Pd16      1.0  0.0075857000285052024  0.0044584185353614796  0.9993295861642099  1.0000
  Pd  Pd17      1.0  0.005585700179715164  0.008458418232941557  0.9989575132652874  1.0000
  Pd  Pd18      1.0  0.009626541417146842  0.0003787137822091765  0.9997270213067352  1.0000
  Pd  Pd19      1.0  0.0035856997435854995  0.0024584186865714407  0.9985854402040949  1.0000
  Pd  Pd20      1.0  0.001625557107109  0.006374913400715249  3.5785327727408766e-05  1.0000
  Pd  Pd21      1.0  0.004346113126328764  0.004806202882210396  0.999460123640754  1.0000
  Pd  Pd22      1.0  0.002373459495933408  0.008821697294225217  0.9990926792643697  1.0000
  Pd  Pd23      1.0  0.006522999553715274  0.0007977810051087683  0.9998171879403864  1.0000
  Pd  Pd24      1.0  0.00037345917943187754  0.002821697508598832  0.9987206065717639  1.0000
  Pd  Pd25      1.0  0.00837345885590651  0.006821697684691446  0.9983485336782338  1.0000
  Pd  Pd26      1.0  0.00047704056803050813  0.004806387588049369  0.9994601179253146  1.0000
  Pd  Pd27      1.0  0.00843466114810475  0.008821697294225217  0.9990926792643697  1.0000
  Pd  Pd28      1.0  0.002309730198602323  0.0007975820635218425  0.9998170913926294  1.0000
  Pd  Pd29      1.0  0.00643466148571173  0.002821697508598832  0.9987206065717639  1.0000
  Pd  Pd30      1.0  0.004434661397665423  0.006821697684691446  0.9983485336782338  1.0000
