data_image0
_chemical_formula_structural       COAu4Ca4
_chemical_formula_sum              "C1 O1 Au4 Ca4"
_cell_length_a       5.964720180038007
_cell_length_b       4.722667217254639
_cell_length_c       100.61345672607422
_cell_angle_alpha    90.0
_cell_angle_beta     88.45715441290356
_cell_angle_gamma    90.0

_space_group_name_H-M_alt    "P 1"
_space_group_IT_number       1

loop_
  _space_group_symop_operation_xyz
  'x, y, z'

loop_
  _atom_site_type_symbol
  _atom_site_label
  _atom_site_symmetry_multiplicity
  _atom_site_fract_x
  _atom_site_fract_y
  _atom_site_fract_z
  _atom_site_occupancy
  C   C1        1.0  0.001082518569478399  0.007500002397984441  0.00012249325606223944  1.0000
  O   O1        1.0  0.001082518569478399  0.007500002397984441  0.0002417618381105216  1.0000
  Au  Au1       1.0  0.00633304208561953  0.007499996876309741  0.9999898913368942  1.0000
  Au  Au2       1.0  0.0035745752341777566  0.0025000054664579526  0.9999304773235317  1.0000
  Au  Au3       1.0  0.008917481305565484  0.007500003186795112  0.9996363512926355  1.0000
  Au  Au4       1.0  0.006084547481924348  0.0025000032972286065  0.9995747818711768  1.0000
  Ca  Ca1       1.0  0.0037901904476147974  0.007500006342037798  0.9997378648772933  1.0000
  Ca  Ca2       1.0  0.008707214526258377  0.0024999940287032175  0.9998537811259817  1.0000
  Ca  Ca3       1.0  0.006311898886111197  0.007500003186795112  0.9993623887076816  1.0000
  Ca  Ca4       1.0  0.0011901299169981502  0.0025000032972286065  0.9994684094370407  1.0000
