data_image0
_chemical_formula_structural       HV9Si18
_chemical_formula_sum              "H1 V9 Si18"
_cell_length_a       4.582750335193187
_cell_length_b       11.177124236167923
_cell_length_c       101.47654724121094
_cell_angle_alpha    90.70453504501202
_cell_angle_beta     106.9289186933049
_cell_angle_gamma    65.79443899091848

_space_group_name_H-M_alt    "P 1"
_space_group_IT_number       1

loop_
  _space_group_symop_operation_xyz
  'x, y, z'

loop_
  _atom_site_type_symbol
  _atom_site_label
  _atom_site_symmetry_multiplicity
  _atom_site_fract_x
  _atom_site_fract_y
  _atom_site_fract_z
  _atom_site_occupancy
  H   H1        1.0  0.0012950538575589446  0.0029858650468793844  0.00015640961666441095  1.0000
  V   V1        1.0  0.005029281614129036  0.008049180989338966  0.999633745967925  1.0000
  V   V2        1.0  0.005029281160934954  0.0013825142023911046  0.999375258167382  1.0000
  V   V3        1.0  0.004817988217746173  0.004790208161444142  0.9998772948920659  1.0000
  V   V4        1.0  0.004970446157496951  0.007460119301899806  0.9999336248845229  1.0000
  V   V5        1.0  0.0050292814338785425  0.0008269587748900184  0.9996768275289534  1.0000
  V   V6        1.0  0.005029281222592707  0.00416029198426008  0.9994183396493543  1.0000
  V   V7        1.0  2.928166690311007e-05  0.0052714030233661216  0.9995906647926425  1.0000
  V   V8        1.0  7.164945261745547e-05  0.008557192052726688  8.727675133208945e-05  1.0000
  V   V9        1.0  0.009970718384075535  0.0019485345541106782  0.9998502557423448  1.0000
  Si  Si1       1.0  0.006772444175017613  0.004147542791277183  0.9996778160649836  1.0000
  Si  Si2       1.0  0.006772443638575973  0.007480875908595309  0.999419328180984  1.0000
  Si  Si3       1.0  0.0067518473020297025  0.0008345321637295982  0.999944279733318  1.0000
  Si  Si4       1.0  0.008344332990656693  0.008635233683130293  0.9998427658993239  1.0000
  Si  Si5       1.0  0.008400862375978306  0.0019508190990308912  0.9995896761603515  1.0000
  Si  Si6       1.0  0.008288614538741794  0.005073610662650449  0.00011586774175764194  1.0000
  Si  Si7       1.0  0.008400862603483005  0.005801459788745611  0.9998080486004122  1.0000
  Si  Si8       1.0  0.008400863766471226  0.009134792906063737  0.9995495607387602  1.0000
  Si  Si9       1.0  0.008075051953718975  0.0027830947016284843  7.035235073736212e-05  1.0000
  Si  Si10      1.0  0.003286119328731595  0.006395263255455059  0.9995035134990411  1.0000
  Si  Si11      1.0  0.0034913784394570153  0.009675847668416688  2.1620870127483303e-05  1.0000
  Si  Si12      1.0  0.0032861190154583036  0.0030619301381369333  0.9997620013718669  1.0000
  Si  Si13      1.0  0.0018216539712414973  0.006312845107858828  2.8874259220515656e-05  1.0000
  Si  Si14      1.0  0.0016577003824804007  0.009703097986807394  0.9997639785195706  1.0000
  Si  Si15      1.0  0.0016577003801946056  0.0030364315680672716  0.9995054907254558  1.0000
  Si  Si16      1.0  0.0016577002594001325  0.006963568336198716  0.9997179315002679  1.0000
  Si  Si17      1.0  0.0016577000316601931  0.00029690173335472435  0.9994594434092522  1.0000
  Si  Si18      1.0  0.0017765261981606954  0.0036088692283760843  0.9999814608102413  1.0000
