data_image0
_chemical_formula_structural       Fe3Pd3Fe3Pd3Fe3Pd3Fe3Pd3H
_chemical_formula_sum              "Fe12 Pd12 H1"
_cell_length_a       7.411898612976074
_cell_length_b       5.958633256095396
_cell_length_c       100.14856719970703
_cell_angle_alpha    71.56505190204138
_cell_angle_beta     90.0
_cell_angle_gamma    90.0

_space_group_name_H-M_alt    "P 1"
_space_group_IT_number       1

loop_
  _space_group_symop_operation_xyz
  'x, y, z'

loop_
  _atom_site_type_symbol
  _atom_site_label
  _atom_site_symmetry_multiplicity
  _atom_site_fract_x
  _atom_site_fract_y
  _atom_site_fract_z
  _atom_site_occupancy
  Fe  Fe1       1.0  5.499999668268006e-10  0.006683395230393378  0.999488505630374  1.0000
  Fe  Fe2       1.0  5.499999668268006e-10  0.003350062103549942  0.9993630730236948  1.0000
  Fe  Fe3       1.0  5.499999668268006e-10  1.672894967678589e-05  0.9996139382854226  1.0000
  Pd  Pd1       1.0  0.0025000005227138297  0.006683395230393378  0.9993003566964247  1.0000
  Pd  Pd2       1.0  0.0025000005227138297  0.003350062103549942  0.999551221957644  1.0000
  Pd  Pd3       1.0  0.0025000005227138297  1.672894967678589e-05  0.9994257893514734  1.0000
  Fe  Fe4       1.0  0.009999998069979704  0.007058204707876862  0.9998494957027797  1.0000
  Fe  Fe5       1.0  0.009999999075198608  0.003328610988470757  0.9997488084596822  1.0000
  Fe  Fe6       1.0  0.009999997064760801  0.0001524701491658764  0.9999539939309225  1.0000
  Pd  Pd4       1.0  0.0025000005227138297  0.006683395230393378  0.9996766545643231  1.0000
  Pd  Pd5       1.0  0.002499999517494926  0.0034495647521598245  0.9999350967863987  1.0000
  Pd  Pd6       1.0  0.0025000047948941697  0.009983270733328959  0.9998042280873164  1.0000
  Fe  Fe7       1.0  0.005000000542818208  0.006683395230393378  0.999488505630374  1.0000
  Fe  Fe8       1.0  0.005000000542818208  0.003350062103549942  0.9993630730236948  1.0000
  Fe  Fe9       1.0  0.005000000542818208  1.672894967678589e-05  0.9996139382854226  1.0000
  Pd  Pd7       1.0  0.007500000562922586  0.006683395230393378  0.9993003566964247  1.0000
  Pd  Pd8       1.0  0.007500000562922586  0.003350062103549942  0.999551221957644  1.0000
  Pd  Pd9       1.0  0.007500000562922586  1.672894967678589e-05  0.9994257893514734  1.0000
  Fe  Fe10      1.0  0.004999998029770949  0.007058204707876862  0.9998494957027797  1.0000
  Fe  Fe11      1.0  0.004999999537599304  0.003328610988470757  0.9997488084596822  1.0000
  Fe  Fe12      1.0  0.004999996521942594  0.0001524701491658764  0.9999539939309225  1.0000
  Pd  Pd10      1.0  0.007500000562922586  0.006683395230393378  0.9996766545643231  1.0000
  Pd  Pd11      1.0  0.007499999557703682  0.0034495647521598245  0.9999350967863987  1.0000
  Pd  Pd12      1.0  0.0075000045837982  0.009983270733328959  0.9998042280873164  1.0000
  H   H1        1.0  0.0025000047948941697  0.009983270733328959  0.9999540054242699  1.0000
