data_image0
_chemical_formula_structural       HSn8V24
_chemical_formula_sum              "H1 Sn8 V24"
_cell_length_a       7.046857833862305
_cell_length_b       8.630602983265888
_cell_length_c       37.32506561279297
_cell_angle_alpha    84.94884753989477
_cell_angle_beta     90.0
_cell_angle_gamma    90.0

_space_group_name_H-M_alt    "P 1"
_space_group_IT_number       1

loop_
  _space_group_symop_operation_xyz
  'x, y, z'

loop_
  _atom_site_type_symbol
  _atom_site_label
  _atom_site_symmetry_multiplicity
  _atom_site_fract_x
  _atom_site_fract_y
  _atom_site_fract_z
  _atom_site_occupancy
  H   H1        1.0  0.009612757084155371  0.00915188815116158  0.9999809029933264  1.0000
  Sn  Sn1       1.0  0.00038724254050626284  0.005234374861337562  0.9991224566632281  1.0000
  Sn  Sn2       1.0  0.005387242683240572  0.0021093750346656095  0.9985753220545807  1.0000
  Sn  Sn3       1.0  0.00038724254050626284  0.00898437525999207  0.9980281873171222  1.0000
  Sn  Sn4       1.0  0.0055028231112279795  0.008374422595743084  0.9997200206388976  1.0000
  Sn  Sn5       1.0  0.00038724254050626284  0.0039843750173328045  0.9980281873859386  1.0000
  Sn  Sn6       1.0  0.0052717949452955855  0.0033741610610527385  0.9997200563684528  1.0000
  Sn  Sn7       1.0  0.00038724254050626284  0.0002343749978333994  0.9991224567243255  1.0000
  Sn  Sn8       1.0  0.005387242683240572  0.007109375277324875  0.9985753219857643  1.0000
  V   V1        1.0  0.009344987521257474  0.007579702233230664  0.999525242995376  1.0000
  V   V2        1.0  0.004137242482355249  0.004453125121329633  0.998985673106462  1.0000
  V   V3        1.0  0.00913724249292816  0.0013281249696675916  0.998438538504431  1.0000
  V   V4        1.0  0.0032347794413638835  0.0008009954877994804  0.9999791401554883  1.0000
  V   V5        1.0  0.006637242619803102  0.006015625034665609  0.9992592402111724  1.0000
  V   V6        1.0  0.0016372426092301892  0.0028906249913335973  0.9987121056069359  1.0000
  V   V7        1.0  0.006637242619803102  0.009765625433320118  0.9981649712642932  1.0000
  V   V8        1.0  0.0016756574338024075  0.009461231050113936  0.99980738356229  1.0000
  V   V9        1.0  0.002956703404095266  0.005946948562503147  0.9996143982922336  1.0000
  V   V10       1.0  0.007887242556365632  0.0027343749566679882  0.9991224566932255  1.0000
  V   V11       1.0  0.002887242545792719  0.009609375398654509  0.998575321951356  1.0000
  V   V12       1.0  0.007887242556365632  0.006484375138662437  0.9980281873515304  1.0000
  V   V13       1.0  0.002887242545792719  0.007734374982667195  0.9991224566288199  1.0000
  V   V14       1.0  0.007887242556365632  0.0046093751559952425  0.9985753220201725  1.0000
  V   V15       1.0  0.002887242545792719  0.0014843750043332011  0.9980281874181414  1.0000
  V   V16       1.0  0.007817628390842756  0.0009468838634763471  0.9996143944833382  1.0000
  V   V17       1.0  0.009100200296623463  0.004460449531282135  0.9998072833617573  1.0000
  V   V18       1.0  0.004137242482355249  0.0010156250086664023  0.999259240275578  1.0000
  V   V19       1.0  0.00913724249292816  0.007890625017332804  0.9987121055425303  1.0000
  V   V20       1.0  0.004137242482355249  0.004765625190660852  0.9981649709338829  1.0000
  V   V21       1.0  0.0014297456478427337  0.0025792309716032636  0.9995252678240434  1.0000
  V   V22       1.0  0.006637242619803102  0.009453125363988898  0.9989856730376456  1.0000
  V   V23       1.0  0.0016372426092301892  0.006328125103996828  0.9984385384378199  1.0000
  V   V24       1.0  0.007538953398123686  0.005801838754748079  0.9999794123632918  1.0000
