data_image0
_chemical_formula_structural       COCo12Si12
_chemical_formula_sum              "C1 O1 Co12 Si12"
_cell_length_a       6.300343036651611
_cell_length_b       6.300343228039371
_cell_length_c       39.13474655151367
_cell_angle_alpha    90.0
_cell_angle_beta     90.0
_cell_angle_gamma    60.0000010048748

_space_group_name_H-M_alt    "P 1"
_space_group_IT_number       1

loop_
  _space_group_symop_operation_xyz
  'x, y, z'

loop_
  _atom_site_type_symbol
  _atom_site_label
  _atom_site_symmetry_multiplicity
  _atom_site_fract_x
  _atom_site_fract_y
  _atom_site_fract_z
  _atom_site_occupancy
  C   C1        1.0  0.0009126333138590213  0.004508648003740583  0.00021445169671054678  1.0000
  O   O1        1.0  0.0009126333138590213  0.004508648003740583  0.0005210848162514662  1.0000
  Co  Co1       1.0  0.00693467029922082  0.004255919187975706  0.9982310084344492  1.0000
  Co  Co2       1.0  0.00026800347743736086  0.007589252571377784  0.9988882515652935  1.0000
  Co  Co3       1.0  0.0036297049155247126  0.0009397335530400825  0.9995437336557172  1.0000
  Co  Co4       1.0  0.004032666003036665  0.009255919092389922  0.9982310084344492  1.0000
  Co  Co5       1.0  0.007365999215749842  0.002589252666963569  0.9988882515652935  1.0000
  Co  Co6       1.0  0.0007164082064716945  0.0058771746093829545  0.9995437309903588  1.0000
  Co  Co7       1.0  0.009032666204025147  0.007157923081692703  0.9982310084344492  1.0000
  Co  Co8       1.0  0.0023659994522153465  0.0004912566562663506  0.9988882515652935  1.0000
  Co  Co9       1.0  0.005653820892266157  0.0038530609485116192  0.9995437275634693  1.0000
  Co  Co10      1.0  0.006666667953179661  0.006889920340226842  0.999164030495137  1.0000
  Co  Co11      1.0  0.009999999439962128  0.00022328574828070122  0.9998183154588404  1.0000
  Co  Co12      1.0  0.0033333340484675163  0.003556587298202568  0.9985067869835272  1.0000
  Si  Si1       1.0  0.006242611623921737  0.00960194851022071  0.9986898270498538  1.0000
  Si  Si2       1.0  0.009553284914543941  0.0029248533342637745  0.9993547806819985  1.0000
  Si  Si3       1.0  0.002916711409933644  0.00619772631895493  0.999999999238469  1.0000
  Si  Si4       1.0  0.009378695686229241  0.004601948605806495  0.9986898270498538  1.0000
  Si  Si5       1.0  0.0027016991205297183  0.007968647573003725  0.9993548138085966  1.0000
  Si  Si6       1.0  0.005974358208091812  0.001332166455751625  0.9999999939077521  1.0000
  Si  Si7       1.0  0.00437869578741538  0.006465864246031125  0.9986898270498538  1.0000
  Si  Si8       1.0  0.007744882944633516  0.009776745552650137  0.9993548347506989  1.0000
  Si  Si9       1.0  0.001108858546199308  0.003140121739476016  0.0  1.0000
  Si  Si10      1.0  0.006666606967343022  0.00689008488432831  0.9997832922677238  1.0000
  Si  Si11      1.0  6.086568876910683e-10  0.00022325393613660262  0.9984448177797675  1.0000
  Si  Si12      1.0  0.0033333340484675163  0.003556587298202568  0.9991020609106117  1.0000
