data_image0
_chemical_formula_structural       COCu12Zn12
_chemical_formula_sum              "C1 O1 Cu12 Zn12"
_cell_length_a       6.013001591588461
_cell_length_b       6.728152676345483
_cell_length_c       99.71000671386719
_cell_angle_alpha    92.77977579186084
_cell_angle_beta     90.56324750072004
_cell_angle_gamma    91.24366481784845

_space_group_name_H-M_alt    "P 1"
_space_group_IT_number       1

loop_
  _space_group_symop_operation_xyz
  'x, y, z'

loop_
  _atom_site_type_symbol
  _atom_site_label
  _atom_site_symmetry_multiplicity
  _atom_site_fract_x
  _atom_site_fract_y
  _atom_site_fract_z
  _atom_site_occupancy
  C   C1        1.0  0.0012862599722963486  0.008326861859362891  0.00013607727740496723  1.0000
  O   O1        1.0  0.0012862599722963486  0.008326861859362891  0.0002564265253308142  1.0000
  Cu  Cu1       1.0  0.0012499999849213677  0.009090908687653835  0.9997998094262099  1.0000
  Cu  Cu2       1.0  0.006249999892732417  0.0031818182624692333  0.9999352475867919  1.0000
  Cu  Cu3       1.0  0.0037499998613807484  0.006136363475061534  0.9998675286559  1.0000
  Cu  Cu4       1.0  0.008749999916342417  0.00022727273798419506  2.9665166584346655e-06  1.0000
  Cu  Cu5       1.0  0.0012499999472736344  0.0009090909519367803  0.9995289328300794  1.0000
  Cu  Cu6       1.0  0.006249999984856024  0.004999999889104804  0.9996643709826738  1.0000
  Cu  Cu7       1.0  0.003749999953504355  0.007954545101697106  0.9995966520517819  1.0000
  Cu  Cu8       1.0  0.008750000012766952  0.0020454545378935096  0.9997320902119999  1.0000
  Cu  Cu9       1.0  0.0012499999653918384  0.002727272717191346  0.9992580562263711  1.0000
  Cu  Cu10      1.0  0.00625000007697963  0.006818181515740376  0.9993934946774456  1.0000
  Cu  Cu11      1.0  0.0037499997358433844  0.009772726728332676  0.9993257754474801  1.0000
  Cu  Cu12      1.0  0.008749999488762145  0.0038636363031480754  0.9994612136079702  1.0000
  Zn  Zn1       1.0  0.008749999762249683  0.006136363475061534  0.9998675283606874  1.0000
  Zn  Zn2       1.0  0.0037500000154734817  0.00022727273798419506  2.9668118710614142e-06  1.0000
  Zn  Zn3       1.0  0.0012499999918634817  0.0031818182624692333  0.9999352472842244  1.0000
  Zn  Zn4       1.0  0.006249999730898014  0.009090908687653835  0.9997998094297955  1.0000
  Zn  Zn5       1.0  0.008749999854373289  0.007954545101697106  0.9995966520554592  1.0000
  Zn  Zn6       1.0  0.0037499998021134386  0.0020454545378935096  0.9997320902081389  1.0000
  Zn  Zn7       1.0  0.0012499999290947997  0.004999999889104804  0.9996643709789046  1.0000
  Zn  Zn8       1.0  0.006249999615804137  0.0009090909519367803  0.9995289328336191  1.0000
  Zn  Zn9       1.0  0.008749999946496896  0.009772726728332676  0.9993257754513412  1.0000
  Zn  Zn10      1.0  0.0037499998976777867  0.0038636363031480754  0.9994612136044765  1.0000
  Zn  Zn11      1.0  0.0012499999437722623  0.006818181515740376  0.9993934946736306  1.0000
  Zn  Zn12      1.0  0.006249999711368485  0.002727272717191346  0.9992580562299567  1.0000
