data_image0
_chemical_formula_structural       HV2Ni6V2Ni6V2Ni6V2Ni6
_chemical_formula_sum              "H1 V8 Ni24"
_cell_length_a       7.110980987548828
_cell_length_b       7.110980987548828
_cell_length_c       99.02824401855469
_cell_angle_alpha    90.0
_cell_angle_beta     90.0
_cell_angle_gamma    90.0

_space_group_name_H-M_alt    "P 1"
_space_group_IT_number       1

loop_
  _space_group_symop_operation_xyz
  'x, y, z'

loop_
  _atom_site_type_symbol
  _atom_site_label
  _atom_site_symmetry_multiplicity
  _atom_site_fract_x
  _atom_site_fract_y
  _atom_site_fract_z
  _atom_site_occupancy
  H   H1        1.0  0.0012499999842836439  0.003749999821881298  0.00012441418724282212  1.0000
  V   V1        1.0  0.003749999821881298  0.0012499999842836439  0.9994503795143118  1.0000
  V   V2        1.0  0.0012499999842836439  0.003749999821881298  0.9998167932717532  1.0000
  Ni  Ni1       1.0  0.0012499999842836439  0.0012499999842836439  0.0  1.0000
  Ni  Ni2       1.0  0.003749999821881298  0.003749999821881298  0.0  1.0000
  Ni  Ni3       1.0  0.0012499999842836439  0.003749999821881298  0.9994503795143118  1.0000
  Ni  Ni4       1.0  0.003749999821881298  0.003749999821881298  0.9996335865435063  1.0000
  Ni  Ni5       1.0  0.0012499999842836439  0.0012499999842836439  0.9996335865435063  1.0000
  Ni  Ni6       1.0  0.003749999821881298  0.0012499999842836439  0.9998167932717532  1.0000
  V   V3        1.0  0.003749999821881298  0.006249999790448586  0.9994503795143118  1.0000
  V   V4        1.0  0.0012499999842836439  0.008749999497076607  0.9998167932717532  1.0000
  Ni  Ni7       1.0  0.0012499999842836439  0.006249999790448586  0.0  1.0000
  Ni  Ni8       1.0  0.003749999821881298  0.008749999497076607  0.0  1.0000
  Ni  Ni9       1.0  0.0012499999842836439  0.008749999497076607  0.9994503795143118  1.0000
  Ni  Ni10      1.0  0.003749999821881298  0.008749999497076607  0.9996335865435063  1.0000
  Ni  Ni11      1.0  0.0012499999842836439  0.006249999790448586  0.9996335865435063  1.0000
  Ni  Ni12      1.0  0.003749999821881298  0.006249999790448586  0.9998167932717532  1.0000
  V   V5        1.0  0.008749999497076607  0.0012499999842836439  0.9994503795143118  1.0000
  V   V6        1.0  0.006249999790448586  0.003749999821881298  0.9998167932717532  1.0000
  Ni  Ni13      1.0  0.006249999790448586  0.0012499999842836439  0.0  1.0000
  Ni  Ni14      1.0  0.008749999497076607  0.003749999821881298  0.0  1.0000
  Ni  Ni15      1.0  0.006249999790448586  0.003749999821881298  0.9994503795143118  1.0000
  Ni  Ni16      1.0  0.008749999497076607  0.003749999821881298  0.9996335865435063  1.0000
  Ni  Ni17      1.0  0.006249999790448586  0.0012499999842836439  0.9996335865435063  1.0000
  Ni  Ni18      1.0  0.008749999497076607  0.0012499999842836439  0.9998167932717532  1.0000
  V   V7        1.0  0.008749999497076607  0.006249999790448586  0.9994503795143118  1.0000
  V   V8        1.0  0.006249999790448586  0.008749999497076607  0.9998167932717532  1.0000
  Ni  Ni19      1.0  0.006249999790448586  0.006249999790448586  0.0  1.0000
  Ni  Ni20      1.0  0.008749999497076607  0.008749999497076607  0.0  1.0000
  Ni  Ni21      1.0  0.006249999790448586  0.008749999497076607  0.9994503795143118  1.0000
  Ni  Ni22      1.0  0.008749999497076607  0.008749999497076607  0.9996335865435063  1.0000
  Ni  Ni23      1.0  0.006249999790448586  0.006249999790448586  0.9996335865435063  1.0000
  Ni  Ni24      1.0  0.008749999497076607  0.006249999790448586  0.9998167932717532  1.0000
