data_image0
_chemical_formula_structural       CONa60Pb16
_chemical_formula_sum              "C1 O1 Na60 Pb16"
_cell_length_a       13.589326858520508
_cell_length_b       13.589326858520508
_cell_length_c       110.76798248291016
_cell_angle_alpha    90.0
_cell_angle_beta     90.0
_cell_angle_gamma    90.0

_space_group_name_H-M_alt    "P 1"
_space_group_IT_number       1

loop_
  _space_group_symop_operation_xyz
  'x, y, z'

loop_
  _atom_site_type_symbol
  _atom_site_label
  _atom_site_symmetry_multiplicity
  _atom_site_fract_x
  _atom_site_fract_y
  _atom_site_fract_z
  _atom_site_occupancy
  C   C1        1.0  0.003948196543854138  0.005603884458247558  5.1024593071457875e-05  1.0000
  O   O1        1.0  0.003948196543854138  0.005603884458247558  0.0001593588286968265  1.0000
  Na  Na1       1.0  0.0001910141614558486  0.0025533069448438754  0.9991973604376351  1.0000
  Na  Na2       1.0  0.003941014245066579  5.330675346439662e-05  0.9990440068445738  1.0000
  Na  Na3       1.0  0.0014410142121705537  5.330675346439662e-05  0.9996574206787151  1.0000
  Na  Na4       1.0  0.0078085387703251815  0.0010096265688421342  0.9999692898922078  1.0000
  Na  Na5       1.0  0.002574987344241269  0.00409916846436864  0.999969374912569  1.0000
  Na  Na6       1.0  0.0001910141614558486  0.0075533067365023835  0.9988906532515127  1.0000
  Na  Na7       1.0  0.0017405596588448867  0.00967127892622041  0.9988869128937257  1.0000
  Na  Na8       1.0  0.001439287444992583  0.007926190307136238  0.9998785042896066  1.0000
  Na  Na9       1.0  0.008910526549039604  0.0029353350621554165  0.9994673178417023  1.0000
  Na  Na10      1.0  0.006141468557154729  0.008772818854064602  0.999090875125813  1.0000
  Na  Na11      1.0  0.006141468557154729  0.0013337948272816578  0.998997138294283  1.0000
  Na  Na12      1.0  0.0023089859742402544  0.006003761410446809  0.9988943936092997  1.0000
  Na  Na13      1.0  0.008073042548788928  0.009102852610825041  0.9988943936092997  1.0000
  Na  Na14      1.0  0.0047937885918620535  0.0038310159684673967  0.9997528813249724  1.0000
  Na  Na15      1.0  0.004096535137568896  0.0018633764198450718  0.9999998240401387  1.0000
  Na  Na16      1.0  0.000573042450100853  0.0062728190953021176  0.9991606111936835  1.0000
  Na  Na17      1.0  0.003971502281019145  0.008503761717476375  0.9993038452113536  1.0000
  Na  Na18      1.0  0.000573042450100853  0.0038337948601776827  0.9989274022264125  1.0000
  Na  Na19      1.0  0.006284452774536715  0.003246655640971766  0.0  1.0000
  Na  Na20      1.0  0.0013162243750053512  0.0013901191271209075  0.9999206905318433  1.0000
  Na  Na21      1.0  0.009808986072928329  0.0012728187553765263  0.9989274022264125  1.0000
  Na  Na22      1.0  0.008641468864184296  0.004671278312161276  0.9992011007954221  1.0000
  Na  Na23      1.0  0.0017405596588448867  0.00043533506352608404  0.9992011007954221  1.0000
  Na  Na24      1.0  0.0036414687983922457  0.00043533506352608404  0.9995003267278668  1.0000
  Na  Na25      1.0  0.003910526209114013  0.0021712785533987925  0.9992341091434831  1.0000
  Na  Na26      1.0  0.004240559691740912  0.0037728187882725512  0.998997138294283  1.0000
  Na  Na27      1.0  0.0023089859742402544  0.00410285227089945  0.9991936195417445  1.0000
  Na  Na28      1.0  0.0014715022481231195  0.0021712785533987925  0.9994673178417023  1.0000
  Na  Na29      1.0  0.009240560305800045  0.0013337948272816578  0.9997042889599541  1.0000
  Na  Na30      1.0  0.0030932379009999127  0.006044713123678808  0.9998022474828979  1.0000
  Na  Na31      1.0  0.0051910338620628094  0.007552978872786738  0.9998576156478377  1.0000
  Na  Na32      1.0  0.00894101458499217  0.0050533069777399  0.9996574206787151  1.0000
  Na  Na33      1.0  0.006441014277962604  0.0050533069777399  0.9990440068445738  1.0000
  Na  Na34      1.0  0.0026910140915517955  0.0063033071312546835  0.9993507134925927  1.0000
  Na  Na35      1.0  0.007691014431477387  0.008803306890017166  0.9993507134925927  1.0000
  Na  Na36      1.0  0.005191014124447821  0.0025533069448438754  0.9995040670856539  1.0000
  Na  Na37      1.0  0.006740559998770478  0.004671278312161276  0.9995003267278668  1.0000
  Na  Na38      1.0  0.0064715023139151695  0.0029353350621554165  0.9992341091434831  1.0000
  Na  Na39      1.0  0.003910526209114013  0.007935335402081007  0.998853904007561  1.0000
  Na  Na40      1.0  0.0011414686969628354  0.0037728187882725512  0.9997042889599541  1.0000
  Na  Na41      1.0  0.0011414686969628354  0.0063337951672072495  0.999610552397476  1.0000
  Na  Na42      1.0  0.007308985765898763  0.0010037612761213737  0.9995078074434409  1.0000
  Na  Na43      1.0  0.003073042482996878  0.00410285227089945  0.9995078074434409  1.0000
  Na  Na44      1.0  0.009808986072928329  0.008833794925969732  0.9991606111936835  1.0000
  Na  Na45      1.0  0.008971502620944736  0.006602852303795475  0.9993975817738318  1.0000
  Na  Na46      1.0  0.005587114064712148  0.0012792348509155656  0.9997525396292172  1.0000
  Na  Na47      1.0  0.009066185604846842  0.003717648590643058  0.9999207168989174  1.0000
  Na  Na48      1.0  0.005573042790026445  0.008833794925969732  0.9995408163296055  1.0000
  Na  Na49      1.0  0.001410526176217988  0.008503761717476375  0.9993975817738318  1.0000
  Na  Na50      1.0  0.006410526242010038  0.006602852303795475  0.9993038452113536  1.0000
  Na  Na51      1.0  0.00480898600713628  0.0062728190953021176  0.9995408163296055  1.0000
  Na  Na52      1.0  0.0036032721272524215  0.009680454724121828  0.9998167633643054  1.0000
  Na  Na53      1.0  0.006777522520706424  0.005425780444595655  0.9998167316161958  1.0000
  Na  Na54      1.0  0.008641468864184296  0.005435335095051441  0.9988869128937257  1.0000
  Na  Na55      1.0  0.008943003149702283  0.007179072784043053  0.9998784843797751  1.0000
  Na  Na56      1.0  0.009240560305800045  0.008772818854064602  0.999610552397476  1.0000
  Na  Na57      1.0  0.007289276112531284  0.009062061539848367  0.9998023701705077  1.0000
  Na  Na58      1.0  0.0064715023139151695  0.007171278619190842  0.998853904007561  1.0000
  Na  Na59      1.0  0.004240559691740912  0.0063337951672072495  0.999090875125813  1.0000
  Na  Na60      1.0  0.008073042548788928  0.0010037612761213737  0.9991936195417445  1.0000
  Pb  Pb1       1.0  0.002278133751877793  0.002140426331036331  0.9989933532739013  1.0000
  Pb  Pb2       1.0  0.005603894875322135  0.000466187251621853  0.9993000601909718  1.0000
  Pb  Pb3       1.0  0.004803155186708364  0.005163055244549225  0.9999870666811378  1.0000
  Pb  Pb4       1.0  0.005578866482982281  0.00994669321963625  0.999986975203534  1.0000
  Pb  Pb5       1.0  0.002278133751877793  0.0079661874873767  0.9990946601461947  1.0000
  Pb  Pb6       1.0  0.0031038948424261105  0.002140426331036331  0.999708073980336  1.0000
  Pb  Pb7       1.0  0.0031038948424261105  0.0079661874873767  0.9996067673770942  1.0000
  Pb  Pb8       1.0  0.004778133921840589  0.004640426226865585  0.9993000601909718  1.0000
  Pb  Pb9       1.0  0.007278133680603072  0.007140426533895152  0.9996067673770942  1.0000
  Pb  Pb10      1.0  0.0006670695695048971  0.005515921583982025  0.9998888993740159  1.0000
  Pb  Pb11      1.0  0.009778133987632638  0.000466187251621853  0.9994013667942135  1.0000
  Pb  Pb12      1.0  0.0006038946724633147  0.004640426226865585  0.9994013667942135  1.0000
  Pb  Pb13      1.0  0.007278133680603072  0.0029661874215846486  0.999708073980336  1.0000
  Pb  Pb14      1.0  0.008103894634084619  0.007140426533895152  0.9990946601461947  1.0000
  Pb  Pb15      1.0  0.008103894634084619  0.0029661874215846486  0.9989933532739013  1.0000
  Pb  Pb16      1.0  0.009715200602241127  0.009589828368366986  0.9998889230505722  1.0000
