data_image0
_chemical_formula_structural       COSi10Pt12Si10Pt12Si10Pt12
_chemical_formula_sum              "C1 O1 Si30 Pt36"
_cell_length_a       15.643549919128418
_cell_length_b       7.2033248169111115
_cell_length_c       105.58456420898438
_cell_angle_alpha    60.39604147606797
_cell_angle_beta     90.0
_cell_angle_gamma    86.91611627975696

_space_group_name_H-M_alt    "P 1"
_space_group_IT_number       1

loop_
  _space_group_symop_operation_xyz
  'x, y, z'

loop_
  _atom_site_type_symbol
  _atom_site_label
  _atom_site_symmetry_multiplicity
  _atom_site_fract_x
  _atom_site_fract_y
  _atom_site_fract_z
  _atom_site_occupancy
  C   C1        1.0  0.0042642260933524545  0.0038024819366978316  0.9998481445976191  1.0000
  O   O1        1.0  0.0042642260933524545  0.0038024819366978316  0.9999617978044926  1.0000
  Si  Si1       1.0  0.004270641431792072  0.0077564681540544375  0.9987430995599916  1.0000
  Si  Si2       1.0  0.005729358499152775  0.0022104995587488405  0.9987615000059653  1.0000
  Si  Si3       1.0  0.0027985482426463562  0.006857499131914912  0.9989419088928959  1.0000
  Si  Si4       1.0  0.007201451673535531  0.003109469176838696  0.9988997147193406  1.0000
  Si  Si5       1.0  0.0033491468978232714  0.002293971639648726  0.998758686793973  1.0000
  Si  Si6       1.0  0.006650853025740097  0.007672996371129717  0.9987459127619416  1.0000
  Si  Si7       1.0  0.0006463205080519204  0.005630112014251852  0.9989832753862573  1.0000
  Si  Si8       1.0  0.009353679065689128  0.0043368556985514265  0.9988583488105846  1.0000
  Si  Si9       1.0  0.0011933516059274044  0.0005224488702507621  0.9989869035910278  1.0000
  Si  Si10      1.0  0.00880664820410414  0.009444518917046308  0.998854720038783  1.0000
  Pt  Pt1       1.0  0.005769440248837699  0.004708715295380826  0.9988458162384238  1.0000
  Pt  Pt2       1.0  0.004230559674725668  0.005258252715397617  0.9989958079483756  1.0000
  Pt  Pt3       1.0  0.004477807320992933  0.0014625476278735867  0.9989552199781304  1.0000
  Pt  Pt4       1.0  0.005522192602570434  0.008504420382904856  0.998886404208669  1.0000
  Pt  Pt5       1.0  0.002813312075073906  0.009896200399006386  0.9990080094494108  1.0000
  Pt  Pt6       1.0  0.007186688093084121  7.076735104378841e-05  0.9988336141816553  1.0000
  Pt  Pt7       1.0  0.001741239293225824  0.006553236095153415  0.9987836514046472  1.0000
  Pt  Pt8       1.0  0.00825876086109193  0.0034137322136001927  0.9987209481412248  1.0000
  Pt  Pt9       1.0  0.001783150629038844  0.0027758955150132187  0.9987424447881312  1.0000
  Pt  Pt10      1.0  0.008216849301906004  0.007191072197790059  0.9987621547778257  1.0000
  Pt  Pt11      1.0  1.2958700423622534e-05  0.0019600313193829213  0.9987699413943566  1.0000
  Pt  Pt12      1.0  0.009987041200784374  0.008006936542407939  0.9987346581665791  1.0000
  Si  Si11      1.0  0.004270641431792072  0.0077564681540544375  0.9990801236263561  1.0000
  Si  Si12      1.0  0.005729358499152775  0.0022104995587488405  0.9990985246368503  1.0000
  Si  Si13      1.0  0.0027985482426463562  0.006857499131914912  0.9992789332415206  1.0000
  Si  Si14      1.0  0.007201451673535531  0.003109469176838696  0.9992367387857051  1.0000
  Si  Si15      1.0  0.0033491468978232714  0.002293971639648726  0.9990957114248579  1.0000
  Si  Si16      1.0  0.006650853025740097  0.007672996371129717  0.999082936828306  1.0000
  Si  Si17      1.0  0.0006463205080519204  0.005630112014251852  0.9993202991703616  1.0000
  Si  Si18      1.0  0.009353679065689128  0.0043368556985514265  0.999195372876949  1.0000
  Si  Si19      1.0  0.0011933516059274044  0.0005224488702507621  0.9993239276573923  1.0000
  Si  Si20      1.0  0.00880664820410414  0.009444518917046308  0.9991917443874077  1.0000
  Pt  Pt13      1.0  0.005769440248837699  0.004708715295380826  0.9991828403047883  1.0000
  Pt  Pt14      1.0  0.004230559674725668  0.005258252715397617  0.9993328317324799  1.0000
  Pt  Pt15      1.0  0.004477807320992933  0.0014625476278735867  0.9992922440444949  1.0000
  Pt  Pt16      1.0  0.005522192602570434  0.008504420382904856  0.9992234279927733  1.0000
  Pt  Pt17      1.0  0.002813312075073906  0.009896200399006386  0.9993450337980355  1.0000
  Pt  Pt18      1.0  0.007186688093084121  7.076735104378841e-05  0.9991706388125402  1.0000
  Pt  Pt19      1.0  0.001741239293225824  0.006553236095153415  0.9991206754710117  1.0000
  Pt  Pt20      1.0  0.00825876086109193  0.0034137322136001927  0.9990579722075893  1.0000
  Pt  Pt21      1.0  0.001783150629038844  0.0027758955150132187  0.9990794694190162  1.0000
  Pt  Pt22      1.0  0.008216849301906004  0.007191072197790059  0.9990991788441902  1.0000
  Pt  Pt23      1.0  1.2958700423622534e-05  0.0019600313193829213  0.9991069660252415  1.0000
  Pt  Pt24      1.0  0.009987041200784374  0.008006936542407939  0.9990716822329436  1.0000
  Si  Si21      1.0  0.004337368161924178  0.007746773830041754  0.9994185252698018  1.0000
  Si  Si22      1.0  0.005751930199077311  0.0021270104932645598  0.9994511756903439  1.0000
  Si  Si23      1.0  0.0028426205150218933  0.006635514785518143  0.9996102128526999  1.0000
  Si  Si24      1.0  0.007203272944660398  0.0037695589587105776  0.9995409187621905  1.0000
  Si  Si25      1.0  0.0033734114170103006  0.0019995084101082634  0.9994573142860999  1.0000
  Si  Si26      1.0  0.006620764595147534  0.007736460313636549  0.9994301339141318  1.0000
  Si  Si27      1.0  0.0010225349297943937  0.0033133655368045955  0.9996323440894993  1.0000
  Si  Si28      1.0  0.00953268998961194  0.004410207052977753  0.9995278171873329  1.0000
  Si  Si29      1.0  0.001698915120448001  0.009929232733879132  0.9996722676329928  1.0000
  Si  Si30      1.0  0.008792137930298595  0.009637979292814253  0.9994952538482137  1.0000
  Pt  Pt25      1.0  0.005759140148094139  0.004695382396630365  0.9995272999449648  1.0000
  Pt  Pt26      1.0  0.004230268897161909  0.005173264238883896  0.9996593830393697  1.0000
  Pt  Pt27      1.0  0.004515959703703999  0.0016025649659280417  0.9996159111767446  1.0000
  Pt  Pt28      1.0  0.005456796808581981  0.008452716328253332  0.9995588117226941  1.0000
  Pt  Pt29      1.0  0.0031465075623694993  0.00893526684538947  0.9996988597915176  1.0000
  Pt  Pt30      1.0  0.007171324781536368  0.000120956155423517  0.9994997461450551  1.0000
  Pt  Pt31      1.0  0.0017092445341576128  0.006551837995680018  0.9994612277720272  1.0000
  Pt  Pt32      1.0  0.00825876086109193  0.0034137322136001927  0.999394996556214  1.0000
  Pt  Pt33      1.0  0.0018128154549533833  0.0027932037004377193  0.9994163998789498  1.0000
  Pt  Pt34      1.0  0.00822063745340995  0.006785405828634511  0.999463812580539  1.0000
  Pt  Pt35      1.0  2.5799499346680153e-05  0.0019950572570959853  0.9994313727305005  1.0000
  Pt  Pt36      1.0  0.009934771477773727  0.008213342151236898  0.9993930419185871  1.0000
