data_image0
_chemical_formula_structural       V16Co16Si16CO
_chemical_formula_sum              "V16 Co16 Si16 C1 O1"
_cell_length_a       6.972233917595083
_cell_length_b       9.901797265613704
_cell_length_c       109.13677215576172
_cell_angle_alpha    77.08418002838457
_cell_angle_beta     70.16381585814105
_cell_angle_gamma    68.35612409578387

_space_group_name_H-M_alt    "P 1"
_space_group_IT_number       1

loop_
  _space_group_symop_operation_xyz
  'x, y, z'

loop_
  _atom_site_type_symbol
  _atom_site_label
  _atom_site_symmetry_multiplicity
  _atom_site_fract_x
  _atom_site_fract_y
  _atom_site_fract_z
  _atom_site_occupancy
  V   V1        1.0  0.006056944730562076  0.00790432589585941  0.9996654216889971  1.0000
  V   V2        1.0  0.0033302104088463362  0.005390056742133749  0.9990151525460884  1.0000
  V   V3        1.0  0.008330210265182245  0.00039005661280092747  0.9994634064674761  1.0000
  V   V4        1.0  0.0008302100565499959  0.002890056766574597  0.9992392791178298  1.0000
  V   V5        1.0  0.006205284682177107  0.007765031799433525  0.9992504876781308  1.0000
  V   V6        1.0  0.003705284993662226  0.005265031620200639  0.9994746147857593  1.0000
  V   V7        1.0  0.008705285406031466  0.000265031516327034  0.9990263607977382  1.0000
  V   V8        1.0  0.0014481972320010779  0.0028512157780547828  0.9996794437231228  1.0000
  V   V9        1.0  0.008860482396249722  0.007359784613950351  0.998967612954987  1.0000
  V   V10       1.0  0.006360481948177264  0.004859784842064934  0.9991917400708207  1.0000
  V   V11       1.0  0.001342164698628453  0.009854891328037739  0.9996282583386793  1.0000
  V   V12       1.0  0.003860482259662385  0.0023597846628320477  0.9994158671784492  1.0000
  V   V13       1.0  0.009235556789513379  0.00723475989936471  0.999427075736696  1.0000
  V   V14       1.0  0.00686935162638187  0.004758950864275317  0.9996451411626832  1.0000
  V   V15       1.0  0.0017355573284666902  0.009734759671250127  0.9992029483785878  1.0000
  V   V16       1.0  0.004235557316707502  0.002234759744572672  0.9989788220530603  1.0000
  Co  Co1       1.0  0.007575646220782797  0.00014510859965808623  0.9996974735907054  1.0000
  Co  Co2       1.0  0.004533696887844526  0.007525692349918072  0.9990577149224084  1.0000
  Co  Co3       1.0  0.009533697419933911  0.0025256919914522988  0.9995059688337936  1.0000
  Co  Co4       1.0  0.0020336971993296458  0.005025692170685186  0.9992818414838905  1.0000
  Co  Co5       1.0  0.00517436255533241  0.00938502661354178  0.9994485323089772  1.0000
  Co  Co6       1.0  0.0028880043363107215  0.006896004041251876  0.999674532836864  1.0000
  Co  Co7       1.0  0.007674362447797106  0.0018850268905380575  0.9992244054352492  1.0000
  Co  Co8       1.0  0.00017436236919417752  0.004385027069770944  0.9990002786284141  1.0000
  Co  Co9       1.0  0.009825637681747244  0.005620535976850255  0.999669801833511  1.0000
  Co  Co10      1.0  0.007391404930355653  0.003239789416935477  0.9989936954338233  1.0000
  Co  Co11      1.0  0.0023914050620477286  0.008239789571727515  0.9994419494090174  1.0000
  Co  Co12      1.0  0.0048914051460646575  0.0007397894413763251  0.9992178225393977  1.0000
  Co  Co13      1.0  0.008032070310515189  0.0050991242915803875  0.9993845133603761  1.0000
  Co  Co14      1.0  0.005545756201002354  0.0026688945868435605  0.999620077347517  1.0000
  Co  Co15      1.0  0.0005320699974604854  0.007599124063465804  0.9991603860207381  1.0000
  Co  Co16      1.0  0.0014932828919295947  0.0005056240175756681  0.9997933802297999  1.0000
  Si  Si1       1.0  0.009684956498273892  0.007960968376123458  0.9996286016788648  1.0000
  Si  Si2       1.0  0.007041180883961103  0.005638925678339772  0.9989442127761041  1.0000
  Si  Si3       1.0  0.0020411812212658333  0.0006389256253846012  0.9993924664452121  1.0000
  Si  Si4       1.0  0.004541181099670107  0.0031389257027806205  0.9991683393355322  1.0000
  Si  Si5       1.0  0.004598863883721494  0.0006241170173322242  0.9996259025493703  1.0000
  Si  Si6       1.0  0.002029031143633434  0.008151075810531521  0.9989453019412113  1.0000
  Si  Si7       1.0  0.0070290316757228195  0.0031510754520657483  0.9993935558525966  1.0000
  Si  Si8       1.0  0.009529031364237698  0.005651075631298635  0.9991694287449682  1.0000
  Si  Si9       1.0  0.005524585746393267  0.006985890963158687  0.9994980155189936  1.0000
  Si  Si10      1.0  0.002996355270280914  0.0045617898010934695  0.9997275900461869  1.0000
  Si  Si11      1.0  0.008024586194465725  0.009485890735044104  0.99927388840316  1.0000
  Si  Si12      1.0  0.0005245860853608352  0.001985890604692914  0.9990497618435688  1.0000
  Si  Si13      1.0  0.0005367358616044639  0.004473740830966938  0.9994969261054553  1.0000
  Si  Si14      1.0  0.008156455646220709  0.002106095584024951  0.9997391949782107  1.0000
  Si  Si15      1.0  0.0030367360256742487  0.006973740602852356  0.9992727989957783  1.0000
  Si  Si16      1.0  0.005536735522636896  0.00947374118943271  0.9990486724301878  1.0000
  C   C1        1.0  0.004878677888895856  0.005827477045416128  0.9998430933986395  1.0000
  O   O1        1.0  0.004878677888895856  0.005827477045416128  0.9999530468494978  1.0000
