data_image0
_chemical_formula_structural       COCa4Zn4Ca4Zn4
_chemical_formula_sum              "C1 O1 Ca8 Zn8"
_cell_length_a       8.80661678314209
_cell_length_b       6.201676174087401
_cell_length_c       98.73650360107422
_cell_angle_alpha    93.1288448722812
_cell_angle_beta     90.0
_cell_angle_gamma    90.0

_space_group_name_H-M_alt    "P 1"
_space_group_IT_number       1

loop_
  _space_group_symop_operation_xyz
  'x, y, z'

loop_
  _atom_site_type_symbol
  _atom_site_label
  _atom_site_symmetry_multiplicity
  _atom_site_fract_x
  _atom_site_fract_y
  _atom_site_fract_z
  _atom_site_occupancy
  C   C1        1.0  0.003749999272422149  0.003994017728162464  8.681684963898943e-05  1.0000
  O   O1        1.0  0.003749999272422149  0.003994017728162464  0.00020835269384083448  1.0000
  Ca  Ca1       1.0  0.003750000964463663  0.00613187164699106  0.9996419701643963  1.0000
  Ca  Ca2       1.0  0.0012500010617560499  0.001130936659461732  0.9995207253016568  1.0000
  Ca  Ca3       1.0  0.003749998426401392  0.008908835142459806  3.0542022258436034e-05  1.0000
  Ca  Ca4       1.0  0.001249999369714536  0.003841351024855099  0.9999111338765486  1.0000
  Zn  Zn1       1.0  0.003750000964463663  0.008318517633159743  0.9993464009085052  1.0000
  Zn  Zn2       1.0  0.0012500010617560499  0.006087147816150193  0.9994005196492399  1.0000
  Zn  Zn3       1.0  0.003750005617577826  0.001091164872579885  0.9997504178479175  1.0000
  Zn  Zn4       1.0  0.0012499946108477783  0.00887404953963625  0.9998096969717938  1.0000
  Ca  Ca5       1.0  0.008750000981384077  0.00613187164699106  0.9996419701643963  1.0000
  Ca  Ca6       1.0  0.0062500011844290595  0.001130936659461732  0.9995207253016568  1.0000
  Ca  Ca7       1.0  0.008749998443321806  0.008908835142459806  3.0542022258436034e-05  1.0000
  Ca  Ca8       1.0  0.006249999492387546  0.003841351024855099  0.9999111338765486  1.0000
  Zn  Zn5       1.0  0.008750000981384077  0.008318517633159743  0.9993464009085052  1.0000
  Zn  Zn6       1.0  0.0062500011844290595  0.006087147816150193  0.9994005196492399  1.0000
  Zn  Zn7       1.0  0.008750005211487862  0.001091164872579885  0.9997504178479175  1.0000
  Zn  Zn8       1.0  0.006249994839273383  0.00887404953963625  0.9998096969717938  1.0000
