data_image0
_chemical_formula_structural       COAl9Cu6Al9Cu6
_chemical_formula_sum              "C1 O1 Al18 Cu12"
_cell_length_a       5.082241058349609
_cell_length_b       11.059953433268051
_cell_length_c       99.26188659667969
_cell_angle_alpha    79.10660469865894
_cell_angle_beta     90.0
_cell_angle_gamma    90.0

_space_group_name_H-M_alt    "P 1"
_space_group_IT_number       1

loop_
  _space_group_symop_operation_xyz
  'x, y, z'

loop_
  _atom_site_type_symbol
  _atom_site_label
  _atom_site_symmetry_multiplicity
  _atom_site_fract_x
  _atom_site_fract_y
  _atom_site_fract_z
  _atom_site_occupancy
  C   C1        1.0  8.182229986056787e-05  0.0036325891402005897  8.56212253805189e-05  1.0000
  O   O1        1.0  8.182229986056787e-05  0.0036325891402005897  0.00020651379281129417  1.0000
  Al  Al1       1.0  3.954860036439293e-05  0.0072222220453826615  0.9994112819599277  1.0000
  Al  Al2       1.0  3.954860036439293e-05  0.003888889004749291  0.9992709034414478  1.0000
  Al  Al3       1.0  3.954860036439293e-05  0.0005555555782321803  0.9995516604320144  1.0000
  Al  Al4       1.0  0.006519222213637309  0.006111111489181898  0.9992241106104972  1.0000
  Al  Al5       1.0  0.006519222213637309  0.002777777762532988  0.9995048676073836  1.0000
  Al  Al6       1.0  0.006519222213637309  0.009444444529815268  0.9993644891289771  1.0000
  Al  Al7       1.0  0.0035598745411058795  0.008333333287598964  0.9991773177939919  1.0000
  Al  Al8       1.0  0.0035598745411058795  0.004999999903957825  0.9994580747836557  1.0000
  Al  Al9       1.0  0.0035598745411058795  0.0016666666918205698  0.9993176962687871  1.0000
  Cu  Cu1       1.0  0.0016308654735724462  0.006111111489181898  0.9992241106104972  1.0000
  Cu  Cu2       1.0  0.0016308654735724462  0.002777777762532988  0.9995048676073836  1.0000
  Cu  Cu3       1.0  0.0016308654735724462  0.009444444529815268  0.9993644891289771  1.0000
  Cu  Cu4       1.0  0.008448231464421117  0.008333333287598964  0.9991773177939919  1.0000
  Cu  Cu5       1.0  0.008448231464421117  0.004999999903957825  0.9994580747836557  1.0000
  Cu  Cu6       1.0  0.008448231464421117  0.0016666666918205698  0.9993176962687871  1.0000
  Al  Al10      1.0  0.009960451666608496  0.007198152504174048  0.9998484301479065  1.0000
  Al  Al11      1.0  4.710210060794294e-05  0.0038770888514593933  0.9996967387638154  1.0000
  Al  Al12      1.0  0.00018423029390495418  0.000650853341109164  0.9999822076717062  1.0000
  Al  Al13      1.0  0.006519222213637309  0.006111111489181898  0.9996452461114183  1.0000
  Al  Al14      1.0  0.006549655702746947  0.0027916646035892685  0.9999318761109207  1.0000
  Al  Al15      1.0  0.006434878663506293  0.009425557149989824  0.9997914203400634  1.0000
  Al  Al16      1.0  0.0035598745411058795  0.008333333287598964  0.9995984532949129  1.0000
  Al  Al17      1.0  0.003615621870376813  0.005052072942484633  0.9998823432659565  1.0000
  Al  Al18      1.0  0.003566482916092463  0.001699936901937141  0.9997490659229189  1.0000
  Cu  Cu7       1.0  0.0016308654735724462  0.006111111489181898  0.9996452461114183  1.0000
  Cu  Cu8       1.0  0.0015672671485289493  0.0028721644110219625  0.9999320383253736  1.0000
  Cu  Cu9       1.0  0.0014340814180942487  0.009440112341685175  0.9997963320142847  1.0000
  Cu  Cu10      1.0  0.008448231464421117  0.008333333287598964  0.9995984532949129  1.0000
  Cu  Cu11      1.0  0.00859637766376262  0.004995789483585943  0.9998838142417292  1.0000
  Cu  Cu12      1.0  0.008489047919720645  0.0016565642554863243  0.9997345216891246  1.0000
