data_image0
_chemical_formula_structural       COAg4Ca8Ge4
_chemical_formula_sum              "C1 O1 Ag4 Ca8 Ge4"
_cell_length_a       5.257835865020752
_cell_length_b       7.435703277587891
_cell_length_c       101.5470199584961
_cell_angle_alpha    90.0
_cell_angle_beta     90.0
_cell_angle_gamma    90.0

_space_group_name_H-M_alt    "P 1"
_space_group_IT_number       1

loop_
  _space_group_symop_operation_xyz
  'x, y, z'

loop_
  _atom_site_type_symbol
  _atom_site_label
  _atom_site_symmetry_multiplicity
  _atom_site_fract_x
  _atom_site_fract_y
  _atom_site_fract_z
  _atom_site_occupancy
  C   C1        1.0  0.010000000226726913  4.3999998135180135e-09  0.00017056585341170165  1.0000
  O   O1        1.0  0.010000000226726913  4.3999998135180135e-09  0.000288737950668713  1.0000
  Ag  Ag1       1.0  3.150000292500724e-09  0.005000029559023457  0.9997396242448613  1.0000
  Ag  Ag2       1.0  1.5000000437631553e-10  0.005000001503001192  0.9992207560148891  1.0000
  Ag  Ag3       1.0  0.005000000467624258  0.009999992985994433  0.9999795371924551  1.0000
  Ag  Ag4       1.0  0.005000000467624258  1.7999999128530233e-09  0.9994796426373694  1.0000
  Ca  Ca1       1.0  0.005000000467624258  0.007500001503001192  0.9992207560148891  1.0000
  Ca  Ca2       1.0  0.004999993382408223  0.007490783095685464  0.9997355823972118  1.0000
  Ca  Ca3       1.0  0.009999993141510876  0.007403454217381266  0.0  1.0000
  Ca  Ca4       1.0  1.5000000437631553e-10  0.007500001503001192  0.9994796426373694  1.0000
  Ca  Ca5       1.0  6.650000429807402e-09  0.002596554299625492  0.9999999994130341  1.0000
  Ca  Ca6       1.0  1.5000000437631553e-10  0.0025000017535013914  0.9994796426373694  1.0000
  Ca  Ca7       1.0  0.005000000467624258  0.0025000017535013914  0.9992207560148891  1.0000
  Ca  Ca8       1.0  0.005000008969883501  0.002509218657815927  0.9997355823972118  1.0000
  Ge  Ge1       1.0  4.5000002368674123e-10  0.009999997995998409  0.9997581494777487  1.0000
  Ge  Ge2       1.0  1.5000000437631553e-10  1.7999999128530233e-09  0.9992207560148891  1.0000
  Ge  Ge3       1.0  0.00500000082188506  0.00500000200400159  0.9999910734215725  1.0000
  Ge  Ge4       1.0  0.005000000467624258  0.005000001503001192  0.9994796426373694  1.0000
