data_image0
_chemical_formula_structural       HAl4Pt12
_chemical_formula_sum              "H1 Al4 Pt12"
_cell_length_a       5.531562328338623
_cell_length_b       5.531562328338623
_cell_length_c       102.04754638671875
_cell_angle_alpha    90.0
_cell_angle_beta     90.0
_cell_angle_gamma    90.0

_space_group_name_H-M_alt    "P 1"
_space_group_IT_number       1

loop_
  _space_group_symop_operation_xyz
  'x, y, z'

loop_
  _atom_site_type_symbol
  _atom_site_label
  _atom_site_symmetry_multiplicity
  _atom_site_fract_x
  _atom_site_fract_y
  _atom_site_fract_z
  _atom_site_occupancy
  H   H1        1.0  0.004342073748028861  0.006666714904417705  0.00012067529372193018  1.0000
  Al  Al1       1.0  0.0010085579483533377  0.005000096116322991  0.0  1.0000
  Al  Al2       1.0  0.006009204366318875  8.349999516709743e-09  0.9996022826068388  1.0000
  Al  Al3       1.0  0.006008592863927647  0.009999991541332562  1.0513565920450828e-08  1.0000
  Al  Al4       1.0  0.001009204807435688  0.005000008229690772  0.9996022826068388  1.0000
  Pt  Pt1       1.0  0.008235419229229844  0.0022262231128055646  0.9994128994075657  1.0000
  Pt  Pt2       1.0  0.0010090205317288602  6.49499982521504e-08  0.9999998241898144  1.0000
  Pt  Pt3       1.0  0.003026216570268747  0.007016850532954235  0.9998034804258149  1.0000
  Pt  Pt4       1.0  0.003991204047238544  0.002017140814755657  0.9998034401238123  1.0000
  Pt  Pt5       1.0  0.003782989840138297  0.007773793514941174  0.9994128994075657  1.0000
  Pt  Pt6       1.0  0.008026072597822495  0.007982602724643458  0.9998034827621629  1.0000
  Pt  Pt7       1.0  0.008991441590326025  0.0029831585183586916  0.9998034395397253  1.0000
  Pt  Pt8       1.0  0.00878298998829967  0.007226222755871349  0.9994128994075657  1.0000
  Pt  Pt9       1.0  0.006009070347623  0.005000057392327952  0.9999998154285094  1.0000
  Pt  Pt10      1.0  0.001009204807435688  8.349999516709743e-09  0.9996115021280205  1.0000
  Pt  Pt11      1.0  0.0032354197545292553  0.0027737933667798024  0.9994128994075657  1.0000
  Pt  Pt12      1.0  0.006009204366318875  0.005000008229690772  0.9996115021280205  1.0000
