data_image0
_chemical_formula_structural       Si8W4H
_chemical_formula_sum              "Si8 W4 H1"
_cell_length_a       4.5573063203404525
_cell_length_b       4.5803093910217285
_cell_length_c       101.68028259277344
_cell_angle_alpha    90.0
_cell_angle_beta     89.66633329124902
_cell_angle_gamma    90.0

_space_group_name_H-M_alt    "P 1"
_space_group_IT_number       1

loop_
  _space_group_symop_operation_xyz
  'x, y, z'

loop_
  _atom_site_type_symbol
  _atom_site_label
  _atom_site_symmetry_multiplicity
  _atom_site_fract_x
  _atom_site_fract_y
  _atom_site_fract_z
  _atom_site_occupancy
  Si  Si1       1.0  0.0037517093130395277  0.007500000162665443  0.9995547121034679  1.0000
  Si  Si2       1.0  0.006251709607320218  0.0025000001219990828  0.9997494421550198  1.0000
  Si  Si3       1.0  0.0012517096318436086  0.0025000001219990828  0.9993599823448542  1.0000
  Si  Si4       1.0  0.008771246052191845  0.007500000162665443  0.9999405898421346  1.0000
  Si  Si5       1.0  0.008799585282648625  0.007500000162665443  0.9996832889954772  1.0000
  Si  Si6       1.0  0.0012004144639430035  0.0025000001219990828  0.9998865208216954  1.0000
  Si  Si7       1.0  0.006299585397091115  0.0025000001219990828  0.9994885592369169  1.0000
  Si  Si8       1.0  0.0046662147594295905  0.007500000162665443  8.362817379748242e-05  1.0000
  W   W1        1.0  0.008775647183401587  0.007500000162665443  0.9994242707549759  1.0000
  W   W2        1.0  0.0012756475267290573  0.0025000001219990828  0.999619000585409  1.0000
  W   W3        1.0  0.00608712659181003  0.0025000001219990828  0.9999984111913329  1.0000
  W   W4        1.0  0.0037428428810806764  0.007500000162665443  0.9998112619322214  1.0000
  H   H1        1.0  0.0012004144639430035  0.0025000001219990828  3.404190751847526e-05  1.0000
