data_image0
_chemical_formula_structural       HMo8Ni24
_chemical_formula_sum              "H1 Mo8 Ni24"
_cell_length_a       6.774907497862361
_cell_length_b       8.004437189777157
_cell_length_c       98.94437408447266
_cell_angle_alpha    94.26522731770547
_cell_angle_beta     93.23843101936002
_cell_angle_gamma    95.86225539388342

_space_group_name_H-M_alt    "P 1"
_space_group_IT_number       1

loop_
  _space_group_symop_operation_xyz
  'x, y, z'

loop_
  _atom_site_type_symbol
  _atom_site_label
  _atom_site_symmetry_multiplicity
  _atom_site_fract_x
  _atom_site_fract_y
  _atom_site_fract_z
  _atom_site_occupancy
  H   H1        1.0  0.009757658241071795  0.00912625479308865  0.00011834026760945256  1.0000
  Mo  Mo1       1.0  0.0005637477201652212  0.009771102905454956  0.9996402740885622  1.0000
  Mo  Mo2       1.0  0.005579820005019932  0.0035142323010346256  0.9998288984502142  1.0000
  Mo  Mo3       1.0  0.00045813593628715434  0.007412095409755833  0.9999911796333428  1.0000
  Mo  Mo4       1.0  0.005563747634714525  0.006021102642601859  0.9994574418297344  1.0000
  Mo  Mo5       1.0  0.0015533711204046411  0.0029338801242234716  2.1000571243407346e-05  1.0000
  Mo  Mo6       1.0  0.00650860968430615  0.001729748801472494  0.9994919921229366  1.0000
  Mo  Mo7       1.0  0.0015086094500137892  0.005479748712290193  0.9996748243784094  1.0000
  Mo  Mo8       1.0  0.00649770744103004  0.009227556498695827  0.9998613757685868  1.0000
  Ni  Ni1       1.0  0.00683001511525703  0.00885717020137491  0.9995957151511323  1.0000
  Ni  Ni2       1.0  0.0018300151003690613  0.0026071703891271223  0.999778547517553  1.0000
  Ni  Ni3       1.0  0.006878636952267147  0.0063401743830522415  0.9999635786449466  1.0000
  Ni  Ni4       1.0  0.0018300151082429354  0.005107170407902343  0.999412882774951  1.0000
  Ni  Ni5       1.0  0.0002423419140748398  0.0026436809188268785  0.9995365510553852  1.0000
  Ni  Ni6       1.0  0.005242342045328546  0.00639368094698971  0.9997193834334591  1.0000
  Ni  Ni7       1.0  0.00027605980263017933  0.00018610025586758704  0.9999009550706409  1.0000
  Ni  Ni8       1.0  0.005209445873227428  0.003878299797684225  7.11420342247782e-05  1.0000
  Ni  Ni9       1.0  0.0031182130409609485  0.007936951553260525  0.9995508494890957  1.0000
  Ni  Ni10      1.0  0.00811821289358334  0.001686951388977341  0.999733681973367  1.0000
  Ni  Ni11      1.0  0.0030626399078604164  0.0054605374366493995  0.9999244558860726  1.0000
  Ni  Ni12      1.0  0.008039642762543025  0.009252260934658744  8.676584696937346e-05  1.0000
  Ni  Ni13      1.0  0.008954144186659017  0.009813900083259844  0.9993985843559466  1.0000
  Ni  Ni14      1.0  0.003954144250296869  0.0035638998016315274  0.999581416719847  1.0000
  Ni  Ni15      1.0  0.008954144316471478  0.007313900064484623  0.9997642490990812  1.0000
  Ni  Ni16      1.0  0.003918020827466328  0.001030167164467873  0.9999561429298482  1.0000
  Ni  Ni17      1.0  0.002727185796040315  0.0007800480690158203  0.9994456891189211  1.0000
  Ni  Ni18      1.0  0.00772718557944719  0.00453004827319635  0.9996285214967086  1.0000
  Ni  Ni19      1.0  0.0027103167840185623  0.008301011539821672  0.9998091164563825  1.0000
  Ni  Ni20      1.0  0.007773111499427889  0.002049691594838178  0.9999913459479446  1.0000
  Ni  Ni21      1.0  0.009345171486005038  0.006970803081695703  0.9995037448318419  1.0000
  Ni  Ni22      1.0  0.0043451715866182124  0.0007208030934302167  0.9996865771976503  1.0000
  Ni  Ni23      1.0  0.009361472859887362  0.004525220225082758  0.999878241851489  1.0000
  Ni  Ni24      1.0  0.004360043553654157  0.008155809612168217  4.018489626489176e-05  1.0000
