data_image0
_chemical_formula_structural       COCo8V24
_chemical_formula_sum              "C1 O1 Co8 V24"
_cell_length_a       6.584106922149658
_cell_length_b       8.063850647162708
_cell_length_c       100.52925109863281
_cell_angle_alpha    95.05115290823716
_cell_angle_beta     90.0
_cell_angle_gamma    90.0

_space_group_name_H-M_alt    "P 1"
_space_group_IT_number       1

loop_
  _space_group_symop_operation_xyz
  'x, y, z'

loop_
  _atom_site_type_symbol
  _atom_site_label
  _atom_site_symmetry_multiplicity
  _atom_site_fract_x
  _atom_site_fract_y
  _atom_site_fract_z
  _atom_site_occupancy
  C   C1        1.0  0.006956010598989431  0.004133807792177186  8.404713319429886e-05  1.0000
  O   O1        1.0  0.006956010598989431  0.004133807792177186  0.0002034156173673424  1.0000
  Co  Co1       1.0  3.196934900382557e-05  0.005259409668494381  0.9996132784817391  1.0000
  Co  Co2       1.0  0.005026687265663582  0.002138347769183434  0.9997999437837407  1.0000
  Co  Co3       1.0  9.763385314498203e-05  0.009038988749540974  0.999974228157477  1.0000
  Co  Co4       1.0  0.005031969578152985  0.008384409946759498  0.9994234754559923  1.0000
  Co  Co5       1.0  0.00996803033131895  0.004038941184756996  0.9999740216969226  1.0000
  Co  Co6       1.0  0.005031969578152985  0.003384409687045389  0.9994234753652218  1.0000
  Co  Co7       1.0  3.196934900382557e-05  0.00025940952472407083  0.9996132786882417  1.0000
  Co  Co8       1.0  0.005039132611155969  0.007138516379293252  0.9997997743058367  1.0000
  V   V1        1.0  0.008781968989720574  0.00760315976124942  0.9994709262857238  1.0000
  V   V2        1.0  0.003781969397096859  0.004478159946759498  0.9996607293147459  1.0000
  V   V3        1.0  0.008728469733354297  0.0012810281327294629  0.9998524594727101  1.0000
  V   V4        1.0  0.0036683592238464244  0.00818811338536243  2.2169415955476596e-05  1.0000
  V   V5        1.0  0.006281969193408717  0.0060406598540044595  0.9995658279484619  1.0000
  V   V6        1.0  0.0012933254976164685  0.002894538325818147  0.9997520085486635  1.0000
  V   V7        1.0  0.006103213045557415  0.009740590646872752  0.999944313050615  1.0000
  V   V8        1.0  0.0012819693178848038  0.009165659668494381  0.9993760246229856  1.0000
  V   V9        1.0  0.0025319692160407324  0.005884409816902443  0.99942347526238  1.0000
  V   V10       1.0  0.007531969374464843  0.0027594097705249242  0.9996132785862187  1.0000
  V   V11       1.0  0.0025504111970214385  0.009699721849157333  0.999799658022131  1.0000
  V   V12       1.0  0.007627434611942042  0.006685299954361553  0.9999912102213943  1.0000
  V   V13       1.0  0.0025319692160407324  0.007759409798351436  0.9996132786753515  1.0000
  V   V14       1.0  0.007513675350287477  0.004699183610217266  0.9997996446453752  1.0000
  V   V15       1.0  0.0024374033182916733  0.0016861677658682947  0.9999911892839953  1.0000
  V   V16       1.0  0.007531969374464843  0.0008844095571883345  0.9994234754680638  1.0000
  V   V17       1.0  0.008781968989720574  0.004165659872555467  0.9993760245354905  1.0000
  V   V18       1.0  0.003781969397096859  0.00104065959429035  0.9995658278576914  1.0000
  V   V19       1.0  0.008770798958318924  0.007896549051001678  0.9997520664170128  1.0000
  V   V20       1.0  0.00396463494277866  0.00474090853694227  0.9999444079969366  1.0000
  V   V21       1.0  0.0012819693178848038  0.0026031597334229086  0.999470926196591  1.0000
  V   V22       1.0  0.006281969193408717  0.009478159742698413  0.999660729402241  1.0000
  V   V23       1.0  0.0013359612449451845  0.006282456472212134  0.9998524527513268  1.0000
  V   V24       1.0  0.0063983458476913856  0.0031887294828821986  2.2520233177879723e-05  1.0000
