data_image0
_chemical_formula_structural       COAl8Ca4Zn8
_chemical_formula_sum              "C1 O1 Al8 Ca4 Zn8"
_cell_length_a       5.925896167755127
_cell_length_b       6.450345011055638
_cell_length_c       105.55538177490234
_cell_angle_alpha    90.0
_cell_angle_beta     90.0
_cell_angle_gamma    117.34499317108799

_space_group_name_H-M_alt    "P 1"
_space_group_IT_number       1

loop_
  _space_group_symop_operation_xyz
  'x, y, z'

loop_
  _atom_site_type_symbol
  _atom_site_label
  _atom_site_symmetry_multiplicity
  _atom_site_fract_x
  _atom_site_fract_y
  _atom_site_fract_z
  _atom_site_occupancy
  C   C1        1.0  0.0049999969508198756  0.009999998751639929  3.7878500407109174e-05  1.0000
  O   O1        1.0  0.0049999969508198756  0.009999998751639929  0.00015156312848495755  1.0000
  Al  Al1       1.0  0.005000005542342719  0.005000005552601565  0.0  1.0000
  Al  Al2       1.0  0.009999998458425413  0.005000002951851418  0.9997337702709833  1.0000
  Al  Al3       1.0  0.009999989114903561  0.0050000081533517135  0.9999998537487834  1.0000
  Al  Al4       1.0  0.00499999753886295  0.004999996775069816  0.9997336646764756  1.0000
  Al  Al5       1.0  0.005000001863003898  0.005000001651476344  0.9994526426815575  1.0000
  Al  Al6       1.0  1.6744101298442996e-09  0.005000001651476344  0.9991719419875746  1.0000
  Al  Al7       1.0  1.6744101298442996e-09  0.005000001651476344  0.9994526426815575  1.0000
  Al  Al8       1.0  0.005000001863003898  0.005000001651476344  0.9991719419875746  1.0000
  Ca  Ca1       1.0  0.0049999969508198756  0.009999998751639929  0.9998737891528624  1.0000
  Ca  Ca2       1.0  1.7000000023571762e-09  1.5500000039625407e-09  0.999592993028549  1.0000
  Ca  Ca3       1.0  0.005000001906562613  1.5500000039625407e-09  0.9993122926169044  1.0000
  Ca  Ca4       1.0  1.7000000023571762e-09  1.5500000039625407e-09  0.9990315916405831  1.0000
  Zn  Zn1       1.0  0.008931638892290176  0.007865697694087534  0.9998768090428471  1.0000
  Zn  Zn2       1.0  0.0039061156859923098  0.007812229521984619  0.999592993028549  1.0000
  Zn  Zn3       1.0  0.006093888022046644  0.002187773780968068  0.999592993028549  1.0000
  Zn  Zn4       1.0  0.001068344017848313  0.0021342683856286626  0.9998768084781706  1.0000
  Zn  Zn5       1.0  0.00890611589255492  0.007812229521984619  0.9993122926169044  1.0000
  Zn  Zn6       1.0  0.0039061156859923098  0.007812229521984619  0.9990315916405831  1.0000
  Zn  Zn7       1.0  0.006093888022046644  0.002187773780968068  0.9990315916405831  1.0000
  Zn  Zn8       1.0  0.0010938878154840342  0.002187773780968068  0.9993122926169044  1.0000
