data_image0
_chemical_formula_structural       CORh12Sn4
_chemical_formula_sum              "C1 O1 Rh12 Sn4"
_cell_length_a       4.79040002822876
_cell_length_b       4.790399877277812
_cell_length_c       104.35881042480469
_cell_angle_alpha    90.0
_cell_angle_beta     90.0
_cell_angle_gamma    106.58893823246537

_space_group_name_H-M_alt    "P 1"
_space_group_IT_number       1

loop_
  _space_group_symop_operation_xyz
  'x, y, z'

loop_
  _atom_site_type_symbol
  _atom_site_label
  _atom_site_symmetry_multiplicity
  _atom_site_fract_x
  _atom_site_fract_y
  _atom_site_fract_z
  _atom_site_occupancy
  C   C1        1.0  0.004999999447351701  0.004999999480684097  0.00015086783798507996  1.0000
  O   O1        1.0  0.004999999447351701  0.004999999480684097  0.0002658553954821714  1.0000
  Rh  Rh1       1.0  0.004999999677435177  4.5000000299502966e-10  0.9990410465154193  1.0000
  Rh  Rh2       1.0  0.9999999999356449  0.005000000292115196  0.9993154109193335  1.0000
  Rh  Rh3       1.0  0.9999999999356449  0.005000000292115196  0.9990410465154193  1.0000
  Rh  Rh4       1.0  0.004999999677435177  4.5000000299502966e-10  0.9993154109193335  1.0000
  Rh  Rh5       1.0  4.99999934571563e-11  4.5000000299502966e-10  0.9991782287173764  1.0000
  Rh  Rh6       1.0  0.004999999679017986  0.005000000292115196  0.9994525928357151  1.0000
  Rh  Rh7       1.0  0.004999999677435177  4.5000000299502966e-10  0.9995897753232478  1.0000
  Rh  Rh8       1.0  0.009999999070814218  0.005000001103546294  0.9998636125547373  1.0000
  Rh  Rh9       1.0  0.9999999999356449  0.005000000292115196  0.9995897753232478  1.0000
  Rh  Rh10      1.0  0.004999999734573454  0.009999998961368195  0.9998636136970394  1.0000
  Rh  Rh11      1.0  0.009999998348712232  0.009999999772799292  0.9997277008783042  1.0000
  Rh  Rh12      1.0  0.004999999447351701  0.004999999480684097  0.9999848970526266  1.0000
  Sn  Sn1       1.0  0.004999999679017986  0.005000000292115196  0.9991782287173764  1.0000
  Sn  Sn2       1.0  4.99999934571563e-11  4.5000000299502966e-10  0.9994525928357151  1.0000
  Sn  Sn3       1.0  0.004999998711023546  0.004999998263537449  0.999724137466866  1.0000
  Sn  Sn4       1.0  0.009999999454796512  1.249999970702256e-09  0.0  1.0000
