data_image0
_chemical_formula_structural       HCu3Ru9Cu3Ru9
_chemical_formula_sum              "H1 Cu6 Ru18"
_cell_length_a       7.443728555235538
_cell_length_b       4.728821785322557
_cell_length_c       100.35743713378906
_cell_angle_alpha    86.36466795496685
_cell_angle_beta     86.48552538127468
_cell_angle_gamma    66.82569003789793

_space_group_name_H-M_alt    "P 1"
_space_group_IT_number       1

loop_
  _space_group_symop_operation_xyz
  'x, y, z'

loop_
  _atom_site_type_symbol
  _atom_site_label
  _atom_site_symmetry_multiplicity
  _atom_site_fract_x
  _atom_site_fract_y
  _atom_site_fract_z
  _atom_site_occupancy
  H   H1        1.0  0.007800784200824406  0.0014695315338176568  8.452984015223583e-05  1.0000
  Cu  Cu1       1.0  0.0009027777518025576  0.002083333319038095  0.9992202851382681  1.0000
  Cu  Cu2       1.0  0.004791666729589642  0.005416666843927618  0.9995563885155182  1.0000
  Cu  Cu3       1.0  0.003680555781971812  0.008749999725531428  0.9998924923100975  1.0000
  Ru  Ru1       1.0  0.004374999893365421  0.007916666826773333  0.9993043112083614  1.0000
  Ru  Ru2       1.0  0.002430555440508343  0.006250000171542857  0.9991362592222904  1.0000
  Ru  Ru3       1.0  0.003958333377524292  0.0004166666906111904  0.9990522333299369  1.0000
  Ru  Ru4       1.0  0.0032638889155330504  0.0012499999914228571  0.9996404144320657  1.0000
  Ru  Ru5       1.0  0.0013194443863347573  0.00958333348200381  0.9994723627191111  1.0000
  Ru  Ru6       1.0  0.0028472222767325635  0.0037500001886971424  0.9993883368264089  1.0000
  Ru  Ru7       1.0  0.0021527776639357313  0.004583333087455238  0.9999765182273865  1.0000
  Ru  Ru8       1.0  0.0002083333458269836  0.0029166666466533334  0.9998084662400623  1.0000
  Ru  Ru9       1.0  0.0017361110784131222  0.007083333070300952  0.9997244403251664  1.0000
  Cu  Cu4       1.0  0.0059027778370411045  0.002083333319038095  0.9992202853160576  1.0000
  Cu  Cu5       1.0  0.009791666188074161  0.005416666843927618  0.9995563886961574  1.0000
  Cu  Cu6       1.0  0.008680555741859552  0.008749999725531428  0.9998924918945333  1.0000
  Ru  Ru10      1.0  0.00937499935184994  0.007916666826773333  0.9993043110920389  1.0000
  Ru  Ru11      1.0  0.007430555149694473  0.006250000171542857  0.9991362594017897  1.0000
  Ru  Ru12      1.0  0.008958333588113645  0.0004166666906111904  0.9990522335071563  1.0000
  Ru  Ru13      1.0  0.008263888875420792  0.0012499999914228571  0.9996404146104252  1.0000
  Ru  Ru14      1.0  0.00631944459692411  0.00958333348200381  0.9994723628963307  1.0000
  Ru  Ru15      1.0  0.007847221985918694  0.0037500001886971424  0.9993883370059083  1.0000
  Ru  Ru16      1.0  0.007152777874525084  0.004583333087455238  0.9999765178106826  1.0000
  Ru  Ru17      1.0  0.005208333117688517  0.0029166666466533334  0.9998084664192767  1.0000
  Ru  Ru18      1.0  0.006736111539704087  0.007083333070300952  0.999724440501246  1.0000
