data_image0
_chemical_formula_structural       COVPt3VPt3VPt3VPt3VPt3VPt3VPt3VPt3
_chemical_formula_sum              "C1 O1 V8 Pt24"
_cell_length_a       7.858160972595215
_cell_length_b       7.858160972595215
_cell_length_c       101.4326400756836
_cell_angle_alpha    90.0
_cell_angle_beta     90.0
_cell_angle_gamma    90.0

_space_group_name_H-M_alt    "P 1"
_space_group_IT_number       1

loop_
  _space_group_symop_operation_xyz
  'x, y, z'

loop_
  _atom_site_type_symbol
  _atom_site_label
  _atom_site_symmetry_multiplicity
  _atom_site_fract_x
  _atom_site_fract_y
  _atom_site_fract_z
  _atom_site_occupancy
  C   C1        1.0  0.003750000075850628  0.003750000075850628  0.0001707587785584317  1.0000
  O   O1        1.0  0.003750000075850628  0.003750000075850628  0.00028906413184255495  1.0000
  V   V1        1.0  0.001249999985778007  0.001249999985778007  0.999806320796934  1.0000
  Pt  Pt1       1.0  0.001249999985778007  0.003750000075850628  0.0  1.0000
  Pt  Pt2       1.0  0.003750000075850628  0.001249999985778007  0.0  1.0000
  Pt  Pt3       1.0  0.003750000075850628  0.003750000075850628  0.999806320796934  1.0000
  V   V2        1.0  0.001249999985778007  0.001249999985778007  0.9994189623908019  1.0000
  Pt  Pt4       1.0  0.001249999985778007  0.003750000075850628  0.9996126415938679  1.0000
  Pt  Pt5       1.0  0.003750000075850628  0.001249999985778007  0.9996126415938679  1.0000
  Pt  Pt6       1.0  0.003750000075850628  0.003750000075850628  0.9994189623908019  1.0000
  V   V3        1.0  0.001249999985778007  0.006249999810373428  0.999806320796934  1.0000
  Pt  Pt7       1.0  0.001249999985778007  0.008749999544896228  0.0  1.0000
  Pt  Pt8       1.0  0.003750000075850628  0.006249999810373428  0.0  1.0000
  Pt  Pt9       1.0  0.003750000075850628  0.008749999544896228  0.999806320796934  1.0000
  V   V4        1.0  0.001249999985778007  0.006249999810373428  0.9994189623908019  1.0000
  Pt  Pt10      1.0  0.001249999985778007  0.008749999544896228  0.9996126415938679  1.0000
  Pt  Pt11      1.0  0.003750000075850628  0.006249999810373428  0.9996126415938679  1.0000
  Pt  Pt12      1.0  0.003750000075850628  0.008749999544896228  0.9994189623908019  1.0000
  V   V5        1.0  0.006249999810373428  0.001249999985778007  0.999806320796934  1.0000
  Pt  Pt13      1.0  0.006249999810373428  0.003750000075850628  0.0  1.0000
  Pt  Pt14      1.0  0.008749999544896228  0.001249999985778007  0.0  1.0000
  Pt  Pt15      1.0  0.008749999544896228  0.003750000075850628  0.999806320796934  1.0000
  V   V6        1.0  0.006249999810373428  0.001249999985778007  0.9994189623908019  1.0000
  Pt  Pt16      1.0  0.006249999810373428  0.003750000075850628  0.9996126415938679  1.0000
  Pt  Pt17      1.0  0.008749999544896228  0.001249999985778007  0.9996126415938679  1.0000
  Pt  Pt18      1.0  0.008749999544896228  0.003750000075850628  0.9994189623908019  1.0000
  V   V7        1.0  0.006249999810373428  0.006249999810373428  0.999806320796934  1.0000
  Pt  Pt19      1.0  0.006249999810373428  0.008749999544896228  0.0  1.0000
  Pt  Pt20      1.0  0.008749999544896228  0.006249999810373428  0.0  1.0000
  Pt  Pt21      1.0  0.008749999544896228  0.008749999544896228  0.999806320796934  1.0000
  V   V8        1.0  0.006249999810373428  0.006249999810373428  0.9994189623908019  1.0000
  Pt  Pt22      1.0  0.006249999810373428  0.008749999544896228  0.9996126415938679  1.0000
  Pt  Pt23      1.0  0.008749999544896228  0.006249999810373428  0.9996126415938679  1.0000
  Pt  Pt24      1.0  0.008749999544896228  0.008749999544896228  0.9994189623908019  1.0000
