data_image0
_chemical_formula_structural       CONa12
_chemical_formula_sum              "C1 O1 Na12"
_cell_length_a       7.278446910264255
_cell_length_b       9.076620944906312
_cell_length_c       99.60465240478516
_cell_angle_alpha    93.45937725941015
_cell_angle_beta     88.44620185455074
_cell_angle_gamma    75.7925865971067

_space_group_name_H-M_alt    "P 1"
_space_group_IT_number       1

loop_
  _space_group_symop_operation_xyz
  'x, y, z'

loop_
  _atom_site_type_symbol
  _atom_site_label
  _atom_site_symmetry_multiplicity
  _atom_site_fract_x
  _atom_site_fract_y
  _atom_site_fract_z
  _atom_site_occupancy
  C   C1        1.0  0.0028979059636178436  0.007101964657258573  0.00020605588062906359  1.0000
  O   O1        1.0  0.0028979059636178436  0.007101964657258573  0.0003265318265244764  1.0000
  Na  Na1       1.0  0.0030208333535350243  0.0019444444859405517  4.706259722956019e-06  1.0000
  Na  Na2       1.0  0.009270833085995403  0.005277778011664927  0.999880863937918  1.0000
  Na  Na3       1.0  0.005520833156384465  0.008611111537389303  0.9997570218458322  1.0000
  Na  Na4       1.0  0.00822916688269121  0.0013888889336858227  0.9999015044628218  1.0000
  Na  Na5       1.0  0.004479166408353363  0.004722222565508199  0.9997776620731926  1.0000
  Na  Na6       1.0  0.001979166212495583  0.008055556091232575  2.5346969765581115e-05  1.0000
  Na  Na7       1.0  0.0017708333637752875  0.0019444444859405517  0.9996331792715715  1.0000
  Na  Na8       1.0  0.008020832840229088  0.005277778011664927  0.9995093369502737  1.0000
  Na  Na9       1.0  0.00427083291061815  0.008611111537389303  0.9993854948581878  1.0000
  Na  Na10      1.0  0.006979166636924895  0.0013888889336858227  0.9995299774751776  1.0000
  Na  Na11      1.0  0.003229166674600204  0.004722222565508199  0.9994061350845338  1.0000
  Na  Na12      1.0  0.0007291664787424238  0.008055556091232575  0.9996538196819007  1.0000
