data_image0
_chemical_formula_structural       COSn8Ru4Sn8Ru4
_chemical_formula_sum              "C1 O1 Sn16 Ru8"
_cell_length_a       6.47221565246582
_cell_length_b       5.82962703704834
_cell_length_c       108.83329772949219
_cell_angle_alpha    90.0
_cell_angle_beta     90.0
_cell_angle_gamma    90.0

_space_group_name_H-M_alt    "P 1"
_space_group_IT_number       1

loop_
  _space_group_symop_operation_xyz
  'x, y, z'

loop_
  _atom_site_type_symbol
  _atom_site_label
  _atom_site_symmetry_multiplicity
  _atom_site_fract_x
  _atom_site_fract_y
  _atom_site_fract_z
  _atom_site_occupancy
  C   C1        1.0  0.008345722542256002  0.009375039747492436  0.00012449342351818064  1.0000
  O   O1        1.0  0.008345722542256002  0.009375039747492436  0.00023475401994448229  1.0000
  Sn  Sn1       1.0  0.0066303169034319055  0.005624960968218038  0.9989343567775123  1.0000
  Sn  Sn2       1.0  0.008369684593081083  0.005624960968218038  0.9992317022669754  1.0000
  Sn  Sn3       1.0  0.0066303169034319055  0.0006249606231433448  0.9993351405482146  1.0000
  Sn  Sn4       1.0  0.008369684593081083  0.0006249606231433448  0.9990377953325861  1.0000
  Sn  Sn5       1.0  0.001630316644420042  0.0006249606231433448  0.9992317022669754  1.0000
  Sn  Sn6       1.0  0.0033696844779646986  0.0006249606231433448  0.9989343567775123  1.0000
  Sn  Sn7       1.0  0.001630316644420042  0.005624960968218038  0.9990377953325861  1.0000
  Sn  Sn8       1.0  0.0033696844779646986  0.005624960968218038  0.9993351405482146  1.0000
  Ru  Ru1       1.0  0.005000000690698302  0.008124960661484977  0.9991347489366981  1.0000
  Ru  Ru2       1.0  0.005000000690698302  0.003124960635923889  0.9991347489366981  1.0000
  Ru  Ru3       1.0  5.500000205710814e-10  0.003124960635923889  0.9994320944261611  1.0000
  Ru  Ru4       1.0  5.500000205710814e-10  0.008124960661484977  0.9994320944261611  1.0000
  Sn  Sn9       1.0  0.0066303169034319055  0.005624960968218038  0.9995290477564385  1.0000
  Sn  Sn10      1.0  0.00828689576791653  0.0056248817288440485  0.9998259178690386  1.0000
  Sn  Sn11      1.0  0.0066914437031154  0.0006251137100992432  0.9999307138222171  1.0000
  Sn  Sn12      1.0  0.008369684593081083  0.0006249606231433448  0.9996324860376776  1.0000
  Sn  Sn13      1.0  0.0017130978431241814  0.0006250418195381639  0.9998259173213694  1.0000
  Sn  Sn14      1.0  0.0033696844779646986  0.0006249606231433448  0.9995290477564385  1.0000
  Sn  Sn15      1.0  0.001630316644420042  0.005624960968218038  0.9996324860376776  1.0000
  Sn  Sn16      1.0  0.00330855048350723  0.005624806323633316  0.9999307138222171  1.0000
  Ru  Ru5       1.0  0.005000000690698302  0.008124960661484977  0.999729439367955  1.0000
  Ru  Ru6       1.0  0.005000000690698302  0.003124960635923889  0.999729439367955  1.0000
  Ru  Ru7       1.0  0.010000000230232769  0.0031249568017606313  0.0  1.0000
  Ru  Ru8       1.0  1.6500000617132442e-09  0.008124965134675444  0.9999999791885705  1.0000
