data_image0
_chemical_formula_structural       HNa6
_chemical_formula_sum              "H1 Na6"
_cell_length_a       6.054439067840576
_cell_length_b       6.054439081113749
_cell_length_c       99.66057586669922
_cell_angle_alpha    90.0
_cell_angle_beta     90.0
_cell_angle_gamma    60.00000007252084

_space_group_name_H-M_alt    "P 1"
_space_group_IT_number       1

loop_
  _space_group_symop_operation_xyz
  'x, y, z'

loop_
  _atom_site_type_symbol
  _atom_site_label
  _atom_site_symmetry_multiplicity
  _atom_site_fract_x
  _atom_site_fract_y
  _atom_site_fract_z
  _atom_site_occupancy
  H   H1        1.0  0.001666667664823535  0.004999999275304195  0.0002443889949414023  1.0000
  Na  Na1       1.0  0.00833333317734205  0.006666667831863844  0.999641389165886  1.0000
  Na  Na2       1.0  0.0016666678072941755  0.009999999261094473  0.00012076419760798505  1.0000
  Na  Na3       1.0  0.0050000087260657486  0.0033333371131192974  0.9999004005322861  1.0000
  Na  Na4       1.0  0.008333324563156063  0.006666667831863844  0.0  1.0000
  Na  Na5       1.0  0.001666666717109845  9.000000150370147e-10  0.9997653958350414  1.0000
  Na  Na6       1.0  0.00500000030225393  0.0033333342711749634  0.9995173824967306  1.0000
