data_image0
_chemical_formula_structural       COSi4Rh4Si4Rh4
_chemical_formula_sum              "C1 O1 Si8 Rh8"
_cell_length_a       4.632179944370944
_cell_length_b       4.612964153289795
_cell_length_c       103.4458236694336
_cell_angle_alpha    90.0
_cell_angle_beta     66.34611220566116
_cell_angle_gamma    90.0

_space_group_name_H-M_alt    "P 1"
_space_group_IT_number       1

loop_
  _space_group_symop_operation_xyz
  'x, y, z'

loop_
  _atom_site_type_symbol
  _atom_site_label
  _atom_site_symmetry_multiplicity
  _atom_site_fract_x
  _atom_site_fract_y
  _atom_site_fract_z
  _atom_site_occupancy
  C   C1        1.0  0.0037248776485437176  0.007343894732650224  3.500933462760464e-05  1.0000
  O   O1        1.0  0.0037248776485437176  0.007343894732650224  0.00015101174331252936  1.0000
  Si  Si1       1.0  0.007302168159340292  0.0035292433313086806  0.9991276261693163  1.0000
  Si  Si2       1.0  0.0077139920957955835  0.008529243185946125  0.9993345570046817  1.0000
  Si  Si3       1.0  0.0027139918411805976  0.006470756781751084  0.9990651257167372  1.0000
  Si  Si4       1.0  0.0023021681242209836  0.0014707567252212018  0.9993970573126562  1.0000
  Rh  Rh1       1.0  0.006818210480326501  0.0035633550774610565  0.998890937407651  1.0000
  Rh  Rh2       1.0  0.008197950213800731  0.008563354932098501  0.9990323833232324  1.0000
  Rh  Rh3       1.0  0.003197949520194389  0.006436645035598708  0.9993018141903065  1.0000
  Rh  Rh4       1.0  0.0018182103354593532  0.001436644777176389  0.9991603682648666  1.0000
  Si  Si5       1.0  0.0072761965527673505  0.0035446941595108665  0.9996671346873094  1.0000
  Si  Si6       1.0  0.007788770761270854  0.00828532401171294  0.9998600690115261  1.0000
  Si  Si7       1.0  0.0027139918411805976  0.006470756781751084  0.9996039875757731  1.0000
  Si  Si8       1.0  0.00289200239683661  0.0014766207919995448  0.9999156489681182  1.0000
  Rh  Rh5       1.0  0.006818210480326501  0.0035633550774610565  0.9994297995547828  1.0000
  Rh  Rh6       1.0  0.008197950213800731  0.008563354932098501  0.9995712457584601  1.0000
  Rh  Rh7       1.0  0.002936570116219063  0.0064024654535875065  0.9998443638746344  1.0000
  Rh  Rh8       1.0  0.0018020505149249195  0.0014418361383547098  0.9996980897624839  1.0000
