data_image0
_chemical_formula_structural       COIn4Na12
_chemical_formula_sum              "C1 O1 In4 Na12"
_cell_length_a       6.217032974542501
_cell_length_b       7.067938804626465
_cell_length_c       104.89832305908203
_cell_angle_alpha    90.0
_cell_angle_beta     91.25149597689673
_cell_angle_gamma    90.0

_space_group_name_H-M_alt    "P 1"
_space_group_IT_number       1

loop_
  _space_group_symop_operation_xyz
  'x, y, z'

loop_
  _atom_site_type_symbol
  _atom_site_label
  _atom_site_symmetry_multiplicity
  _atom_site_fract_x
  _atom_site_fract_y
  _atom_site_fract_z
  _atom_site_occupancy
  C   C1        1.0  0.007544945933061669  0.010000000126496522  0.00014634580160925948  1.0000
  O   O1        1.0  0.007544945933061669  0.010000000126496522  0.0002607419555619927  1.0000
  In  In1       1.0  0.007497966477132675  0.005000000063248261  0.9991692000875239  1.0000
  In  In2       1.0  0.0008313001960478875  1.0000000293173918e-10  0.9994464394601361  1.0000
  In  In3       1.0  0.00748408313209875  0.010000000126496522  0.999981189059111  1.0000
  In  In4       1.0  0.004092009264436933  0.005000000590317099  0.9997329260461904  1.0000
  Na  Na1       1.0  0.00583129979448334  0.0025000000316241304  0.9994464394979707  1.0000
  Na  Na2       1.0  0.009168699750010606  0.007466004945373067  0.9997246427870501  1.0000
  Na  Na3       1.0  0.0024979668786972225  0.00750000035840681  0.999169200333796  1.0000
  Na  Na4       1.0  0.002548639679598384  0.002360448278709549  3.2990990642491394e-06  1.0000
  Na  Na5       1.0  0.00583129979448334  0.00750000035840681  0.9994464394979707  1.0000
  Na  Na6       1.0  0.009168699750010606  0.0025339957081922924  0.9997246427870501  1.0000
  Na  Na7       1.0  0.0024979668786972225  0.0025000000316241304  0.999169200333796  1.0000
  Na  Na8       1.0  0.002548639379923349  0.007639551847786972  3.2990986763333284e-06  1.0000
  Na  Na9       1.0  0.0008313001960478875  0.005000000063248261  0.9994464394601361  1.0000
  Na  Na10      1.0  0.004117531388490622  4.999999910968827e-10  0.9997195929969346  1.0000
  Na  Na11      1.0  0.007497966477132675  1.0000000293173918e-10  0.9991692000875239  1.0000
  Na  Na12      1.0  0.007410919869638195  0.005000000063248261  6.63057783410202e-07  1.0000
