data_image0
_chemical_formula_structural       HPt24
_chemical_formula_sum              "H1 Pt24"
_cell_length_a       5.642512798309326
_cell_length_b       5.642512438941094
_cell_length_c       104.55319213867188
_cell_angle_alpha    90.0
_cell_angle_beta     90.0
_cell_angle_gamma    120.00000210682842

_space_group_name_H-M_alt    "P 1"
_space_group_IT_number       1

loop_
  _space_group_symop_operation_xyz
  'x, y, z'

loop_
  _atom_site_type_symbol
  _atom_site_label
  _atom_site_symmetry_multiplicity
  _atom_site_fract_x
  _atom_site_fract_y
  _atom_site_fract_z
  _atom_site_occupancy
  H   H1        1.0  0.002499999181839969  0.002500000007623545  0.00011783971624043089  1.0000
  Pt  Pt1       1.0  0.0016666674967489793  0.0033333333434980602  0.9989021296461631  1.0000
  Pt  Pt2       1.0  7.999999880837795e-10  5.000000491990571e-11  0.9993427755260218  1.0000
  Pt  Pt3       1.0  0.003333334097989328  0.0016666668623376575  0.9991224525860924  1.0000
  Pt  Pt4       1.0  0.0016666674967489793  0.0033333333434980602  0.9995630984659511  1.0000
  Pt  Pt5       1.0  0.009999999038123982  0.01000000003049418  0.0  1.0000
  Pt  Pt6       1.0  0.0033333319778138487  0.0016666672435149126  0.9997796263221326  1.0000
  Pt  Pt7       1.0  0.0016666678536864932  0.008333333739922405  0.9989021296461631  1.0000
  Pt  Pt8       1.0  1.0168828843632995e-09  0.005000000396424345  0.9993427755260218  1.0000
  Pt  Pt9       1.0  0.0033333340684980036  0.0066666666869961205  0.9991224525860924  1.0000
  Pt  Pt10      1.0  0.0016666678536864932  0.008333333739922405  0.9995630984659511  1.0000
  Pt  Pt11      1.0  0.009999998872048041  0.00500000001524709  0.0  1.0000
  Pt  Pt12      1.0  0.0033333322496753672  0.00666666744935063  0.9997796263221326  1.0000
  Pt  Pt13      1.0  0.006666667345171712  0.0033333333434980602  0.9989021296461631  1.0000
  Pt  Pt14      1.0  0.005000000698422684  5.000000491990571e-11  0.9993427755260218  1.0000
  Pt  Pt15      1.0  0.008333333616029958  0.0016666668623376575  0.9991224525860924  1.0000
  Pt  Pt16      1.0  0.006666667345171712  0.0033333333434980602  0.9995630984659511  1.0000
  Pt  Pt17      1.0  0.004999999240247104  0.01000000003049418  0.0  1.0000
  Pt  Pt18      1.0  0.008333331825963637  0.0016666672435149126  0.9997796263221326  1.0000
  Pt  Pt19      1.0  0.006666667536781702  0.008333333739922405  0.9989021296461631  1.0000
  Pt  Pt20      1.0  0.0050000008650326715  0.005000000396424345  0.9993427755260218  1.0000
  Pt  Pt21      1.0  0.008333334016920742  0.0066666666869961205  0.9991224525860924  1.0000
  Pt  Pt22      1.0  0.006666667536781702  0.008333333739922405  0.9995630984659511  1.0000
  Pt  Pt23      1.0  0.004999999188952833  0.00500000001524709  0.0  1.0000
  Pt  Pt24      1.0  0.00833333208733389  0.00666666744935063  0.9997796263221326  1.0000
