data_image0
_chemical_formula_structural       COCo4Si8Co4Si8Co4Si8Co4Si8
_chemical_formula_sum              "C1 O1 Co16 Si32"
_cell_length_a       7.613155841827393
_cell_length_b       7.613155841827393
_cell_length_c       102.29988861083984
_cell_angle_alpha    90.0
_cell_angle_beta     90.0
_cell_angle_gamma    90.0

_space_group_name_H-M_alt    "P 1"
_space_group_IT_number       1

loop_
  _space_group_symop_operation_xyz
  'x, y, z'

loop_
  _atom_site_type_symbol
  _atom_site_label
  _atom_site_symmetry_multiplicity
  _atom_site_fract_x
  _atom_site_fract_y
  _atom_site_fract_z
  _atom_site_occupancy
  C   C1        1.0  0.0037499997064063544  3.499999989987759e-10  0.0001693111689609939  1.0000
  O   O1        1.0  0.0037499997064063544  3.499999989987759e-10  0.0002866135871908367  1.0000
  Co  Co1       1.0  0.001250000024466137  3.499999989987759e-10  0.9996052035734243  1.0000
  Co  Co2       1.0  0.0037499997064063544  0.0024999995596095316  0.9998667342402677  1.0000
  Co  Co3       1.0  0.001250000024466137  3.499999989987759e-10  0.9990789749748129  1.0000
  Co  Co4       1.0  0.0037500001957290973  0.0025000002935936455  0.9993420892741186  1.0000
  Si  Si1       1.0  0.0037499997064063544  3.499999989987759e-10  0.0  1.0000
  Si  Si2       1.0  0.0012500002691275085  0.00250000102757776  0.0  1.0000
  Si  Si3       1.0  0.0012500002691275085  0.002500000538255017  0.9997376361490429  1.0000
  Si  Si4       1.0  0.0037500001957290973  0.010000000195729096  0.9997376361490429  1.0000
  Si  Si5       1.0  0.0037500001957290973  3.499999989987759e-10  0.9994736464237715  1.0000
  Si  Si6       1.0  0.001250000024466137  0.0025000002935936455  0.9994736464237715  1.0000
  Si  Si7       1.0  0.001250000024466137  0.0025000002935936455  0.9992105321244658  1.0000
  Si  Si8       1.0  0.0037500001957290973  3.499999989987759e-10  0.9992105321244658  1.0000
  Co  Co5       1.0  0.001250000024466137  0.005000000587187291  0.9996052035734243  1.0000
  Co  Co6       1.0  0.0037499997064063544  0.007499999902135452  0.9998667342402677  1.0000
  Co  Co7       1.0  0.001250000024466137  0.005000000587187291  0.9990789749748129  1.0000
  Co  Co8       1.0  0.0037500001957290973  0.007500000391458195  0.9993420892741186  1.0000
  Si  Si9       1.0  0.0037499997064063544  0.005000000587187291  0.0  1.0000
  Si  Si10      1.0  0.0012500002691275085  0.00750000137010368  0.0  1.0000
  Si  Si11      1.0  0.0012500002691275085  0.0075000008807809375  0.9997376361490429  1.0000
  Si  Si12      1.0  0.0037500001957290973  0.004999999608541806  0.9997376361490429  1.0000
  Si  Si13      1.0  0.0037500001957290973  0.005000000587187291  0.9994736464237715  1.0000
  Si  Si14      1.0  0.001250000024466137  0.007500000391458195  0.9994736464237715  1.0000
  Si  Si15      1.0  0.001250000024466137  0.007500000391458195  0.9992105321244658  1.0000
  Si  Si16      1.0  0.0037500001957290973  0.005000000587187291  0.9992105321244658  1.0000
  Co  Co9       1.0  0.00625  3.499999989987759e-10  0.9996052035734243  1.0000
  Co  Co10      1.0  0.008749999804270903  0.0024999995596095316  0.9998667342402677  1.0000
  Co  Co11      1.0  0.00625  3.499999989987759e-10  0.9990789749748129  1.0000
  Co  Co12      1.0  0.008749999804270903  0.0025000002935936455  0.9993420892741186  1.0000
  Si  Si17      1.0  0.008749999804270903  3.499999989987759e-10  0.0  1.0000
  Si  Si18      1.0  0.006250000489322743  0.00250000102757776  0.0  1.0000
  Si  Si19      1.0  0.006250000489322743  0.002500000538255017  0.9997376361490429  1.0000
  Si  Si20      1.0  0.008749999804270903  0.010000000195729096  0.9997376361490429  1.0000
  Si  Si21      1.0  0.008749999804270903  3.499999989987759e-10  0.9994736464237715  1.0000
  Si  Si22      1.0  0.00625  0.0025000002935936455  0.9994736464237715  1.0000
  Si  Si23      1.0  0.00625  0.0025000002935936455  0.9992105321244658  1.0000
  Si  Si24      1.0  0.008749999804270903  3.499999989987759e-10  0.9992105321244658  1.0000
  Co  Co13      1.0  0.00625  0.005000000587187291  0.9996052035734243  1.0000
  Co  Co14      1.0  0.008749999804270903  0.007499999902135452  0.9998667342402677  1.0000
  Co  Co15      1.0  0.00625  0.005000000587187291  0.9990789749748129  1.0000
  Co  Co16      1.0  0.008749999804270903  0.007500000391458195  0.9993420892741186  1.0000
  Si  Si25      1.0  0.008749999804270903  0.005000000587187291  0.0  1.0000
  Si  Si26      1.0  0.006250000489322743  0.00750000137010368  0.0  1.0000
  Si  Si27      1.0  0.006250000489322743  0.0075000008807809375  0.9997376361490429  1.0000
  Si  Si28      1.0  0.008749999804270903  0.004999999608541806  0.9997376361490429  1.0000
  Si  Si29      1.0  0.008749999804270903  0.005000000587187291  0.9994736464237715  1.0000
  Si  Si30      1.0  0.00625  0.007500000391458195  0.9994736464237715  1.0000
  Si  Si31      1.0  0.00625  0.007500000391458195  0.9992105321244658  1.0000
  Si  Si32      1.0  0.008749999804270903  0.005000000587187291  0.9992105321244658  1.0000
