data_image0
_chemical_formula_structural       HSn8V24
_chemical_formula_sum              "H1 Sn8 V24"
_cell_length_a       7.046857833862305
_cell_length_b       8.630602983265888
_cell_length_c       102.67493438720703
_cell_angle_alpha    95.05115246010523
_cell_angle_beta     90.0
_cell_angle_gamma    90.0

_space_group_name_H-M_alt    "P 1"
_space_group_IT_number       1

loop_
  _space_group_symop_operation_xyz
  'x, y, z'

loop_
  _atom_site_type_symbol
  _atom_site_label
  _atom_site_symmetry_multiplicity
  _atom_site_fract_x
  _atom_site_fract_y
  _atom_site_fract_z
  _atom_site_occupancy
  H   H1        1.0  0.004163446122505571  0.0011421876320759719  0.9999708286331904  1.0000
  Sn  Sn1       1.0  0.00032136005114404996  0.005233657283222355  0.99965084825964  1.0000
  Sn  Sn2       1.0  0.005443310834233526  0.002163264457805464  0.999857280136399  1.0000
  Sn  Sn3       1.0  0.0009640305598679879  0.008897579507100515  6.584968799690504e-05  1.0000
  Sn  Sn4       1.0  0.0053213602269187085  0.008358657543214425  0.9994519501560224  1.0000
  Sn  Sn5       1.0  0.009678640069122823  0.003897718360199088  6.588697478101804e-05  1.0000
  Sn  Sn6       1.0  0.0053213602269187085  0.0033586575172152187  0.9994519501326092  1.0000
  Sn  Sn7       1.0  0.00032136005114404996  0.00023365739263568508  0.99965084794697  1.0000
  Sn  Sn8       1.0  0.005198826523521058  0.007163419395746812  0.9998572757913721  1.0000
  V   V1        1.0  0.009071360565251884  0.007577407369886379  0.9995016744634307  1.0000
  V   V2        1.0  0.004071360026033385  0.004452407543214426  0.9997005725702554  1.0000
  V   V3        1.0  0.009104132362502074  0.001059814019317397  0.9998972008669527  1.0000
  V   V4        1.0  0.004071360026033385  0.0007024074153849912  0.9993027766020433  1.0000
  V   V5        1.0  0.006571360163481238  0.006014907456550402  0.9996011233717136  1.0000
  V   V6        1.0  0.0015273665314529407  0.002840215995380544  0.999810569487703  1.0000
  V   V7        1.0  0.007165254889726392  0.009675485315758774  0.9999815360088106  1.0000
  V   V8        1.0  0.0015713600207469289  0.009139907716542472  0.9994022255583549  1.0000
  V   V9        1.0  0.0028213600894708554  0.0058586574218847925  0.9994519499983846  1.0000
  V   V10       1.0  0.007821360100043768  0.002733657378552781  0.9996508478133467  1.0000
  V   V11       1.0  0.0028835814107776173  0.009766343011435325  0.9998430716271779  1.0000
  V   V12       1.0  0.00823660275056752  0.0067318399247817285  1.5917374105867768e-05  1.0000
  V   V13       1.0  0.0028213600894708554  0.007733657404551988  0.9996508481270189  1.0000
  V   V14       1.0  0.007758564405306364  0.004766514363542739  0.9998430992856769  1.0000
  V   V15       1.0  0.0024062718034586045  0.001732154597518131  1.590197393399541e-05  1.0000
  V   V16       1.0  0.007821360100043768  0.0008586573958855859  0.9994519499749714  1.0000
  V   V17       1.0  0.009071360565251884  0.004139907473883207  0.9994022255333384  1.0000
  V   V18       1.0  0.004071360026033385  0.0010149074305511954  0.9996011236385595  1.0000
  V   V19       1.0  0.009115583883214966  0.0078401856889715  0.9998105370678829  1.0000
  V   V20       1.0  0.003477158156701988  0.004675396242475344  0.9999815634814931  1.0000
  V   V21       1.0  0.0015713600207469289  0.0025774073438871717  0.9995016744400177  1.0000
  V   V22       1.0  0.006571360163481238  0.009452407785873692  0.999700572305013  1.0000
  V   V23       1.0  0.0015391721125479522  0.006059754788790484  0.9998972286069385  1.0000
  V   V24       1.0  0.006571360163481238  0.005702407387219183  0.9993027766250555  1.0000
