data_image0
_chemical_formula_structural       HZnPt3ZnPt3ZnPt3ZnPt3ZnPt3ZnPt3ZnPt3ZnPt3
_chemical_formula_sum              "H1 Zn8 Pt24"
_cell_length_a       7.907701015472412
_cell_length_b       7.907701015472412
_cell_length_c       101.63080596923828
_cell_angle_alpha    90.0
_cell_angle_beta     90.0
_cell_angle_gamma    90.0

_space_group_name_H-M_alt    "P 1"
_space_group_IT_number       1

loop_
  _space_group_symop_operation_xyz
  'x, y, z'

loop_
  _atom_site_type_symbol
  _atom_site_label
  _atom_site_symmetry_multiplicity
  _atom_site_fract_x
  _atom_site_fract_y
  _atom_site_fract_z
  _atom_site_occupancy
  H   H1        1.0  0.0037500000094219305  0.002500000084797371  0.00011570059495743286  1.0000
  Zn  Zn1       1.0  5.000000091730402e-11  0.0012499996890763079  0.9996079012585474  1.0000
  Pt  Pt1       1.0  0.002500000084797371  0.0012499996890763079  0.9994133809931804  1.0000
  Pt  Pt2       1.0  5.000000091730402e-11  0.0037499997738736786  0.9994133809931804  1.0000
  Pt  Pt3       1.0  0.002500000084797371  0.0037499997738736786  0.9996079012585474  1.0000
  Zn  Zn2       1.0  0.010000000339189484  0.0012499998068504336  0.0  1.0000
  Pt  Pt4       1.0  0.002499999849249119  0.0012499999246245595  0.9997995996654668  1.0000
  Pt  Pt5       1.0  5.000000091730402e-11  0.0037499997738736786  0.9997995984925028  1.0000
  Pt  Pt6       1.0  0.002500000084797371  0.003750000244970182  0.9999889448131076  1.0000
  Zn  Zn3       1.0  5.000000091730402e-11  0.006249999623122798  0.9996079012585474  1.0000
  Pt  Pt7       1.0  0.002500000084797371  0.006249999623122798  0.9994133809931804  1.0000
  Pt  Pt8       1.0  5.000000091730402e-11  0.008749999472371917  0.9994133809931804  1.0000
  Pt  Pt9       1.0  0.002500000084797371  0.008749999472371917  0.9996079012585474  1.0000
  Zn  Zn4       1.0  0.010000000339189484  0.006249999623122798  0.0  1.0000
  Pt  Pt10      1.0  0.002499999849249119  0.006250000094219301  0.9997995996654668  1.0000
  Pt  Pt11      1.0  5.000000091730402e-11  0.008749999472371917  0.9997995984925028  1.0000
  Pt  Pt12      1.0  0.002500000084797371  0.008750000414564923  0.9999889448131076  1.0000
  Zn  Zn5       1.0  0.005000000169594742  0.0012499996890763079  0.9996079012585474  1.0000
  Pt  Pt13      1.0  0.007500000018843861  0.0012499996890763079  0.9994133809931804  1.0000
  Pt  Pt14      1.0  0.005000000169594742  0.0037499997738736786  0.9994133809931804  1.0000
  Pt  Pt15      1.0  0.007500000018843861  0.0037499997738736786  0.9996079012585474  1.0000
  Zn  Zn6       1.0  0.005000000169594742  0.0012499998068504336  0.0  1.0000
  Pt  Pt16      1.0  0.007500000018843861  0.0012499999246245595  0.9997995996654668  1.0000
  Pt  Pt17      1.0  0.005000000169594742  0.0037499997738736786  0.9997995984925028  1.0000
  Pt  Pt18      1.0  0.007500000018843861  0.003750000244970182  0.9999889448131076  1.0000
  Zn  Zn7       1.0  0.005000000169594742  0.006249999623122798  0.9996079012585474  1.0000
  Pt  Pt19      1.0  0.007500000018843861  0.006249999623122798  0.9994133809931804  1.0000
  Pt  Pt20      1.0  0.005000000169594742  0.008749999472371917  0.9994133809931804  1.0000
  Pt  Pt21      1.0  0.007500000018843861  0.008749999472371917  0.9996079012585474  1.0000
  Zn  Zn8       1.0  0.005000000169594742  0.006249999623122798  0.0  1.0000
  Pt  Pt22      1.0  0.007500000018843861  0.006250000094219301  0.9997995996654668  1.0000
  Pt  Pt23      1.0  0.005000000169594742  0.008749999472371917  0.9997995984925028  1.0000
  Pt  Pt24      1.0  0.007500000018843861  0.008750000414564923  0.9999889448131076  1.0000
