data_image0
_chemical_formula_structural       COV2Pd6V2Pd6V2Pd6V2Pd6
_chemical_formula_sum              "C1 O1 V8 Pd24"
_cell_length_a       8.99849796295166
_cell_length_b       5.540594972650663
_cell_length_c       108.78416442871094
_cell_angle_alpha    59.99999951056922
_cell_angle_beta     90.0
_cell_angle_gamma    90.0

_space_group_name_H-M_alt    "P 1"
_space_group_IT_number       1

loop_
  _space_group_symop_operation_xyz
  'x, y, z'

loop_
  _atom_site_type_symbol
  _atom_site_label
  _atom_site_symmetry_multiplicity
  _atom_site_fract_x
  _atom_site_fract_y
  _atom_site_fract_z
  _atom_site_occupancy
  C   C1        1.0  0.0012499999461812693  0.0016115536239214685  0.9998486503268192  1.0000
  O   O1        1.0  0.0012499999461812693  0.0016115536239214685  0.9999589601754729  1.0000
  V   V1        1.0  0.0037499997350462486  0.0067497475343732865  0.999834573057407  1.0000
  V   V2        1.0  0.0012499999461812693  0.0034164138594337374  0.9996647996234365  1.0000
  Pd  Pd1       1.0  0.0012499999461812693  0.0034723491599865882  0.9994087156137783  1.0000
  Pd  Pd2       1.0  0.0012499999461812693  0.008388446527472195  0.999667648494915  1.0000
  Pd  Pd3       1.0  0.0012499999461812693  0.008388446527472195  0.9994087151844778  1.0000
  Pd  Pd4       1.0  0.0037499997350462486  0.006693811845631554  0.9995813374064414  1.0000
  Pd  Pd5       1.0  0.0037499997350462486  0.001777714866334829  0.9998317241859285  1.0000
  Pd  Pd6       1.0  0.0037499997350462486  0.001777714866334829  0.9995813378258562  1.0000
  V   V3        1.0  0.0037499997350462486  0.0067497475343732865  0.9993252533868975  1.0000
  V   V4        1.0  0.0012499999461812693  0.0034164138594337374  0.9991554799529271  1.0000
  Pd  Pd7       1.0  0.0012499999461812693  0.0034723491599865882  0.9988993953953522  1.0000
  Pd  Pd8       1.0  0.0012499999461812693  0.008388446527472195  0.9991583288244055  1.0000
  Pd  Pd9       1.0  0.0012499999461812693  0.008388446527472195  0.9988993955139683  1.0000
  Pd  Pd10      1.0  0.0037499997350462486  0.006693811845631554  0.9990720177359319  1.0000
  Pd  Pd11      1.0  0.0037499997350462486  0.001777714866334829  0.9993224045154191  1.0000
  Pd  Pd12      1.0  0.0037499997350462486  0.001777714866334829  0.9990720176074301  1.0000
  V   V5        1.0  0.008749999933761562  0.0067497475343732865  0.999834573057407  1.0000
  V   V6        1.0  0.006249999834403905  0.0034164138594337374  0.9996647996234365  1.0000
  Pd  Pd13      1.0  0.006249999834403905  0.0034723491599865882  0.9994087156137783  1.0000
  Pd  Pd14      1.0  0.006249999834403905  0.008388446527472195  0.999667648494915  1.0000
  Pd  Pd15      1.0  0.006249999834403905  0.008388446527472195  0.9994087151844778  1.0000
  Pd  Pd16      1.0  0.008749999933761562  0.006693811845631554  0.9995813374064414  1.0000
  Pd  Pd17      1.0  0.008749999933761562  0.001777714866334829  0.9998317241859285  1.0000
  Pd  Pd18      1.0  0.008749999933761562  0.001777714866334829  0.9995813378258562  1.0000
  V   V7        1.0  0.008749999933761562  0.0067497475343732865  0.9993252533868975  1.0000
  V   V8        1.0  0.006249999834403905  0.0034164138594337374  0.9991554799529271  1.0000
  Pd  Pd19      1.0  0.006249999834403905  0.0034723491599865882  0.9988993953953522  1.0000
  Pd  Pd20      1.0  0.006249999834403905  0.008388446527472195  0.9991583288244055  1.0000
  Pd  Pd21      1.0  0.006249999834403905  0.008388446527472195  0.9988993955139683  1.0000
  Pd  Pd22      1.0  0.008749999933761562  0.006693811845631554  0.9990720177359319  1.0000
  Pd  Pd23      1.0  0.008749999933761562  0.001777714866334829  0.9993224045154191  1.0000
  Pd  Pd24      1.0  0.008749999933761562  0.001777714866334829  0.9990720176074301  1.0000
