data_image0
_chemical_formula_structural       COSb16Ir8
_chemical_formula_sum              "C1 O1 Sb16 Ir8"
_cell_length_a       9.473389315944305
_cell_length_b       6.827410830325737
_cell_length_c       107.89356231689453
_cell_angle_alpha    72.58852378750026
_cell_angle_beta     89.53611572961528
_cell_angle_gamma    72.58852395082288

_space_group_name_H-M_alt    "P 1"
_space_group_IT_number       1

loop_
  _space_group_symop_operation_xyz
  'x, y, z'

loop_
  _atom_site_type_symbol
  _atom_site_label
  _atom_site_symmetry_multiplicity
  _atom_site_fract_x
  _atom_site_fract_y
  _atom_site_fract_z
  _atom_site_occupancy
  C   C1        1.0  0.002672093718797727  0.00895907859982282  0.9999038748110332  1.0000
  O   O1        1.0  0.002672093718797727  0.00895907859982282  1.5095759354942045e-05  1.0000
  Sb  Sb1       1.0  0.005070511294494587  0.0010409213421440308  0.9996401477836171  1.0000
  Sb  Sb2       1.0  7.051110415608716e-05  0.0010409214196643289  0.9992011319706567  1.0000
  Sb  Sb3       1.0  0.006079783258802735  0.0036176996609457294  0.9992897492891105  1.0000
  Sb  Sb4       1.0  0.0010797828615745617  0.0036177000464902133  0.9997287644839654  1.0000
  Sb  Sb5       1.0  0.004929489086182413  0.00861769974773781  0.9993907488195548  1.0000
  Sb  Sb6       1.0  0.009929489483410587  0.008617699934032086  0.9998297640749335  1.0000
  Sb  Sb7       1.0  0.003920217535653612  0.006040921527686188  0.9997411467594581  1.0000
  Sb  Sb8       1.0  0.008920217932881787  0.0060409205703029455  0.999302131575431  1.0000
  Sb  Sb9       1.0  0.0035358020395654093  0.008042289521173973  0.9990685528785884  1.0000
  Sb  Sb10      1.0  0.008535802023014235  0.008042289894637551  0.9995075686831565  1.0000
  Sb  Sb11      1.0  0.007589741888282913  0.006616331432955004  0.99986351683326  1.0000
  Sb  Sb12      1.0  0.002589741697944413  0.006616331153076078  0.9994245015795064  1.0000
  Sb  Sb13      1.0  0.006464198341111591  0.0016163312827884883  0.9990843121640574  1.0000
  Sb  Sb14      1.0  0.0014641982542179276  0.0016163313849963056  0.9995233273640567  1.0000
  Sb  Sb15      1.0  0.002410258699283761  0.003042289849261565  0.9991673792136837  1.0000
  Sb  Sb16      1.0  0.007410258475842913  0.003042290316309794  0.9996063944641874  1.0000
  Ir  Ir1       1.0  0.0038633712875584536  0.0019186068345398153  0.9998538021511976  1.0000
  Ir  Ir2       1.0  0.00886337127100728  0.0019186066361646346  0.9994147864006533  1.0000
  Ir  Ir3       1.0  0.0036464462233028244  0.0027400145804595106  0.9993957399030221  1.0000
  Ir  Ir4       1.0  0.008646446620530998  0.002740014480834406  0.9998347551638147  1.0000
  Ir  Ir5       1.0  0.006136629093118547  0.007740013969422647  0.999177093904949  1.0000
  Ir  Ir6       1.0  0.0011366289027800465  0.007740014833221237  0.9996161096430404  1.0000
  Ir  Ir7       1.0  0.006353554157374176  0.006918606509422331  0.9996351561477105  1.0000
  Ir  Ir8       1.0  0.0013535540704805128  0.006918606754589837  0.9991961408839415  1.0000
