data_image0
_chemical_formula_structural       Fe10Sb20H
_chemical_formula_sum              "Fe10 Sb20 H1"
_cell_length_a       8.757777671710237
_cell_length_b       9.265443281779119
_cell_length_c       32.678653717041016
_cell_angle_alpha    104.1550971154556
_cell_angle_beta     98.43857381764852
_cell_angle_gamma    57.884934326027356

_space_group_name_H-M_alt    "P 1"
_space_group_IT_number       1

loop_
  _space_group_symop_operation_xyz
  'x, y, z'

loop_
  _atom_site_type_symbol
  _atom_site_label
  _atom_site_symmetry_multiplicity
  _atom_site_fract_x
  _atom_site_fract_y
  _atom_site_fract_z
  _atom_site_occupancy
  Fe  Fe1       1.0  0.008081920331479501  0.008061776760952969  0.00042046509225094003  1.0000
  Fe  Fe2       1.0  0.006089278703775477  0.006329239675141259  0.999966848060753  1.0000
  Fe  Fe3       1.0  0.004105558241252565  0.004324045990634836  0.9993666386026655  1.0000
  Fe  Fe4       1.0  0.00010555814707513631  0.00032404608169554766  0.9982245674928814  1.0000
  Fe  Fe5       1.0  0.002105558115818923  0.002324046157256564  0.998795602825093  1.0000
  Fe  Fe6       1.0  0.00810555849211985  0.00832404565739138  0.9990811205605321  1.0000
  Fe  Fe7       1.0  0.006105558581698664  0.006324045824013108  0.9985100852474064  1.0000
  Fe  Fe8       1.0  0.0037410234676047045  0.004604053319975902  0.0007194831102575472  1.0000
  Fe  Fe9       1.0  0.00010555814707513631  0.00032404608169554766  0.9996521561781784  1.0000
  Fe  Fe10      1.0  0.0021131315750615954  0.0021456853474061477  0.00019528396899650517  1.0000
  Sb  Sb1       1.0  0.007871387370557205  0.009675953327378558  0.999886351133726  1.0000
  Sb  Sb2       1.0  0.00586368249337026  0.007669244547625574  0.999307637536346  1.0000
  Sb  Sb3       1.0  0.003863682582949075  0.005669244714247301  0.9987366019952248  1.0000
  Sb  Sb4       1.0  0.009894442178247006  0.0016716887924692434  0.0004617354702112771  1.0000
  Sb  Sb5       1.0  0.001863682372316274  0.0036692446386862856  0.9981655664255047  1.0000
  Sb  Sb6       1.0  0.00034743387163356103  0.008978846767157187  0.9988546040528348  1.0000
  Sb  Sb7       1.0  0.008347434320821656  0.006978847418144403  0.9982835685229617  1.0000
  Sb  Sb8       1.0  0.006094542806467809  0.005078612344335782  0.000591823887588279  1.0000
  Sb  Sb9       1.0  0.0023474340215881946  0.0009788473730984121  0.9994256396660633  1.0000
  Sb  Sb10      1.0  0.004222770495639612  0.0030337607511313693  0.9999885305641945  1.0000
  Sb  Sb11      1.0  0.0055059586290031595  0.0012410607491427582  0.9988998655792176  1.0000
  Sb  Sb12      1.0  0.003505958057155307  0.00924106093029545  0.9983288300039714  1.0000
  Sb  Sb13      1.0  0.0012291522060736506  0.007530719892972742  0.0006086292038201298  1.0000
  Sb  Sb14      1.0  0.007505958474517696  0.0032410607036124023  0.9994709008981868  1.0000
  Sb  Sb15      1.0  0.009587788065164731  0.005050889685628354  4.1136694217248e-05  1.0000
  Sb  Sb16      1.0  0.0007051578781741359  0.0054070315198400136  0.9992623758628405  1.0000
  Sb  Sb17      1.0  0.008705157856752297  0.0034070314442789973  0.9986913404920778  1.0000
  Sb  Sb18      1.0  0.00670515807614441  0.001407031368717981  0.9981203049392698  1.0000
  Sb  Sb19      1.0  0.0027051577885953207  0.007407031353218286  0.9998334116319569  1.0000
  Sb  Sb20      1.0  0.004771978175530942  0.0094896343925598  0.00038064679213777497  1.0000
  H   H1        1.0  0.006321683032670671  0.00958279337560369  0.0005925139673908996  1.0000
