data_image0
_chemical_formula_structural       CONa14In6Se16
_chemical_formula_sum              "C1 O1 Na14 In6 Se16"
_cell_length_a       10.71742799912531
_cell_length_b       6.904651176762381
_cell_length_c       111.58850860595703
_cell_angle_alpha    90.00334315556513
_cell_angle_beta     88.51840390511728
_cell_angle_gamma    90.18044881754635

_space_group_name_H-M_alt    "P 1"
_space_group_IT_number       1

loop_
  _space_group_symop_operation_xyz
  'x, y, z'

loop_
  _atom_site_type_symbol
  _atom_site_label
  _atom_site_symmetry_multiplicity
  _atom_site_fract_x
  _atom_site_fract_y
  _atom_site_fract_z
  _atom_site_occupancy
  C   C1        1.0  0.0007117375541453683  0.000890452619203179  0.00012785288491741354  1.0000
  O   O1        1.0  0.0007117375541453683  0.000890452619203179  0.00023539105769710114  1.0000
  Na  Na1       1.0  0.0013431756182001873  0.007320359306404989  0.9994382564611908  1.0000
  Na  Na2       1.0  0.008785976836408386  0.0024253571084342407  0.9993969853719449  1.0000
  Na  Na3       1.0  0.001166975942933313  0.002658221465538703  0.9996974755840529  1.0000
  Na  Na4       1.0  0.008962176685530154  0.007087495219916744  0.9991377657145053  1.0000
  Na  Na5       1.0  0.004011606761369832  0.006914403133291394  0.9997383873744596  1.0000
  Na  Na6       1.0  0.006200961793092092  0.0025459256821088305  0.9990876250754709  1.0000
  Na  Na7       1.0  0.0036638990590138615  0.002428388038125598  0.9987720149704986  1.0000
  Na  Na8       1.0  0.006465253221739817  0.007317328915397597  0.9988209087700538  1.0000
  Na  Na9       1.0  0.00630356330209694  0.00469737532717754  0.9995847264108845  1.0000
  Na  Na10      1.0  0.003825589326366527  0.005048341628044634  0.9992505148876746  1.0000
  Na  Na11      1.0  0.008906577194911086  0.004719099532248774  0.9998746433809999  1.0000
  Na  Na12      1.0  0.0014542805439405032  0.005091088110937295  0.9989515303561204  1.0000
  Na  Na13      1.0  0.006257937519054496  0.001251167185497617  0.9998094680495174  1.0000
  Na  Na14      1.0  0.0038114570097180713  0.008409188325770837  0.9990179540047145  1.0000
  In  In1       1.0  0.0016285676415151024  0.0011290633163759114  0.9991748699211707  1.0000
  In  In2       1.0  0.008500584986948365  0.00861665316675449  0.9996603713773867  1.0000
  In  In3       1.0  0.0038896642430830785  0.0012245631120828204  0.9994977459429593  1.0000
  In  In4       1.0  0.0062394880376706  0.008521153436790283  0.9993374953564619  1.0000
  In  In5       1.0  0.008948918511290276  0.0011998936798141258  0.9988882207921567  1.0000
  In  In6       1.0  0.0006791981332435037  0.009109548166486844  0.9999472128947179  1.0000
  Se  Se1       1.0  0.0017437783244393806  0.002450848934740183  0.9994055734299031  1.0000
  Se  Se2       1.0  0.008385374130169192  0.007294867749865774  0.9994296678690867  1.0000
  Se  Se3       1.0  0.009320801779829049  0.002401561827221393  0.9991140731211939  1.0000
  Se  Se4       1.0  0.0008188615070521108  0.007441829668546301  0.9997230979402841  1.0000
  Se  Se5       1.0  0.00674909845806008  0.0024211715819488196  0.9988258083810553  1.0000
  Se  Se6       1.0  0.0033800545181131765  0.00732454483543888  0.9987671153577682  1.0000
  Se  Se7       1.0  0.0016386241040214167  0.007370464528813576  0.9991774746524488  1.0000
  Se  Se8       1.0  0.008490528524442051  0.0023752521566418722  0.9996577666461093  1.0000
  Se  Se9       1.0  0.0008278768395238656  0.0026714737564863095  0.999997953775222  1.0000
  Se  Se10      1.0  0.009297624836159148  0.007375018497792321  0.9988550989190105  1.0000
  Se  Se11      1.0  0.0034390772116011563  0.0025992498856599404  0.9990403064254695  1.0000
  Se  Se12      1.0  0.006801703471979598  0.007169626781807806  0.9998102377441661  1.0000
  Se  Se13      1.0  0.004251210447316125  0.00738410203997951  0.9994757325609493  1.0000
  Se  Se14      1.0  0.005877942181147342  0.0023616143757092096  0.9993595087376078  1.0000
  Se  Se15      1.0  0.003936335589459887  0.002456559658647735  0.9997167692847715  1.0000
  Se  Se16      1.0  0.006212203945977581  0.007271031710380412  0.9991169442181271  1.0000
