data_image0
_chemical_formula_structural       HFe2Se2Fe2Se2Fe2Se2Fe2Se2Fe2Se2Fe2Se2Fe2Se2Fe2Se2
_chemical_formula_sum              "H1 Fe16 Se16"
_cell_length_a       7.41973876953125
_cell_length_b       7.41973876953125
_cell_length_c       105.07532501220703
_cell_angle_alpha    90.0
_cell_angle_beta     90.0
_cell_angle_gamma    90.0

_space_group_name_H-M_alt    "P 1"
_space_group_IT_number       1

loop_
  _space_group_symop_operation_xyz
  'x, y, z'

loop_
  _atom_site_type_symbol
  _atom_site_label
  _atom_site_symmetry_multiplicity
  _atom_site_fract_x
  _atom_site_fract_y
  _atom_site_fract_z
  _atom_site_occupancy
  H   H1        1.0  0.0024999987950119276  0.004999999598337309  0.9998438938902444  1.0000
  Fe  Fe1       1.0  1.3499999634055232e-09  5.000000185894483e-10  0.9992084700670717  1.0000
  Fe  Fe2       1.0  0.002500001305403745  0.0025000005522862  0.9992084700670717  1.0000
  Se  Se1       1.0  1.3499999634055232e-09  0.0025000005522862  0.9993420836118789  1.0000
  Se  Se2       1.0  0.002500001305403745  5.000000185894483e-10  0.9990748562386362  1.0000
  Fe  Fe3       1.0  0.009999999196674618  1.0000000371788966e-09  0.9998635844924786  1.0000
  Fe  Fe4       1.0  0.002500003815795562  0.0024999987950119276  0.9998636224986537  1.0000
  Se  Se3       1.0  6.049999844869553e-09  0.0025000023095604717  0.0  1.0000
  Se  Se4       1.0  0.0024999987950119276  0.009999999196674618  0.9997266397347876  1.0000
  Fe  Fe5       1.0  1.3499999634055232e-09  0.005000000602494036  0.9992084700670717  1.0000
  Fe  Fe6       1.0  0.002500001305403745  0.007500000401662691  0.9992084700670717  1.0000
  Se  Se5       1.0  1.3499999634055232e-09  0.007500000401662691  0.9993420836118789  1.0000
  Se  Se6       1.0  0.002500001305403745  0.005000000602494036  0.9990748562386362  1.0000
  Fe  Fe7       1.0  0.009999999196674618  0.0050000011045724  0.9998635844924786  1.0000
  Fe  Fe8       1.0  0.002500003815795562  0.0074999988954276  0.9998636224986537  1.0000
  Se  Se7       1.0  6.049999844869553e-09  0.007500002409976145  0.0  1.0000
  Se  Se8       1.0  0.0024999987950119276  0.004999999598337309  0.9997266397347876  1.0000
  Fe  Fe9       1.0  0.005000001606650763  5.000000185894483e-10  0.9992084700670717  1.0000
  Fe  Fe10      1.0  0.007500001405819417  0.0025000005522862  0.9992084700670717  1.0000
  Se  Se9       1.0  0.005000001606650763  0.0025000005522862  0.9993420836118789  1.0000
  Se  Se10      1.0  0.007500001405819417  5.000000185894483e-10  0.9990748562386362  1.0000
  Fe  Fe11      1.0  0.004999998594180583  1.0000000371788966e-09  0.9998635844924786  1.0000
  Fe  Fe12      1.0  0.007500003916211234  0.0024999987950119276  0.9998636224986537  1.0000
  Se  Se11      1.0  0.005000006125356034  0.0025000023095604717  0.0  1.0000
  Se  Se12      1.0  0.0074999988954276  0.009999999196674618  0.9997266397347876  1.0000
  Fe  Fe13      1.0  0.005000001606650763  0.005000000602494036  0.9992084700670717  1.0000
  Fe  Fe14      1.0  0.007500001405819417  0.007500000401662691  0.9992084700670717  1.0000
  Se  Se13      1.0  0.005000001606650763  0.007500000401662691  0.9993420836118789  1.0000
  Se  Se14      1.0  0.007500001405819417  0.005000000602494036  0.9990748562386362  1.0000
  Fe  Fe15      1.0  0.004999998594180583  0.0050000011045724  0.9998635844924786  1.0000
  Fe  Fe16      1.0  0.007500003916211234  0.0074999988954276  0.9998636224986537  1.0000
  Se  Se15      1.0  0.005000006125356034  0.007500002409976145  0.0  1.0000
  Se  Se16      1.0  0.0074999988954276  0.004999999598337309  0.9997266397347876  1.0000
