data_image0
_chemical_formula_structural       HSn8Pd8Sn8Pd8
_chemical_formula_sum              "H1 Sn16 Pd16"
_cell_length_a       6.187846660614014
_cell_length_b       7.6765786558832385
_cell_length_c       108.38289642333984
_cell_angle_alpha    63.512137753271624
_cell_angle_beta     90.0
_cell_angle_gamma    90.0

_space_group_name_H-M_alt    "P 1"
_space_group_IT_number       1

loop_
  _space_group_symop_operation_xyz
  'x, y, z'

loop_
  _atom_site_type_symbol
  _atom_site_label
  _atom_site_symmetry_multiplicity
  _atom_site_fract_x
  _atom_site_fract_y
  _atom_site_fract_z
  _atom_site_occupancy
  H   H1        1.0  0.005751474211201405  0.002795951552193635  0.9999116758528095  1.0000
  Sn  Sn1       1.0  0.0030931415970972937  0.009295390400059628  0.9989132259928855  1.0000
  Sn  Sn2       1.0  0.0030931415970972937  0.004295390551874182  0.9985590842097393  1.0000
  Sn  Sn3       1.0  0.006906858764122741  0.0008484977068324946  0.9986690882647002  1.0000
  Sn  Sn4       1.0  0.006906858764122741  0.005848497351694878  0.9990232297792969  1.0000
  Sn  Sn5       1.0  0.008093141476690616  0.0008484977068324946  0.9990232295481001  1.0000
  Sn  Sn6       1.0  0.008093141476690616  0.005848497351694878  0.9986690882209245  1.0000
  Sn  Sn7       1.0  0.0019068585835127234  0.009295390400059628  0.9985590844345131  1.0000
  Sn  Sn8       1.0  0.0019068585835127234  0.004295390551874182  0.9989132257681116  1.0000
  Pd  Pd1       1.0  0.004897402553430704  0.007270420111469011  0.9987698006285209  1.0000
  Pd  Pd2       1.0  0.004897402553430704  0.0022704203988322736  0.9991239419578374  1.0000
  Pd  Pd3       1.0  0.00510259780778933  0.002873468063197466  0.9988125133519512  1.0000
  Pd  Pd4       1.0  0.00510259780778933  0.007873467640285495  0.9991666551436614  1.0000
  Pd  Pd5       1.0  0.009897402433024028  0.007873467640285495  0.9988125135852891  1.0000
  Pd  Pd6       1.0  0.009897402433024028  0.002873468063197466  0.9991666549103236  1.0000
  Pd  Pd7       1.0  0.00010259750489128048  0.0022704203988322736  0.9987698006744377  1.0000
  Pd  Pd8       1.0  0.00010259750489128048  0.007270420111469011  0.9991239421868933  1.0000
  Sn  Sn9       1.0  0.0030687396787395715  0.009339542409768541  0.9996201203964451  1.0000
  Sn  Sn10      1.0  0.0030931415970972937  0.004295390551874182  0.999267367326484  1.0000
  Sn  Sn11      1.0  0.006906858764122741  0.0008484977068324946  0.9993773716564175  1.0000
  Sn  Sn12      1.0  0.006687058179736154  0.005660795464364109  0.9997452466723615  1.0000
  Sn  Sn13      1.0  0.008313089559257617  0.0006604570155049331  0.9997452631933839  1.0000
  Sn  Sn14      1.0  0.008093141476690616  0.005848497351694878  0.9993773713376692  1.0000
  Sn  Sn15      1.0  0.0019068585835127234  0.009295390400059628  0.9992673675512579  1.0000
  Sn  Sn16      1.0  0.001931226486983942  0.0043394818357617064  0.9996201226399459  1.0000
  Pd  Pd9       1.0  0.004897402553430704  0.007270420111469011  0.9994780837452657  1.0000
  Pd  Pd10      1.0  0.004815889640633266  0.0021797936167462935  0.9998132672534522  1.0000
  Pd  Pd11      1.0  0.00510259780778933  0.002873468063197466  0.999520796468696  1.0000
  Pd  Pd12      1.0  0.005161150371180074  0.007976742201260363  0.999853447884694  1.0000
  Pd  Pd13      1.0  0.009897402433024028  0.007873467640285495  0.9995207967020338  1.0000
  Pd  Pd14      1.0  0.009838751738190803  0.002976649366660913  0.9998534461978013  1.0000
  Pd  Pd15      1.0  0.00010259750489128048  0.0022704203988322736  0.9994780835162098  1.0000
  Pd  Pd16      1.0  0.00018437560398999799  0.007179470723456899  0.9998132721741824  1.0000
