data_image0
_chemical_formula_structural       COCa8Ge8
_chemical_formula_sum              "C1 O1 Ca8 Ge8"
_cell_length_a       5.981569060948511
_cell_length_b       9.773784237593398
_cell_length_c       99.84869384765625
_cell_angle_alpha    97.2947733234035
_cell_angle_beta     94.55880678394877
_cell_angle_gamma    104.0480325306706

_space_group_name_H-M_alt    "P 1"
_space_group_IT_number       1

loop_
  _space_group_symop_operation_xyz
  'x, y, z'

loop_
  _atom_site_type_symbol
  _atom_site_label
  _atom_site_symmetry_multiplicity
  _atom_site_fract_x
  _atom_site_fract_y
  _atom_site_fract_z
  _atom_site_occupancy
  C   C1        1.0  0.0008820830633125089  0.0023809394705856793  0.00018079452699128323  1.0000
  O   O1        1.0  0.0008820830633125089  0.0023809394705856793  0.00030097601611881445  1.0000
  Ca  Ca1       1.0  0.0025166512997893942  0.004780714089220813  0.9995654344520514  1.0000
  Ca  Ca2       1.0  0.007516651096704886  0.0004057139163191866  0.9993785974097469  1.0000
  Ca  Ca3       1.0  0.003414407276059699  0.0009772017391763677  0.9996165310032996  1.0000
  Ca  Ca4       1.0  0.008414407371065713  0.006602201727252117  0.9994296940957441  1.0000
  Ca  Ca5       1.0  0.0023133553551014604  0.0033799461916781425  0.9999575541528187  1.0000
  Ca  Ca6       1.0  0.007516651561016081  0.009155714311806815  0.9997522716086708  1.0000
  Ca  Ca7       1.0  0.003297547006818094  0.009594286642133194  1.5685680001975254e-05  1.0000
  Ca  Ca8       1.0  0.008072497898329969  0.005215112137047448  0.9998025177930068  1.0000
  Ge  Ge1       1.0  0.006813141636589775  0.0035275707932873553  0.9995119181642141  1.0000
  Ge  Ge2       1.0  0.001813141391751601  0.007902571015873359  0.9996987552050033  1.0000
  Ge  Ge3       1.0  0.009117917009003105  0.0022303447370035723  0.9996700474011843  1.0000
  Ge  Ge4       1.0  0.004117917025211048  0.00785534462571057  0.9994832103785981  1.0000
  Ge  Ge5       1.0  0.006910760799752008  0.0021064778126399747  0.9998919377101081  1.0000
  Ge  Ge6       1.0  0.0016233771296464872  0.006452160080139101  6.269400121427157e-05  1.0000
  Ge  Ge7       1.0  0.008761936986587506  0.0008228832113280096  5.194748396269575e-05  1.0000
  Ge  Ge8       1.0  0.0037822921935214177  0.006545704630078853  0.9998642309068853  1.0000
