data_image0
_chemical_formula_structural       HNa16
_chemical_formula_sum              "H1 Na16"
_cell_length_a       7.6693243980407715
_cell_length_b       7.669324578980909
_cell_length_c       107.11820983886719
_cell_angle_alpha    90.0
_cell_angle_beta     90.0
_cell_angle_gamma    60.00000078044051

_space_group_name_H-M_alt    "P 1"
_space_group_IT_number       1

loop_
  _space_group_symop_operation_xyz
  'x, y, z'

loop_
  _atom_site_type_symbol
  _atom_site_label
  _atom_site_symmetry_multiplicity
  _atom_site_fract_x
  _atom_site_fract_y
  _atom_site_fract_z
  _atom_site_occupancy
  H   H1        1.0  0.005833333218697505  0.003333333135154632  0.00014003207967579946  1.0000
  Na  Na1       1.0  0.004166666665530514  0.0016666667077980953  0.0  1.0000
  Na  Na2       1.0  0.000833333442137465  0.003333333135154632  0.9997112364886165  1.0000
  Na  Na3       1.0  0.004166666665530514  0.0016666667077980953  0.999422472420795  1.0000
  Na  Na4       1.0  0.000833333442137465  0.003333333135154632  0.9991337091876304  1.0000
  Na  Na5       1.0  0.004166667136859233  0.006666666270309264  0.0  1.0000
  Na  Na6       1.0  0.0008333333901551025  0.008333333258548918  0.9997112364886165  1.0000
  Na  Na7       1.0  0.004166667136859233  0.006666666270309264  0.999422472420795  1.0000
  Na  Na8       1.0  0.0008333333901551025  0.008333333258548918  0.9991337091876304  1.0000
  Na  Na9       1.0  0.009166666684960077  0.0016666667077980953  0.0  1.0000
  Na  Na10      1.0  0.005833333218697505  0.003333333135154632  0.9997112364886165  1.0000
  Na  Na11      1.0  0.009166666684960077  0.0016666667077980953  0.999422472420795  1.0000
  Na  Na12      1.0  0.005833333218697505  0.003333333135154632  0.9991337091876304  1.0000
  Na  Na13      1.0  0.00916666667054975  0.006666666270309264  0.0  1.0000
  Na  Na14      1.0  0.005833333409584664  0.008333333258548918  0.9997112364886165  1.0000
  Na  Na15      1.0  0.00916666667054975  0.006666666270309264  0.999422472420795  1.0000
  Na  Na16      1.0  0.005833333409584664  0.008333333258548918  0.9991337091876304  1.0000
