data_image0
_chemical_formula_structural       COAl18Pd30
_chemical_formula_sum              "C1 O1 Al18 Pd30"
_cell_length_a       13.472181562378047
_cell_length_b       5.469732761383057
_cell_length_c       115.7673568725586
_cell_angle_alpha    90.0
_cell_angle_beta     121.40863235071667
_cell_angle_gamma    90.0

_space_group_name_H-M_alt    "P 1"
_space_group_IT_number       1

loop_
  _space_group_symop_operation_xyz
  'x, y, z'

loop_
  _atom_site_type_symbol
  _atom_site_label
  _atom_site_symmetry_multiplicity
  _atom_site_fract_x
  _atom_site_fract_y
  _atom_site_fract_z
  _atom_site_occupancy
  C   C1        1.0  0.00242008963536523  0.009758945541446278  0.00015933698439776425  1.0000
  O   O1        1.0  0.00242008963536523  0.009758945541446278  0.0002629933573415223  1.0000
  Al  Al1       1.0  0.007080732930792565  0.00024105399968041852  0.9998959399758973  1.0000
  Al  Al2       1.0  0.0004140657554602362  0.00024105399968041852  0.9992370416178333  1.0000
  Al  Al3       1.0  0.003747399221629825  0.00024105399968041852  0.9995664905320641  1.0000
  Al  Al4       1.0  0.008747399623378501  0.005241054036288122  0.9995664906388072  1.0000
  Al  Al5       1.0  0.002080732529043889  0.005241054036288122  0.9998959398691541  1.0000
  Al  Al6       1.0  0.005414065914215761  0.005241054036288122  0.9992370417098397  1.0000
  Al  Al7       1.0  0.006604308896065554  0.0018506585063122116  0.9994959406414382  1.0000
  Al  Al8       1.0  0.009937642281237426  0.0018506585063122116  0.9998253900656225  1.0000
  Al  Al9       1.0  0.0032709751869028146  0.0018506585063122116  0.9991664914550379  1.0000
  Al  Al10      1.0  0.00755715631753784  0.008631449395995645  0.9993075916875599  1.0000
  Al  Al11      1.0  0.0008904897091895298  0.008631449395995645  0.9996370409473802  1.0000
  Al  Al12      1.0  0.004223822932365968  0.008631449395995645  0.9999664898468743  1.0000
  Al  Al13      1.0  0.005890489624951904  0.0068506586493376565  0.99963704102465  1.0000
  Al  Al14      1.0  0.009223823010123776  0.0068506586493376565  0.9999664899339685  1.0000
  Al  Al15      1.0  0.002557156401775466  0.0068506586493376565  0.9993075916102901  1.0000
  Al  Al16      1.0  0.00827097558865149  0.003631449423238587  0.9991664915617811  1.0000
  Al  Al17      1.0  0.0016043086563123125  0.003631449423238587  0.9994959405445195  1.0000
  Al  Al18      1.0  0.0049376418794887505  0.003631449423238587  0.9998253899588794  1.0000
  Pd  Pd1       1.0  0.00576577322841379  0.0021053875050769948  0.9996616936076872  1.0000
  Pd  Pd2       1.0  0.00909910661358566  0.0021053875050769948  0.9999911425170057  1.0000
  Pd  Pd3       1.0  0.002432440167232785  0.0021053875050769948  0.9993322442031517  1.0000
  Pd  Pd4       1.0  0.008395691985189606  0.008376720397230862  0.9991418389787439  1.0000
  Pd  Pd5       1.0  0.0017290248908549933  0.008376720397230862  0.9994712879516578  1.0000
  Pd  Pd6       1.0  0.005062358276026865  0.008376720397230862  0.9998007373758422  1.0000
  Pd  Pd7       1.0  0.006729025292603668  0.00710538764810244  0.999471288058401  1.0000
  Pd  Pd8       1.0  6.235815270784155e-05  0.00710538764810244  0.9998007372859848  1.0000
  Pd  Pd9       1.0  0.0033956915834409294  0.00710538764810244  0.9991418388720007  1.0000
  Pd  Pd10      1.0  0.00743244056898146  0.003376720424473804  0.9993322443098949  1.0000
  Pd  Pd11      1.0  0.000765773393649132  0.003376720424473804  0.9996616935353295  1.0000
  Pd  Pd12      1.0  0.0040991068598187205  0.003376720424473804  0.9999911424495603  1.0000
  Pd  Pd13      1.0  0.008747399623378501  0.00024105399968041852  0.9995664906388072  1.0000
  Pd  Pd14      1.0  0.002080732529043889  0.00024105399968041852  0.9998959398691541  1.0000
  Pd  Pd15      1.0  0.005414065914215761  0.00024105399968041852  0.9992370417098397  1.0000
  Pd  Pd16      1.0  0.007080732930792565  0.005241054036288122  0.9998959399758973  1.0000
  Pd  Pd17      1.0  0.0004140657554602362  0.005241054036288122  0.9992370416178333  1.0000
  Pd  Pd18      1.0  0.003747399221629825  0.005241054036288122  0.9995664905320641  1.0000
  Pd  Pd19      1.0  0.007856054092312577  0.0092768380954577  0.9997426827614764  1.0000
  Pd  Pd20      1.0  0.0011893869169802484  0.0092768380954577  7.213198691106846e-05  1.0000
  Pd  Pd21      1.0  0.004522720383149837  0.0092768380954577  0.9994132333176432  1.0000
  Pd  Pd22      1.0  0.009638745154444425  0.0012052699771185442  0.9993902990310038  1.0000
  Pd  Pd23      1.0  0.002972078060109813  0.0012052699771185442  0.9997197482613508  1.0000
  Pd  Pd24      1.0  0.006305411769272552  0.0012052699771185442  4.919719031821653e-05  1.0000
  Pd  Pd25      1.0  0.007972078461858488  0.004276837782163868  0.9997197483680939  1.0000
  Pd  Pd26      1.0  0.00130541128652616  0.004276837782163868  4.91970786628882e-05  1.0000
  Pd  Pd27      1.0  0.004638744752695749  0.004276837782163868  0.9993902989242607  1.0000
  Pd  Pd28      1.0  0.009522720784898513  0.006205269949875603  0.9994132334243863  1.0000
  Pd  Pd29      1.0  0.002856053690563901  0.006205269949875603  0.9997426826547332  1.0000
  Pd  Pd30      1.0  0.006189386751744906  0.006205269949875603  7.213154440293273e-05  1.0000
