data_image0
_chemical_formula_structural       COIr6W2Ir6W2Ir6W2Ir6W2
_chemical_formula_sum              "C1 O1 Ir24 W8"
_cell_length_a       5.558303977559186
_cell_length_b       8.878572463989258
_cell_length_c       108.90812683105469
_cell_angle_alpha    90.0
_cell_angle_beta     119.99999913971583
_cell_angle_gamma    90.0

_space_group_name_H-M_alt    "P 1"
_space_group_IT_number       1

loop_
  _space_group_symop_operation_xyz
  'x, y, z'

loop_
  _atom_site_type_symbol
  _atom_site_label
  _atom_site_symmetry_multiplicity
  _atom_site_fract_x
  _atom_site_fract_y
  _atom_site_fract_z
  _atom_site_occupancy
  C   C1        1.0  0.003413375193376985  0.0012499641005534134  0.00010810923320542786  1.0000
  O   O1        1.0  0.003413375193376985  0.0012499641005534134  0.00021829407126907648  1.0000
  Ir  Ir1       1.0  0.008385734694849954  0.0037499753789209246  0.999333864298948  1.0000
  Ir  Ir2       1.0  0.0017163323775183338  0.0012499752194797171  0.9991634627747359  1.0000
  Ir  Ir3       1.0  0.0017163323775183338  0.0012499752194797171  0.9994188556391818  1.0000
  Ir  Ir4       1.0  0.003381631191765878  0.0037499753789209246  0.9995888376679231  1.0000
  Ir  Ir5       1.0  0.008385734694849954  0.0037499753789209246  0.999588837937031  1.0000
  Ir  Ir6       1.0  0.006720435300174276  0.0012499752194797171  0.9994188553461854  1.0000
  W   W1        1.0  0.003384366556086285  0.0037499753789209246  0.999333724492194  1.0000
  W   W2        1.0  0.006717700322805958  0.0012499752194797171  0.9991636025765526  1.0000
  Ir  Ir7       1.0  0.008365019601692694  0.0037499741201745505  0.9998420622240183  1.0000
  Ir  Ir8       1.0  0.0017163323775183338  0.0012499752194797171  0.9996738290036185  1.0000
  Ir  Ir9       1.0  0.0016142653477147762  0.0012499641005534134  0.9999244683438393  1.0000
  Ir  Ir10      1.0  0.003364405632551386  0.003749911602437975  8.585396364503031e-05  1.0000
  Ir  Ir11      1.0  0.008139602209784942  0.003750036218329001  8.577426602898498e-05  1.0000
  Ir  Ir12      1.0  0.006726761192932801  0.0012499847649730532  0.9999243815650096  1.0000
  W   W3        1.0  0.0034759720459371693  0.0037499749593388  0.9998534241103663  1.0000
  W   W4        1.0  0.006717700322805958  0.0012499752194797171  0.9996739685317887  1.0000
  Ir  Ir13      1.0  0.008385734694849954  0.00874997569780334  0.999333864298948  1.0000
  Ir  Ir14      1.0  0.0017163323775183338  0.006249975328571069  0.9991634627747359  1.0000
  Ir  Ir15      1.0  0.0017163323775183338  0.006249975328571069  0.9994188556391818  1.0000
  Ir  Ir16      1.0  0.003381631191765878  0.00874997569780334  0.9995888376679231  1.0000
  Ir  Ir17      1.0  0.008385734694849954  0.00874997569780334  0.999588837937031  1.0000
  Ir  Ir18      1.0  0.006720435300174276  0.006249975328571069  0.9994188553461854  1.0000
  W   W5        1.0  0.003384366556086285  0.00874997569780334  0.999333724492194  1.0000
  W   W6        1.0  0.006717700322805958  0.006249975328571069  0.9991636025765526  1.0000
  Ir  Ir19      1.0  0.008365019601692694  0.00874997401947484  0.9998420622240183  1.0000
  Ir  Ir20      1.0  0.0017163323775183338  0.006249975328571069  0.9996738290036185  1.0000
  Ir  Ir21      1.0  0.0016142653477147762  0.006249964419435828  0.9999244683438393  1.0000
  Ir  Ir22      1.0  0.003364405632551386  0.008749911921320389  8.585396364503031e-05  1.0000
  Ir  Ir23      1.0  0.008139602209784942  0.008750036117629291  8.577426602898498e-05  1.0000
  Ir  Ir24      1.0  0.006726761192932801  0.006249984978959937  0.9999243815650096  1.0000
  W   W7        1.0  0.0034759720459371693  0.00874997485863909  0.9998534241103663  1.0000
  W   W8        1.0  0.006717700322805958  0.006249975328571069  0.9996739685317887  1.0000
