data_image0
_chemical_formula_structural       COCu15Sn12
_chemical_formula_sum              "C1 O1 Cu15 Sn12"
_cell_length_a       7.514190242533051
_cell_length_b       7.511756896972656
_cell_length_c       101.13423919677734
_cell_angle_alpha    90.0
_cell_angle_beta     89.43944376622025
_cell_angle_gamma    119.98928825634222

_space_group_name_H-M_alt    "P 1"
_space_group_IT_number       1

loop_
  _space_group_symop_operation_xyz
  'x, y, z'

loop_
  _atom_site_type_symbol
  _atom_site_label
  _atom_site_symmetry_multiplicity
  _atom_site_fract_x
  _atom_site_fract_y
  _atom_site_fract_z
  _atom_site_occupancy
  C   C1        1.0  0.003342932199630914  0.00833436639858468  0.0001650123957800329  1.0000
  O   O1        1.0  0.003342932199630914  0.00833436639858468  0.00028366622468462287  1.0000
  Cu  Cu1       1.0  0.008410856419023876  0.008223538233122236  0.9994782993081773  1.0000
  Cu  Cu2       1.0  0.004890958286903302  0.0016809789740307567  0.9994782558840324  1.0000
  Cu  Cu3       1.0  0.0014067960024219332  0.005153576832041036  0.9994787955888566  1.0000
  Cu  Cu4       1.0  0.0014108746202494823  0.004974197757144845  0.9992207344257165  1.0000
  Cu  Cu5       1.0  0.0049633808010184225  0.0015387304915161978  0.999993653363661  1.0000
  Cu  Cu6       1.0  0.001782611011585331  0.005160065952812769  0.9999938243085614  1.0000
  Cu  Cu7       1.0  0.008302527184648986  0.008386763638632264  0.9997363030551651  1.0000
  Cu  Cu8       1.0  0.0050633959518386  0.001854891818377729  0.9992204686867296  1.0000
  Cu  Cu9       1.0  0.0017866896294128803  0.00534352364553651  0.9997357634401022  1.0000
  Cu  Cu10      1.0  0.0050250775520128705  0.008379238136095904  0.999865303890044  1.0000
  Cu  Cu11      1.0  0.008130089519713689  0.008388238756052942  0.9999940902524679  1.0000
  Cu  Cu12      1.0  0.004782629052528412  0.0014094245821098207  0.9997362596310202  1.0000
  Cu  Cu13      1.0  0.008230105242971455  0.008172092742248394  0.9992209058698013  1.0000
  Cu  Cu14      1.0  0.008168408491977008  0.004950903700304286  0.9993492553434182  1.0000
  Cu  Cu15      1.0  0.0015967428159174067  0.008412183324683941  0.9996072795144794  1.0000
  Sn  Sn1       1.0  0.00489799697950787  0.004737526514301941  0.9998636158030598  1.0000
  Sn  Sn2       1.0  0.008295488492044418  0.001436272240814537  0.9993509428414569  1.0000
  Sn  Sn3       1.0  0.004967358669830162  0.008344992917323487  0.999115378986782  1.0000
  Sn  Sn4       1.0  0.005188495317845193  0.008374023245250689  0.9995876579299373  1.0000
  Sn  Sn5       1.0  0.0017811593098575182  0.00859057542089418  0.9993306426010287  1.0000
  Sn  Sn6       1.0  0.0015967428159174067  0.0017143195465855344  0.9990941950888247  1.0000
  Sn  Sn7       1.0  0.004600281634256746  0.004963372917493274  0.9993531164307355  1.0000
  Sn  Sn8       1.0  0.008226126801722126  0.0049743769535137905  0.9990730111011061  1.0000
  Sn  Sn9       1.0  0.008593204123514336  0.001959833884402411  0.999861442508254  1.0000
  Sn  Sn10      1.0  0.0015967428159174067  0.0019943008234997433  0.9996072795144794  1.0000
  Sn  Sn11      1.0  0.008004990153707096  0.004782270571434967  0.9996269010092603  1.0000
  Sn  Sn12      1.0  0.0014123261788678977  0.00840615885539937  0.9998839164280341  1.0000
