data_image0
_chemical_formula_structural       COAl24W6
_chemical_formula_sum              "C1 O1 Al24 W6"
_cell_length_a       10.451009077097718
_cell_length_b       5.279741361833456
_cell_length_c       101.3946533203125
_cell_angle_alpha    88.67689080914069
_cell_angle_beta     85.71848557424941
_cell_angle_gamma    99.52219247335253

_space_group_name_H-M_alt    "P 1"
_space_group_IT_number       1

loop_
  _space_group_symop_operation_xyz
  'x, y, z'

loop_
  _atom_site_type_symbol
  _atom_site_label
  _atom_site_symmetry_multiplicity
  _atom_site_fract_x
  _atom_site_fract_y
  _atom_site_fract_z
  _atom_site_occupancy
  C   C1        1.0  0.009233500529545236  0.003494632167785349  3.583711929148213e-05  1.0000
  O   O1        1.0  0.009233500529545236  0.003494632167785349  0.0001541867947993828  1.0000
  Al  Al1       1.0  0.0022478011080768875  0.00732146246316817  0.9992064347271542  1.0000
  Al  Al2       1.0  0.0012141433864684716  0.002709415467264699  0.9993664593557424  1.0000
  Al  Al3       1.0  0.0038414332105849644  0.0030048700845598107  0.999197766821995  1.0000
  Al  Al4       1.0  0.008787656131145289  0.009488737246278236  0.9995040649334133  1.0000
  Al  Al5       1.0  0.003084402667984419  0.00029455132406000647  0.9994431077017117  1.0000
  Al  Al6       1.0  0.009705320374867904  0.009280826205697342  0.9992338557633288  1.0000
  Al  Al7       1.0  0.004857043816039419  0.008328710124357036  0.9991848772443581  1.0000
  Al  Al8       1.0  0.008471334361173985  0.0044129970341750605  0.999408694464374  1.0000
  Al  Al9       1.0  0.0058094848466987425  0.0031294920230590826  0.9993827524641797  1.0000
  Al  Al10      1.0  0.006237221124353094  0.008257812959811713  0.9994092403782399  1.0000
  Al  Al11      1.0  0.007421948060476758  0.0012204376194403339  0.9991791158002474  1.0000
  Al  Al12      1.0  0.0074252540923729245  0.006221429286978716  0.9991793206416709  1.0000
  Al  Al13      1.0  0.009390657784755873  0.00446431942951603  0.9996487606179324  1.0000
  Al  Al14      1.0  0.008357000335084717  0.009852272495406381  0.9998087855559131  1.0000
  Al  Al15      1.0  0.0009842905943008217  0.00014772732511238344  0.9996400931243749  1.0000
  Al  Al16      1.0  0.005930513605506899  0.006631594307313509  0.9999463906474635  1.0000
  Al  Al17      1.0  0.00022725984774733267  0.007437408391669693  0.9998854337295805  1.0000
  Al  Al18      1.0  0.006848177849229514  0.006423683619617686  0.9996761820648027  1.0000
  Al  Al19      1.0  0.001999901109109524  0.005471567125375889  0.9996272035477235  1.0000
  Al  Al20      1.0  0.005614191835535595  0.0015558543378188189  0.9998510207659804  1.0000
  Al  Al21      1.0  0.0029523419584773416  0.00027234909639341654  0.9998250787688532  1.0000
  Al  Al22      1.0  0.003380078236131693  0.005400669900814145  0.9998515663891484  1.0000
  Al  Al23      1.0  0.0045648051722553575  0.008363294443990692  0.9996214421228554  1.0000
  Al  Al24      1.0  0.004568111566734535  0.003364286700899058  0.9996216469431447  1.0000
  W   W1        1.0  0.000762403116369074  0.00738995794732473  0.999436395085754  1.0000
  W   W2        1.0  0.0036872465979851292  0.005553492925450029  0.9994078025787093  1.0000
  W   W3        1.0  0.009772739785137369  0.00437914084227986  0.9991653944608351  1.0000
  W   W4        1.0  0.007905260336922577  0.004532815093721849  0.9998787209721305  1.0000
  W   W5        1.0  0.000830103800409481  0.0026963502493457417  0.99985012858846  1.0000
  W   W6        1.0  0.006915597259498979  0.001521998167978935  0.999607720174567  1.0000
