data_image0
_chemical_formula_structural       HNi20Sb8
_chemical_formula_sum              "H1 Ni20 Sb8"
_cell_length_a       5.478857040405273
_cell_length_b       6.213299321955706
_cell_length_c       35.22509002685547
_cell_angle_alpha    90.37298831231472
_cell_angle_beta     90.0
_cell_angle_gamma    90.0

_space_group_name_H-M_alt    "P 1"
_space_group_IT_number       1

loop_
  _space_group_symop_operation_xyz
  'x, y, z'

loop_
  _atom_site_type_symbol
  _atom_site_label
  _atom_site_symmetry_multiplicity
  _atom_site_fract_x
  _atom_site_fract_y
  _atom_site_fract_z
  _atom_site_occupancy
  H   H1        1.0  0.006236457784667636  0.00022401064877602817  0.0003365521984996871  1.0000
  Ni  Ni1       1.0  0.0037164327015431512  0.00014788925248072096  0.9970877870771443  1.0000
  Ni  Ni2       1.0  0.008756499186335661  0.00014788925248072096  0.9970877870771443  1.0000
  Ni  Ni3       1.0  0.006236465943939407  0.0029208497675778976  0.9975083191437603  1.0000
  Ni  Ni4       1.0  0.0012364662431127043  0.002374928992954466  0.9983126215555985  1.0000
  Ni  Ni5       1.0  0.0012364662431127043  0.00711354395682196  0.9974228950311315  1.0000
  Ni  Ni6       1.0  0.006236465943939407  0.008182235127483535  0.9983980456114905  1.0000
  Ni  Ni7       1.0  0.003709398729338113  0.009852111249292687  0.9978413987443906  1.0000
  Ni  Ni8       1.0  0.008709398430164815  0.005443667835012809  0.9979795418982312  1.0000
  Ni  Ni9       1.0  0.0087635331585407  0.009852111249292687  0.9978413987443906  1.0000
  Ni  Ni10      1.0  0.0037635337976836547  0.005443667835012809  0.9979795418982312  1.0000
  Ni  Ni11      1.0  0.008716432402369852  0.0051478896860519185  0.9987331534109053  1.0000
  Ni  Ni12      1.0  0.0037564994855089594  0.0051478896860519185  0.9987331534109053  1.0000
  Ni  Ni13      1.0  0.0012364662431127043  0.007920849479779557  0.9991536856882064  1.0000
  Ni  Ni14      1.0  0.00623645846460695  0.007340034655333091  0.9999040510193616  1.0000
  Ni  Ni15      1.0  0.006236465943939407  0.002113543645040425  0.9990682616326586  1.0000
  Ni  Ni16      1.0  0.0012364766121872454  0.0032004632430866807  3.6749592811130276e-06  1.0000
  Ni  Ni17      1.0  0.008699909197096326  0.004804664083407949  0.9994840606010343  1.0000
  Ni  Ni18      1.0  0.0037572130818191757  0.00047191114549293984  0.9996311010486875  1.0000
  Ni  Ni19      1.0  0.0037730257505094  0.004804664682987825  0.9994840534102652  1.0000
  Ni  Ni20      1.0  0.008715734104694206  0.00047193216826233575  0.9996311108024462  1.0000
  Sb  Sb1       1.0  0.0012364662431127043  0.0029228580603719565  0.9975054220233185  1.0000
  Sb  Sb2       1.0  0.006236465943939407  0.002372920550265438  0.9983155186758681  1.0000
  Sb  Sb3       1.0  0.006236465943939407  0.007149707017452167  0.9974261663661773  1.0000
  Sb  Sb4       1.0  0.0012364662431127043  0.00814607206685333  0.9983947742764445  1.0000
  Sb  Sb5       1.0  0.006236465943939407  0.007922858072363554  0.9991507885681089  1.0000
  Sb  Sb6       1.0  0.0012364718526120461  0.007431673244393668  0.9999635119967688  1.0000
  Sb  Sb7       1.0  0.0012364662431127043  0.0021497070054605706  0.9990715329680487  1.0000
  Sb  Sb8       1.0  0.006236457784667636  0.003071691772946756  6.950237413223631e-05  1.0000
