data_image0
_chemical_formula_structural       COMn3CrP4Mn3CrP4Mn3CrP4Mn3CrP4
_chemical_formula_sum              "C1 O1 Mn12 Cr4 P16"
_cell_length_a       6.221351146697998
_cell_length_b       5.878675376756094
_cell_length_c       101.36937713623047
_cell_angle_alpha    90.14003830436641
_cell_angle_beta     90.0
_cell_angle_gamma    90.0

_space_group_name_H-M_alt    "P 1"
_space_group_IT_number       1

loop_
  _space_group_symop_operation_xyz
  'x, y, z'

loop_
  _atom_site_type_symbol
  _atom_site_label
  _atom_site_symmetry_multiplicity
  _atom_site_fract_x
  _atom_site_fract_y
  _atom_site_fract_z
  _atom_site_occupancy
  C   C1        1.0  0.0037499999281450564  0.005711941968078845  0.00019810708502459754  1.0000
  O   O1        1.0  0.0037499999281450564  0.005711941968078845  0.0003164862707087338  1.0000
  Mn  Mn1       1.0  0.0037499999281450564  0.0019671813593452503  0.9995797774438594  1.0000
  Mn  Mn2       1.0  0.001249999976048352  0.006980912181988328  0.9998425955025897  1.0000
  Mn  Mn3       1.0  0.001249999976048352  0.008041281245135737  0.999584750534934  1.0000
  Cr  Cr1       1.0  0.0037499999281450564  0.0030557171638883073  0.9998370664700581  1.0000
  P   P1        1.0  0.0037499999281450564  0.00932614268927315  0.99974295825542  1.0000
  P   P2        1.0  0.0037499999281450564  0.005703626590519691  8.08439574262573e-07  1.0000
  P   P3        1.0  0.001249999976048352  0.0006738578366957081  0.9999382355432538  1.0000
  P   P4        1.0  0.001249999976048352  0.004347144980702747  0.9996786673793442  1.0000
  Mn  Mn4       1.0  0.0037499999281450564  0.0019671813593452503  0.9990640174061991  1.0000
  Mn  Mn5       1.0  0.001249999976048352  0.006980912181988328  0.9993268351709321  1.0000
  Mn  Mn6       1.0  0.001249999976048352  0.008041281245135737  0.9990689904972738  1.0000
  Cr  Cr2       1.0  0.0037499999281450564  0.0030557171638883073  0.9993213061384005  1.0000
  P   P5        1.0  0.0037499999281450564  0.00932614268927315  0.9992271979237625  1.0000
  P   P6        1.0  0.0037499999281450564  0.005703626590519691  0.9994850481079167  1.0000
  P   P7        1.0  0.001249999976048352  0.0006738578366957081  0.9994224755055936  1.0000
  P   P8        1.0  0.001249999976048352  0.004347144980702747  0.9991629073416839  1.0000
  Mn  Mn7       1.0  0.008749999832338465  0.0019671813593452503  0.9995797774438594  1.0000
  Mn  Mn8       1.0  0.0062499998802417606  0.006980912181988328  0.9998425955025897  1.0000
  Mn  Mn9       1.0  0.0062499998802417606  0.008041281245135737  0.999584750534934  1.0000
  Cr  Cr3       1.0  0.008749999832338465  0.0030557171638883073  0.9998370664700581  1.0000
  P   P9        1.0  0.008749999832338465  0.00932614268927315  0.99974295825542  1.0000
  P   P10       1.0  0.008749999832338465  0.005703626590519691  8.08439574262573e-07  1.0000
  P   P11       1.0  0.0062499998802417606  0.0006738578366957081  0.9999382355432538  1.0000
  P   P12       1.0  0.0062499998802417606  0.004347144980702747  0.9996786673793442  1.0000
  Mn  Mn10      1.0  0.008749999832338465  0.0019671813593452503  0.9990640174061991  1.0000
  Mn  Mn11      1.0  0.0062499998802417606  0.006980912181988328  0.9993268351709321  1.0000
  Mn  Mn12      1.0  0.0062499998802417606  0.008041281245135737  0.9990689904972738  1.0000
  Cr  Cr4       1.0  0.008749999832338465  0.0030557171638883073  0.9993213061384005  1.0000
  P   P13       1.0  0.008749999832338465  0.00932614268927315  0.9992271979237625  1.0000
  P   P14       1.0  0.008749999832338465  0.005703626590519691  0.9994850481079167  1.0000
  P   P15       1.0  0.0062499998802417606  0.0006738578366957081  0.9994224755055936  1.0000
  P   P16       1.0  0.0062499998802417606  0.004347144980702747  0.9991629073416839  1.0000
