data_image0
_chemical_formula_structural       HNi9Sn12Ni9Sn12
_chemical_formula_sum              "H1 Ni18 Sn24"
_cell_length_a       7.330063094177316
_cell_length_b       8.266703605651855
_cell_length_c       110.84852600097656
_cell_angle_alpha    90.0
_cell_angle_beta     86.01666954192902
_cell_angle_gamma    106.37633302756886

_space_group_name_H-M_alt    "P 1"
_space_group_IT_number       1

loop_
  _space_group_symop_operation_xyz
  'x, y, z'

loop_
  _atom_site_type_symbol
  _atom_site_label
  _atom_site_symmetry_multiplicity
  _atom_site_fract_x
  _atom_site_fract_y
  _atom_site_fract_z
  _atom_site_occupancy
  H   H1        1.0  0.00047812357207165134  0.0002584709917766238  5.9238972784199315e-05  1.0000
  Ni  Ni1       1.0  0.007335746346355921  0.004472876654929629  0.9989197572520896  1.0000
  Ni  Ni2       1.0  0.0028913021001906  0.0033617655933882995  0.9993292100963759  1.0000
  Ni  Ni3       1.0  0.008446857939002045  0.0022506546116740933  0.9997386630854542  1.0000
  Ni  Ni4       1.0  0.001229793863188629  0.0004463885927207395  0.9989587489790668  1.0000
  Ni  Ni5       1.0  0.006785349170895281  0.004335277361064469  0.9993682017017286  1.0000
  Ni  Ni6       1.0  0.0023409049247299593  0.0032241662995231395  0.9997776548148711  1.0000
  Ni  Ni7       1.0  0.003441699541203637  0.003499364953641559  0.9988807656455171  1.0000
  Ni  Ni8       1.0  0.008997255114462687  0.002388253975951432  0.999290218366959  1.0000
  Ni  Ni9       1.0  0.004552810868297365  0.001277142815833052  0.9996996714801015  1.0000
  Sn  Sn1       1.0  0.005149617042852017  0.0014263444580487647  0.9989889959259611  1.0000
  Sn  Sn2       1.0  0.0007051726639104962  0.0003152332929012064  0.9993984485020011  1.0000
  Sn  Sn3       1.0  0.0062607281043933465  0.0042041220944389855  0.9998079014929091  1.0000
  Sn  Sn4       1.0  0.00952187618096462  0.0025194092425769154  0.9988505188446347  1.0000
  Sn  Sn5       1.0  0.005077431934799298  0.0014082980824585353  0.999259971688921  1.0000
  Sn  Sn6       1.0  0.0006329874894696791  0.0002971870978680518  0.9996694242652658  1.0000
  Sn  Sn7       1.0  0.009521466168063788  0.0025193066689395286  0.9999562623526694  1.0000
  Sn  Sn8       1.0  0.008410355637627251  0.004741528977747463  0.9991373567832817  1.0000
  Sn  Sn9       1.0  0.003965911125909532  0.0036304180751370037  0.9995468098976441  1.0000
  Sn  Sn10      1.0  0.001816693605576461  0.003093113469734765  0.9991116102926679  1.0000
  Sn  Sn11      1.0  0.007372248647730716  0.001982002288856261  0.9995210632854058  1.0000
  Sn  Sn12      1.0  0.0029278046671177916  0.00087089129370303  0.9999305163973286  1.0000
  Ni  Ni10      1.0  0.007335746346355921  0.009472876988401708  0.9989197572520896  1.0000
  Ni  Ni11      1.0  0.0028913021001906  0.008361765926860375  0.9993292100963759  1.0000
  Ni  Ni12      1.0  0.008446857939002045  0.007250654381848742  0.9997386630854542  1.0000
  Ni  Ni13      1.0  0.001229793863188629  0.005446388362895389  0.9989587489790668  1.0000
  Ni  Ni14      1.0  0.006785349170895281  0.009335277694536546  0.9993682017017286  1.0000
  Ni  Ni15      1.0  0.0023409049247299593  0.008224166632995217  0.9997776548148711  1.0000
  Ni  Ni16      1.0  0.003441699541203637  0.008499365287113635  0.9988807656455171  1.0000
  Ni  Ni17      1.0  0.008997255114462687  0.007388254126351845  0.999290218366959  1.0000
  Ni  Ni18      1.0  0.004552810868297365  0.0062771426141725725  0.9996996714801015  1.0000
  Sn  Sn13      1.0  0.005149617042852017  0.006426344608449178  0.9989889959259611  1.0000
  Sn  Sn14      1.0  0.0007051726639104962  0.005315233063075856  0.9993984485020011  1.0000
  Sn  Sn15      1.0  0.0062607281043933465  0.009204122427911063  0.9998079014929091  1.0000
  Sn  Sn16      1.0  0.00952187618096462  0.007519409392977328  0.9988505188446347  1.0000
  Sn  Sn17      1.0  0.005077431934799298  0.0064082978807980555  0.999259971688921  1.0000
  Sn  Sn18      1.0  0.0006329874894696791  0.005297187220103593  0.9996694242652658  1.0000
  Sn  Sn19      1.0  0.009521466168063788  0.007519306439114178  0.9999562623526694  1.0000
  Sn  Sn20      1.0  0.008410355637627251  0.00974152931121954  0.9991373567832817  1.0000
  Sn  Sn21      1.0  0.003965911125909532  0.00863041818329011  0.9995468098976441  1.0000
  Sn  Sn22      1.0  0.001816693605576461  0.00809311380320684  0.9991116102926679  1.0000
  Sn  Sn23      1.0  0.007372248647730716  0.0069820020590309105  0.9995210632854058  1.0000
  Sn  Sn24      1.0  0.0029278046671177916  0.00587089106387768  0.9999305163973286  1.0000
