data_image0
_chemical_formula_structural       COCaAlSiCaAlSiCaAlSiCaAlSiCaAlSiCaAlSiCaAlSiCaAlSi
_chemical_formula_sum              "C1 O1 Ca8 Al8 Si8"
_cell_length_a       8.482199674560672
_cell_length_b       8.836400985717773
_cell_length_c       103.92880249023438
_cell_angle_alpha    90.0
_cell_angle_beta     119.99999997786261
_cell_angle_gamma    90.0

_space_group_name_H-M_alt    "P 1"
_space_group_IT_number       1

loop_
  _space_group_symop_operation_xyz
  'x, y, z'

loop_
  _atom_site_type_symbol
  _atom_site_label
  _atom_site_symmetry_multiplicity
  _atom_site_fract_x
  _atom_site_fract_y
  _atom_site_fract_z
  _atom_site_occupancy
  C   C1        1.0  0.002063599898265268  0.0024999996543006537  0.00019535389252418905  1.0000
  O   O1        1.0  0.002063599898265268  0.0024999996543006537  0.0003108177873364346  1.0000
  Ca  Ca1       1.0  0.0007925724187509656  4.000000031503488e-10  0.999579803390138  1.0000
  Al  Al1       1.0  0.002459239165713529  0.0025000002866775064  0.999443777435195  1.0000
  Si  Si1       1.0  0.004125905849284595  0.0025000002866775064  0.9997158292032103  1.0000
  Ca  Ca2       1.0  0.0011556895025221906  0.009999999460371752  4.716107989672967e-05  1.0000
  Al  Al2       1.0  0.0025618933281554485  0.002500000075885222  0.9998686122357301  1.0000
  Si  Si2       1.0  0.004207427568570735  0.002499999232716085  0.0001372165211523623  1.0000
  Ca  Ca3       1.0  0.0007925724187509656  0.005000000151770444  0.999579803390138  1.0000
  Al  Al3       1.0  0.002459239165713529  0.007500000438447951  0.999443777435195  1.0000
  Si  Si3       1.0  0.004125905849284595  0.007500000438447951  0.9997158292032103  1.0000
  Ca  Ca4       1.0  0.0011556895025221906  0.004999999730185876  4.716107989672967e-05  1.0000
  Al  Al4       1.0  0.0025618933281554485  0.0074999995952788135  0.9998686122357301  1.0000
  Si  Si4       1.0  0.004207427568570735  0.0074999995952788135  0.0001372165211523623  1.0000
  Ca  Ca5       1.0  0.005792572532855662  4.000000031503488e-10  0.9995798032456805  1.0000
  Al  Al5       1.0  0.007459238962860737  0.0025000002866775064  0.9994437775645605  1.0000
  Si  Si5       1.0  0.009125905899997793  0.0025000002866775064  0.9997158290561661  1.0000
  Ca  Ca6       1.0  0.006155689680018383  0.009999999460371752  4.7161224783358415e-05  1.0000
  Al  Al6       1.0  0.007561893632434636  0.002500000075885222  0.9998686123857904  1.0000
  Si  Si6       1.0  0.009207427365717944  0.002499999232716085  0.00013721665051780757  1.0000
  Ca  Ca7       1.0  0.005792572532855662  0.005000000151770444  0.9995798032456805  1.0000
  Al  Al7       1.0  0.007459238962860737  0.007500000438447951  0.9994437775645605  1.0000
  Si  Si7       1.0  0.009125905899997793  0.007500000438447951  0.9997158290561661  1.0000
  Ca  Ca8       1.0  0.006155689680018383  0.004999999730185876  4.7161224783358415e-05  1.0000
  Al  Al8       1.0  0.007561893632434636  0.0074999995952788135  0.9998686123857904  1.0000
  Si  Si8       1.0  0.009207427365717944  0.0074999995952788135  0.00013721665051780757  1.0000
