data_image0
_chemical_formula_structural       COMo2Ru6Mo2Ru6
_chemical_formula_sum              "C1 O1 Mo4 Ru12"
_cell_length_a       5.505137920379639
_cell_length_b       5.505137748793019
_cell_length_c       100.5546875
_cell_angle_alpha    90.0
_cell_angle_beta     90.0
_cell_angle_gamma    120.00000103104409

_space_group_name_H-M_alt    "P 1"
_space_group_IT_number       1

loop_
  _space_group_symop_operation_xyz
  'x, y, z'

loop_
  _atom_site_type_symbol
  _atom_site_label
  _atom_site_symmetry_multiplicity
  _atom_site_fract_x
  _atom_site_fract_y
  _atom_site_fract_z
  _atom_site_occupancy
  C   C1        1.0  0.0058299996494192265  0.006659982746918769  0.0001681211268686024  1.0000
  O   O1        1.0  0.0058299996494192265  0.006659982746918769  0.00028745882272738864  1.0000
  Mo  Mo1       1.0  0.006666666636994338  0.0033333333281241454  0.9993540470661813  1.0000
  Mo  Mo2       1.0  0.0033333332841790947  0.006666666656248291  0.9995710909223049  1.0000
  Ru  Ru1       1.0  0.008334025429170862  0.001665974167610905  0.9995710909223049  1.0000
  Ru  Ru2       1.0  0.0033319483459578903  0.001665974167610905  0.9995710909223049  1.0000
  Ru  Ru3       1.0  0.008334025992852134  0.006668052039839738  0.9995710909223049  1.0000
  Ru  Ru4       1.0  0.0016659745621188354  0.008334026207450643  0.9993540470661813  1.0000
  Ru  Ru5       1.0  0.006668051814505149  0.008334026207450643  0.9993540470661813  1.0000
  Ru  Ru6       1.0  0.0016659741706371216  0.00333194833522181  0.9993540470661813  1.0000
  Mo  Mo3       1.0  0.006666663096500227  0.0033333309839894726  0.999796022912041  1.0000
  Mo  Mo4       1.0  0.003333334362111695  0.006666664312113618  0.9999917541366387  1.0000
  Ru  Ru7       1.0  0.008326608962734882  0.0016734003862533841  0.0  1.0000
  Ru  Ru8       1.0  0.003346697129428785  0.0016733370946172268  0.9999999887375887  1.0000
  Ru  Ru9       1.0  0.008326665165043982  0.006653301963102145  0.9999999887375887  1.0000
  Ru  Ru10      1.0  0.001677396341760133  0.008322601676435103  0.9997923804111168  1.0000
  Ru  Ru11      1.0  0.0066452041504615825  0.008322601676435103  0.9997923804111168  1.0000
  Ru  Ru12      1.0  0.0016773942715051665  0.003354791536916208  0.9997923804111168  1.0000
