data_image0
_chemical_formula_structural       Sb12Os6H
_chemical_formula_sum              "Sb12 Os6 H1"
_cell_length_a       6.869960946355194
_cell_length_b       7.539383970793567
_cell_length_c       108.6474380493164
_cell_angle_alpha    60.86294436450996
_cell_angle_beta     67.10624821383327
_cell_angle_gamma    78.09236502380486

_space_group_name_H-M_alt    "P 1"
_space_group_IT_number       1

loop_
  _space_group_symop_operation_xyz
  'x, y, z'

loop_
  _atom_site_type_symbol
  _atom_site_label
  _atom_site_symmetry_multiplicity
  _atom_site_fract_x
  _atom_site_fract_y
  _atom_site_fract_z
  _atom_site_occupancy
  Sb  Sb1       1.0  0.00425883902093019  0.00976836753084653  0.9996627058013671  1.0000
  Sb  Sb2       1.0  0.007648945429484363  0.003222140193623153  0.9993690934381051  1.0000
  Sb  Sb3       1.0  0.0009822784522028395  0.006555473689158297  0.9990726647675172  1.0000
  Sb  Sb4       1.0  0.009053087939364733  0.003926427716632574  0.9995622158757114  1.0000
  Sb  Sb5       1.0  0.002458119941527445  0.007241125638679814  0.9992648835743533  1.0000
  Sb  Sb6       1.0  0.0057914532255281285  0.0005744588951558941  0.9989684547956941  1.0000
  Sb  Sb7       1.0  0.0067405021316953445  0.008676362135800052  0.9993286999493335  1.0000
  Sb  Sb8       1.0  7.383495521064551e-05  0.0020096952861848308  0.9990322716683595  1.0000
  Sb  Sb9       1.0  0.0034750873845002675  0.005208726955634187  0.9996402827117519  1.0000
  Sb  Sb10      1.0  0.009946468395383106  0.008266259565169024  0.9996139076444572  1.0000
  Sb  Sb11      1.0  0.0033665632362216264  0.001786903837957983  0.9993052765098156  1.0000
  Sb  Sb12      1.0  0.006699896706446914  0.00512023719203806  0.9990088484474378  1.0000
  Os  Os1       1.0  0.006754884724914689  0.00704763208110035  0.9995957171053879  1.0000
  Os  Os2       1.0  5.353245218931443e-05  0.00023163290271325214  0.9993169886660322  1.0000
  Os  Os3       1.0  0.003386865951940679  0.0035649661683839116  0.9990205600573091  1.0000
  Os  Os4       1.0  0.006720199124758563  0.006898299663919055  0.9991687744799284  1.0000
  Os  Os5       1.0  0.0003383605560239062  0.0004481463098211443  0.9997241142534985  1.0000
  Os  Os6       1.0  0.003386865951940679  0.0035649661683839116  0.9994652025397698  1.0000
  H   H1        1.0  0.005953891989194092  0.0014952536189321254  0.9996539609284396  1.0000
