data_image0
_chemical_formula_structural       CONi9Sb3Ni9Sb3Ni9Sb3Ni9Sb3
_chemical_formula_sum              "C1 O1 Ni36 Sb12"
_cell_length_a       8.466486930847168
_cell_length_b       8.466487047651512
_cell_length_c       38.89213943481445
_cell_angle_alpha    90.0
_cell_angle_beta     90.0
_cell_angle_gamma    119.9999995436293

_space_group_name_H-M_alt    "P 1"
_space_group_IT_number       1

loop_
  _space_group_symop_operation_xyz
  'x, y, z'

loop_
  _atom_site_type_symbol
  _atom_site_label
  _atom_site_symmetry_multiplicity
  _atom_site_fract_x
  _atom_site_fract_y
  _atom_site_fract_z
  _atom_site_occupancy
  C   C1        1.0  0.004999976046909987  0.0033333441823885364  0.0003664093205661292  1.0000
  O   O1        1.0  0.004999976046909987  0.0033333441823885364  0.0006749548182105924  1.0000
  Ni  Ni1       1.0  1.3558968988444096e-08  0.0008332995913490475  0.9989617304885878  1.0000
  Ni  Ni2       1.0  0.0033333292716896845  0.002499987623338211  0.9998421241961156  1.0000
  Ni  Ni3       1.0  0.0016666802751320613  0.004166632913674129  0.9980730088349914  1.0000
  Ni  Ni4       1.0  1.3558968988444096e-08  0.0008332995913490475  0.9982951890568201  1.0000
  Ni  Ni5       1.0  0.00333334698242829  0.0024999662842661603  0.9991839110935573  1.0000
  Ni  Ni6       1.0  0.0016666227611126414  0.00416670048740229  0.0  1.0000
  Ni  Ni7       1.0  0.0016666802751320613  0.004166632913674129  0.9987395498836185  1.0000
  Ni  Ni8       1.0  0.00999998662795295  0.0008333367441977072  0.9997176207127354  1.0000
  Ni  Ni9       1.0  0.00333334698242829  0.0024999662842661603  0.9978508282300219  1.0000
  Sb  Sb1       1.0  0.0016666759600337843  0.004166639518625002  0.9993905806307753  1.0000
  Sb  Sb2       1.0  1.3558968988444096e-08  0.0008332995913490475  0.9976286480081932  1.0000
  Sb  Sb3       1.0  0.00333334698242829  0.0024999662842661603  0.9985173696617896  1.0000
  Ni  Ni10      1.0  1.3347833704808298e-08  0.005833299543082099  0.9989617304885878  1.0000
  Ni  Ni11      1.0  0.0033333292933194467  0.007499987765598692  0.9998421241961156  1.0000
  Ni  Ni12      1.0  0.0016666804512803753  0.009166633309971183  0.9980730088349914  1.0000
  Ni  Ni13      1.0  1.3347833704808298e-08  0.005833299543082099  0.9982951890568201  1.0000
  Ni  Ni14      1.0  0.0033333469215572524  0.007499966426526641  0.9991839110935573  1.0000
  Ni  Ni15      1.0  0.0016666226832243827  0.009166700375626198  0.0  1.0000
  Ni  Ni16      1.0  0.0016666804512803753  0.009166633309971183  0.9987395498836185  1.0000
  Ni  Ni17      1.0  0.009999986660065758  0.005833336632421616  0.9997176207127354  1.0000
  Ni  Ni18      1.0  0.0033333469215572524  0.007499966426526641  0.9978508282300219  1.0000
  Sb  Sb4       1.0  0.0016666757996447274  0.009166639406848911  0.9993905806307753  1.0000
  Sb  Sb5       1.0  1.3347833704808298e-08  0.005833299543082099  0.9976286480081932  1.0000
  Sb  Sb6       1.0  0.0033333469215572524  0.007499966426526641  0.9985173696617896  1.0000
  Ni  Ni19      1.0  0.005000013547968881  0.0008332995913490475  0.9989617304885878  1.0000
  Ni  Ni20      1.0  0.00833332931569011  0.002499987623338211  0.9998421241961156  1.0000
  Ni  Ni21      1.0  0.006666680209131423  0.004166632913674129  0.9980730088349914  1.0000
  Ni  Ni22      1.0  0.005000013547968881  0.0008332995913490475  0.9982951890568201  1.0000
  Ni  Ni23      1.0  0.008333347246430846  0.0024999662842661603  0.9991839110935573  1.0000
  Ni  Ni24      1.0  0.006666622915114132  0.00416670048740229  0.0  1.0000
  Ni  Ni25      1.0  0.006666680209131423  0.004166632913674129  0.9987395498836185  1.0000
  Ni  Ni26      1.0  0.004999986803954654  0.0008333367441977072  0.9997176207127354  1.0000
  Ni  Ni27      1.0  0.008333347246430846  0.0024999662842661603  0.9978508282300219  1.0000
  Sb  Sb7       1.0  0.006666676031534476  0.004166639518625002  0.9993905806307753  1.0000
  Sb  Sb8       1.0  0.005000013547968881  0.0008332995913490475  0.9976286480081932  1.0000
  Sb  Sb9       1.0  0.008333347246430846  0.0024999662842661603  0.9985173696617896  1.0000
  Ni  Ni28      1.0  0.005000013611836259  0.005833299543082099  0.9989617304885878  1.0000
  Ni  Ni29      1.0  0.008333329474821202  0.007499987765598692  0.9998421241961156  1.0000
  Ni  Ni30      1.0  0.006666680495280801  0.009166633309971183  0.9980730088349914  1.0000
  Ni  Ni31      1.0  0.005000013611836259  0.005833299543082099  0.9982951890568201  1.0000
  Ni  Ni32      1.0  0.008333346965557677  0.007499966426526641  0.9991839110935573  1.0000
  Ni  Ni33      1.0  0.006666622727224808  0.009166700375626198  0.0  1.0000
  Ni  Ni34      1.0  0.006666680495280801  0.009166633309971183  0.9987395498836185  1.0000
  Ni  Ni35      1.0  0.004999986396063203  0.005833336632421616  0.9997176207127354  1.0000
  Ni  Ni36      1.0  0.008333346965557677  0.007499966426526641  0.9978508282300219  1.0000
  Sb  Sb10      1.0  0.006666676063647282  0.009166639406848911  0.9993905806307753  1.0000
  Sb  Sb11      1.0  0.005000013611836259  0.005833299543082099  0.9976286480081932  1.0000
  Sb  Sb12      1.0  0.008333346965557677  0.007499966426526641  0.9985173696617896  1.0000
