data_image0
_chemical_formula_structural       HIn15Pt15
_chemical_formula_sum              "H1 In15 Pt15"
_cell_length_a       12.990091235108707
_cell_length_b       4.50980413075932
_cell_length_c       101.00096130371094
_cell_angle_alpha    94.17117875163957
_cell_angle_beta     92.59577105029325
_cell_angle_gamma    80.00359896973814

_space_group_name_H-M_alt    "P 1"
_space_group_IT_number       1

loop_
  _space_group_symop_operation_xyz
  'x, y, z'

loop_
  _atom_site_type_symbol
  _atom_site_label
  _atom_site_symmetry_multiplicity
  _atom_site_fract_x
  _atom_site_fract_y
  _atom_site_fract_z
  _atom_site_occupancy
  H   H1        1.0  0.008266707852573139  0.004013131459900056  0.00021136970471793487  1.0000
  In  In1       1.0  0.009501363179475154  0.008025773483820829  3.372208522154839e-05  1.0000
  In  In2       1.0  0.003945807546223241  0.0002479963452882481  0.9996926806966416  1.0000
  In  In3       1.0  0.008390252052824771  0.0024702185248961337  0.9993516391119159  1.0000
  In  In4       1.0  0.0089057355258027  0.0029662115552966926  0.9998143379419329  1.0000
  In  In5       1.0  0.0033501804752734637  0.005188433475104942  0.9994732964769709  1.0000
  In  In6       1.0  0.007794624981874994  0.007410655447653719  0.9991322548915726  1.0000
  In  In7       1.0  0.008985879123774548  0.007529781569009091  0.9995710235505032  1.0000
  In  In8       1.0  0.0034303234905226354  0.009752003362051512  0.9992299820817352  1.0000
  In  In9       1.0  0.004541434617173018  0.005307559182342097  0.9999120648394868  1.0000
  In  In10      1.0  0.0013843599876652993  0.0015283929794862692  0.9996924797197512  1.0000
  In  In11      1.0  0.005828804202905491  0.0037506153027703484  0.9993514384288645  1.0000
  In  In12      1.0  0.0069399153295558735  0.00930617067581326  3.352110844547039e-05  1.0000
  In  In13      1.0  0.0065072553961425215  0.008967599741343684  0.9996928815986095  1.0000
  In  In14      1.0  0.0009516996900502742  0.0011898219140232728  0.9993518399122986  1.0000
  In  In15      1.0  0.002062810743860322  0.006745377426514787  3.392288697782497e-05  1.0000
  Pt  Pt1       1.0  0.005612474236198815  0.008581329404852615  0.9991811186341888  1.0000
  Pt  Pt2       1.0  0.0067235853628491975  0.004136885225143201  0.99986320168701  1.0000
  Pt  Pt3       1.0  0.0011680298024376193  0.00635910739638479  0.999522159924825  1.0000
  Pt  Pt4       1.0  0.007561571457053581  0.003283862888324626  0.9995967617844579  1.0000
  Pt  Pt5       1.0  0.0020060162608436763  0.0055060848799709725  0.9992557203188805  1.0000
  Pt  Pt6       1.0  0.0031171272418133895  0.001061640565040546  0.9999378030753444  1.0000
  Pt  Pt7       1.0  0.0003300433804517296  0.007212129480720866  0.9997885995295781  1.0000
  Pt  Pt8       1.0  0.004774487559271754  0.009434352029023579  0.9994475579441405  1.0000
  Pt  Pt9       1.0  0.009218932065873283  0.0016565744488200292  0.9991065167319827  1.0000
  Pt  Pt10      1.0  0.0007810677097784855  0.002296143494154489  0.9999786097396595  1.0000
  Pt  Pt11      1.0  0.005225511997859012  0.00451836578151952  0.9996375681540108  1.0000
  Pt  Pt12      1.0  0.009669956504460541  0.006740587339950081  0.9992965265672676  1.0000
  Pt  Pt13      1.0  0.0071105476011890005  0.008199848848476297  0.9994067518721182  1.0000
  Pt  Pt14      1.0  0.008221658727839382  0.0037554046687668817  8.88349249395071e-05  1.0000
  Pt  Pt15      1.0  0.00266610309458747  0.005977627290045735  0.9997477934588614  1.0000
