data_image0
_chemical_formula_structural       CONi4Sb4Ni4Sb4Ni4Sb4Ni4Sb4
_chemical_formula_sum              "C1 O1 Ni16 Sb16"
_cell_length_a       8.011988450628989
_cell_length_b       6.5634298772474535
_cell_length_c       109.38057708740234
_cell_angle_alpha    75.22972990605237
_cell_angle_beta     107.76871239254264
_cell_angle_gamma    72.23128537291161

_space_group_name_H-M_alt    "P 1"
_space_group_IT_number       1

loop_
  _space_group_symop_operation_xyz
  'x, y, z'

loop_
  _atom_site_type_symbol
  _atom_site_label
  _atom_site_symmetry_multiplicity
  _atom_site_fract_x
  _atom_site_fract_y
  _atom_site_fract_z
  _atom_site_occupancy
  C   C1        1.0  0.005909145623175181  0.008098051262202867  0.00019839272313699644  1.0000
  O   O1        1.0  0.005909145623175181  0.008098051262202867  0.0003081010921508253  1.0000
  Ni  Ni1       1.0  3.2220344817936025e-05  0.00020833335968929647  0.999516027380454  1.0000
  Ni  Ni2       1.0  3.222023678092904e-05  0.005208333548484052  0.9992160002760513  1.0000
  Ni  Ni3       1.0  3.2220326991602056e-05  0.002708333393575535  0.9990659865674092  1.0000
  Ni  Ni4       1.0  3.222020760228057e-05  0.00770833370339257  0.9993660139860576  1.0000
  Sb  Sb1       1.0  0.0033655535832954426  0.009791666735514896  0.999090988832896  1.0000
  Sb  Sb2       1.0  0.00336555328587577  0.00479166674842394  0.9993910161976142  1.0000
  Sb  Sb3       1.0  0.00169888701725455  0.0006250000790678894  0.999341011780858  1.0000
  Sb  Sb4       1.0  0.0016988870845022336  0.005625000025818086  0.9990409844116118  1.0000
  Ni  Ni5       1.0  0.009774094349554334  0.0006679915899700824  8.206054249403296e-05  1.0000
  Ni  Ni6       1.0  3.222023678092904e-05  0.005208333548484052  0.9998160548012076  1.0000
  Ni  Ni7       1.0  3.2220326991602056e-05  0.002708333393575535  0.9996660410925655  1.0000
  Ni  Ni8       1.0  0.009967779502456373  0.007831803537705724  0.999954572980863  1.0000
  Sb  Sb5       1.0  0.0033655535832954426  0.009791666735514896  0.999691043085588  1.0000
  Sb  Sb6       1.0  0.00337581277136373  0.004956204121776932  0.999999641762016  1.0000
  Sb  Sb7       1.0  0.0017284998269017889  0.0006036909601425133  0.9999462224112552  1.0000
  Sb  Sb8       1.0  0.0016988870845022336  0.005625000025818086  0.9996410386643038  1.0000
  Ni  Ni9       1.0  0.005032220160501222  0.00020833335968929647  0.9995160277032912  1.0000
  Ni  Ni10      1.0  0.005032219899884153  0.005208333548484052  0.9992160003230133  1.0000
  Ni  Ni11      1.0  0.005032220051126851  0.002708333393575535  0.9990659866157354  1.0000
  Ni  Ni12      1.0  0.005032220236897653  0.00770833370339257  0.9993660137687409  1.0000
  Sb  Sb9       1.0  0.008365553368462718  0.009791666735514896  0.9990909888825866  1.0000
  Sb  Sb10      1.0  0.00836555355929924  0.00479166674842394  0.9993910159857545  1.0000
  Sb  Sb11      1.0  0.006698886802421824  0.0006250000790678894  0.9993410115580841  1.0000
  Sb  Sb12      1.0  0.006698886625541409  0.005625000025818086  0.9990409844558452  1.0000
  Ni  Ni13      1.0  0.004774094564387062  0.0006679915899700824  8.206076526792686e-05  1.0000
  Ni  Ni14      1.0  0.005032219899884153  0.005208333548484052  0.9998160545757052  1.0000
  Ni  Ni15      1.0  0.005032220051126851  0.002708333393575535  0.9996660408684274  1.0000
  Ni  Ni16      1.0  0.004967779229032903  0.007831803537705724  0.9999545731927225  1.0000
  Sb  Sb13      1.0  0.008365553368462718  0.009791666735514896  0.9996910434077431  1.0000
  Sb  Sb14      1.0  0.0083758130447872  0.004956204121776932  0.9999996420950854  1.0000
  Sb  Sb15      1.0  0.006728499856197161  0.0006036909601425133  0.9999462221939385  1.0000
  Sb  Sb16      1.0  0.006698886625541409  0.005625000025818086  0.9996410389810017  1.0000
