data_image0
_chemical_formula_structural       COSi24W12
_chemical_formula_sum              "C1 O1 Si24 W12"
_cell_length_a       8.010329246520996
_cell_length_b       8.112070777749352
_cell_length_c       102.44828033447266
_cell_angle_alpha    69.51567943136999
_cell_angle_beta     90.0
_cell_angle_gamma    90.0

_space_group_name_H-M_alt    "P 1"
_space_group_IT_number       1

loop_
  _space_group_symop_operation_xyz
  'x, y, z'

loop_
  _atom_site_type_symbol
  _atom_site_label
  _atom_site_symmetry_multiplicity
  _atom_site_fract_x
  _atom_site_fract_y
  _atom_site_fract_z
  _atom_site_occupancy
  C   C1        1.0  0.002472974171623248  0.001491387741860256  0.9998765332593104  1.0000
  O   O1        1.0  0.002472974171623248  0.001491387741860256  0.9999936657702663  1.0000
  Si  Si1       1.0  0.004187213704837906  0.009757462369310452  0.9991209317841417  1.0000
  Si  Si2       1.0  0.004218944339616015  0.004643504078711755  0.9995259759585146  1.0000
  Si  Si3       1.0  0.009187214207103594  0.00725746219282909  0.9993188871463271  1.0000
  Si  Si4       1.0  0.00918164835919399  0.002151340410068643  0.9997200395088519  1.0000
  Si  Si5       1.0  0.0008234762204059105  0.00559079573532552  0.9991869168519116  1.0000
  Si  Si6       1.0  0.0007236735286911721  0.00042926018347073046  0.9995961595978506  1.0000
  Si  Si7       1.0  0.005823476722671597  0.003090795558844157  0.9993848719231959  1.0000
  Si  Si8       1.0  0.005748337775891938  0.007909031873757688  0.9997866435584604  1.0000
  Si  Si9       1.0  0.0032741174737979523  0.004968747954777098  0.9997656554693697  1.0000
  Si  Si10      1.0  0.003369082195921061  0.0001969318911448288  0.9993500739500594  1.0000
  Si  Si11      1.0  0.008369082000595517  0.002696931807193625  0.9991521188859918  1.0000
  Si  Si12      1.0  0.00836766077472555  0.007633392496683876  0.9995528096803321  1.0000
  Si  Si13      1.0  0.0008054282563171778  0.004778975094448119  0.9995063307275682  1.0000
  Si  Si14      1.0  0.0008234762204059105  0.009803068094761173  0.9991173207744622  1.0000
  Si  Si15      1.0  0.005673609012756685  0.002186406031251351  0.9997222177229957  1.0000
  Si  Si16      1.0  0.005823476722671597  0.007303067918279811  0.9993152758457465  1.0000
  Si  Si17      1.0  0.004187213704837906  0.00563640146077624  0.9991833058422321  1.0000
  Si  Si18      1.0  0.004194514229611049  0.0005167157984570603  0.9995861925663369  1.0000
  Si  Si19      1.0  0.009187214207103594  0.0031364015294078817  0.9993812611976255  1.0000
  Si  Si20      1.0  0.009209322268427689  0.007911749196515652  0.9997807665293232  1.0000
  Si  Si21      1.0  0.001641607729322756  0.002696931807193625  0.9991521188859918  1.0000
  Si  Si22      1.0  0.0015889537756628746  0.00762898193329701  0.9995454010475041  1.0000
  Si  Si23      1.0  0.006641607999058032  0.0001969318911448288  0.9993500739500594  1.0000
  Si  Si24      1.0  0.006780209145515552  0.004957511484465844  0.9997593907190426  1.0000
  W   W1        1.0  0.009994655595451077  0.005116939845174548  0.9997281652769067  1.0000
  W   W2        1.0  5.344800050451798e-06  0.0001969318911448288  0.9993500739500594  1.0000
  W   W3        1.0  0.0050053449812243415  0.002696931807193625  0.9991521188859918  1.0000
  W   W4        1.0  0.00508199026000427  0.007612048056329964  0.9995462647448385  1.0000
  W   W5        1.0  0.0025053449626219085  0.0031135986666825212  0.9993830665570147  1.0000
  W   W6        1.0  0.0024650523255928163  0.007965622093351958  0.9997604279788495  1.0000
  W   W7        1.0  0.007452305743276426  0.0005545304845316987  0.9995884278370005  1.0000
  W   W8        1.0  0.007505344999826774  0.00561359859805088  0.9991851112016213  1.0000
  W   W9        1.0  0.002472974171623248  0.002289022590210527  0.999696055596363  1.0000
  W   W10       1.0  0.0025053449626219085  0.00728026505555445  0.999317081786938  1.0000
  W   W11       1.0  0.007505344999826774  0.009780264741809805  0.9991191261474355  1.0000
  W   W12       1.0  0.007506208152711151  0.004763508463920652  0.9995094105788159  1.0000
