data_image0
_chemical_formula_structural       HCo5Pt15Co5Pt15
_chemical_formula_sum              "H1 Co10 Pt30"
_cell_length_a       8.68771479210869
_cell_length_b       5.494593143463135
_cell_length_c       110.37684631347656
_cell_angle_alpha    90.0
_cell_angle_beta     104.96321761551792
_cell_angle_gamma    71.56505165514058

_space_group_name_H-M_alt    "P 1"
_space_group_IT_number       1

loop_
  _space_group_symop_operation_xyz
  'x, y, z'

loop_
  _atom_site_type_symbol
  _atom_site_label
  _atom_site_symmetry_multiplicity
  _atom_site_fract_x
  _atom_site_fract_y
  _atom_site_fract_z
  _atom_site_occupancy
  H   H1        1.0  0.008094399864923154  0.005702800571964485  0.00027019866126396007  1.0000
  Co  Co1       1.0  0.004499999969937496  0.002500000234700666  9.145226378311587e-05  1.0000
  Co  Co2       1.0  0.008500000360750057  0.0005000000392943848  0.9999695162000055  1.0000
  Co  Co3       1.0  0.0004999999901357406  0.004500000224601544  0.9996037068756923  1.0000
  Co  Co4       1.0  0.002500000009394533  0.008500000499728795  0.9998475798403396  1.0000
  Co  Co5       1.0  0.0065000001653437766  0.006500000421754173  0.9997256432317785  1.0000
  Pt  Pt1       1.0  0.005500000067640637  0.0044999998197334055  0.999908548017786  1.0000
  Pt  Pt2       1.0  0.009499999518999925  0.002500000094053761  0.9997866113949057  1.0000
  Pt  Pt3       1.0  0.0015000000291230517  0.006499999838992198  3.0484088723215743e-05  1.0000
  Pt  Pt4       1.0  0.0034999998722343552  0.0005000001411739125  0.9996646750495589  1.0000
  Pt  Pt5       1.0  0.00749999979332028  0.00850000058064624  0.00015242043645648462  1.0000
  Pt  Pt6       1.0  0.002500000009394533  0.0035000002149721474  0.9998475798403396  1.0000
  Pt  Pt7       1.0  0.0065000001653437766  0.0015000001369975251  0.9997256432317785  1.0000
  Pt  Pt8       1.0  0.008500000360750057  0.005500000324051032  0.9999695162000055  1.0000
  Pt  Pt9       1.0  0.0004999999901357406  0.00950000050935819  0.9996037068756923  1.0000
  Pt  Pt10      1.0  0.004499999969937496  0.007500000519457314  9.145226378311587e-05  1.0000
  Pt  Pt11      1.0  0.005500000067640637  0.009500000443486062  0.999908548017786  1.0000
  Pt  Pt12      1.0  0.009499999518999925  0.007500000717806418  0.9997866113949057  1.0000
  Pt  Pt13      1.0  0.0015000000291230517  0.0015000000627295642  3.0484088723215743e-05  1.0000
  Pt  Pt14      1.0  0.0034999998722343552  0.005499999917436546  0.9996646750495589  1.0000
  Pt  Pt15      1.0  0.00749999979332028  0.003499999956893583  0.00015242043645648462  1.0000
  Co  Co6       1.0  0.004499999969937496  0.002500000234700666  0.9994817708035618  1.0000
  Co  Co7       1.0  0.008500000360750057  0.0005000000392943848  0.9993598341997738  1.0000
  Co  Co8       1.0  0.0004999999901357406  0.004500000224601544  0.9989940251454659  1.0000
  Co  Co9       1.0  0.002500000009394533  0.008500000499728795  0.9992378978401079  1.0000
  Co  Co10      1.0  0.0065000001653437766  0.006500000421754173  0.9991159615015519  1.0000
  Pt  Pt16      1.0  0.005500000067640637  0.0044999998197334055  0.9992988660175542  1.0000
  Pt  Pt17      1.0  0.009499999518999925  0.002500000094053761  0.9991769296646792  1.0000
  Pt  Pt18      1.0  0.0015000000291230517  0.006499999838992198  0.999420802628502  1.0000
  Pt  Pt19      1.0  0.0034999998722343552  0.0005000001411739125  0.9990549933193325  1.0000
  Pt  Pt20      1.0  0.00749999979332028  0.00850000058064624  0.9995427389762351  1.0000
  Pt  Pt21      1.0  0.002500000009394533  0.0035000002149721474  0.9992378978401079  1.0000
  Pt  Pt22      1.0  0.0065000001653437766  0.0015000001369975251  0.9991159615015519  1.0000
  Pt  Pt23      1.0  0.008500000360750057  0.005500000324051032  0.9993598341997738  1.0000
  Pt  Pt24      1.0  0.0004999999901357406  0.00950000050935819  0.9989940251454659  1.0000
  Pt  Pt25      1.0  0.004499999969937496  0.007500000519457314  0.9994817708035618  1.0000
  Pt  Pt26      1.0  0.005500000067640637  0.009500000443486062  0.9992988660175542  1.0000
  Pt  Pt27      1.0  0.009499999518999925  0.007500000717806418  0.9991769296646792  1.0000
  Pt  Pt28      1.0  0.0015000000291230517  0.0015000000627295642  0.999420802628502  1.0000
  Pt  Pt29      1.0  0.0034999998722343552  0.005499999917436546  0.9990549933193325  1.0000
  Pt  Pt30      1.0  0.00749999979332028  0.003499999956893583  0.9995427389762351  1.0000
