data_image0
_chemical_formula_structural       COPt4Rh12Pt4Rh12
_chemical_formula_sum              "C1 O1 Pt8 Rh24"
_cell_length_a       5.496158599853516
_cell_length_b       8.669592085125092
_cell_length_c       102.9769515991211
_cell_angle_alpha    108.48033030586807
_cell_angle_beta     90.0
_cell_angle_gamma    71.51966969413193

_space_group_name_H-M_alt    "P 1"
_space_group_IT_number       1

loop_
  _space_group_symop_operation_xyz
  'x, y, z'

loop_
  _atom_site_type_symbol
  _atom_site_label
  _atom_site_symmetry_multiplicity
  _atom_site_fract_x
  _atom_site_fract_y
  _atom_site_fract_z
  _atom_site_occupancy
  C   C1        1.0  0.00981325859533692  0.0019969638348608493  0.00021181822101246184  1.0000
  O   O1        1.0  0.00981325859533692  0.0019969638348608493  0.0003283488089518383  1.0000
  Pt  Pt1       1.0  0.0001867409341086023  0.0012500000384560671  0.9994996311103996  1.0000
  Pt  Pt2       1.0  0.005186740629099093  0.0012500000384560671  0.9992327676943478  1.0000
  Pt  Pt3       1.0  0.007686740416627176  0.006250000192280335  0.9993661994643602  1.0000
  Pt  Pt4       1.0  0.0026867405521869593  0.006250000192280335  0.9990993357589008  1.0000
  Rh  Rh1       1.0  0.006436740981937799  0.003749999875017782  0.999166051864914  1.0000
  Rh  Rh2       1.0  0.0014367407785981269  0.003749999875017782  0.9994329152809658  1.0000
  Rh  Rh3       1.0  0.0014367407785981269  0.003749999875017782  0.999166051864914  1.0000
  Rh  Rh4       1.0  0.006436740981937799  0.003749999875017782  0.9994329152809658  1.0000
  Rh  Rh5       1.0  0.007686740416627176  0.006250000192280335  0.9990993357589008  1.0000
  Rh  Rh6       1.0  0.0026867405521869593  0.006250000192280335  0.9993661994643602  1.0000
  Rh  Rh7       1.0  0.008936739971491765  0.00875000026919247  0.9992994836413406  1.0000
  Rh  Rh8       1.0  0.003936740784850456  0.00875000026919247  0.9990326199358811  1.0000
  Rh  Rh9       1.0  0.003936740784850456  0.00875000026919247  0.9992994836413406  1.0000
  Rh  Rh10      1.0  0.008936739971491765  0.00875000026919247  0.9990326199358811  1.0000
  Rh  Rh11      1.0  0.0001867409341086023  0.0012500000384560671  0.9992327676943478  1.0000
  Rh  Rh12      1.0  0.005186740629099093  0.0012500000384560671  0.9994996311103996  1.0000
  Pt  Pt5       1.0  0.0001867409341086023  0.0012500000384560671  3.3357942503107534e-05  1.0000
  Pt  Pt6       1.0  0.005186740629099093  0.0012500000384560671  0.9997664945264514  1.0000
  Pt  Pt7       1.0  0.007686740416627176  0.006250000192280335  0.9998999262964637  1.0000
  Pt  Pt8       1.0  0.0026867405521869593  0.006250000192280335  0.999633062880412  1.0000
  Rh  Rh13      1.0  0.006436740981937799  0.003749999875017782  0.9996997789864253  1.0000
  Rh  Rh14      1.0  0.0014367407785981269  0.003749999875017782  0.999966642402477  1.0000
  Rh  Rh15      1.0  0.0014367407785981269  0.003749999875017782  0.9996997789864253  1.0000
  Rh  Rh16      1.0  0.006436740981937799  0.003749999875017782  0.999966642402477  1.0000
  Rh  Rh17      1.0  0.007686740416627176  0.006250000192280335  0.999633062880412  1.0000
  Rh  Rh18      1.0  0.0026867405521869593  0.006250000192280335  0.9998999262964637  1.0000
  Rh  Rh19      1.0  0.008936739971491765  0.00875000026919247  0.9998332107628518  1.0000
  Rh  Rh20      1.0  0.003936740784850456  0.00875000026919247  0.9995663470573923  1.0000
  Rh  Rh21      1.0  0.003936740784850456  0.00875000026919247  0.9998332107628518  1.0000
  Rh  Rh22      1.0  0.008936739971491765  0.00875000026919247  0.9995663470573923  1.0000
  Rh  Rh23      1.0  0.0001867409341086023  0.0012500000384560671  0.9997664945264514  1.0000
  Rh  Rh24      1.0  0.005186740629099093  0.0012500000384560671  3.3357942503107534e-05  1.0000
