data_image0
_chemical_formula_structural       COIn12Pd8In12Pd8
_chemical_formula_sum              "C1 O1 In24 Pd16"
_cell_length_a       12.190405499341116
_cell_length_b       8.079340934753418
_cell_length_c       102.65226745605469
_cell_angle_alpha    90.0
_cell_angle_beta     78.96999809034234
_cell_angle_gamma    70.64737350346395

_space_group_name_H-M_alt    "P 1"
_space_group_IT_number       1

loop_
  _space_group_symop_operation_xyz
  'x, y, z'

loop_
  _atom_site_type_symbol
  _atom_site_label
  _atom_site_symmetry_multiplicity
  _atom_site_fract_x
  _atom_site_fract_y
  _atom_site_fract_z
  _atom_site_occupancy
  C   C1        1.0  0.009844074811067126  0.003224742454963665  0.9999415628921652  1.0000
  O   O1        1.0  0.009844074811067126  0.003224742454963665  5.846206070214066e-05  1.0000
  In  In1       1.0  0.005884144986134338  0.0018713739849139646  0.9998663096350277  1.0000
  In  In2       1.0  0.000884144655369504  0.004371374150296381  0.9995255033861798  1.0000
  In  In3       1.0  0.000884144655369504  0.009371374224070524  0.99975270732483  1.0000
  In  In4       1.0  0.005884144986134338  0.006871374058688107  0.9996391051157313  1.0000
  In  In5       1.0  0.009097860745358708  0.001931182796559827  0.999566088078629  1.0000
  In  In6       1.0  0.004097861076123542  0.00443118263117741  0.9996796902726974  1.0000
  In  In7       1.0  0.004097861076123542  0.009431182704951553  0.9999068947919938  1.0000
  In  In8       1.0  0.009097860745358708  0.006931182870333969  0.9997932925979254  1.0000
  In  In9       1.0  0.0076704285653803  0.00931156565158122  0.9995985199662804  1.0000
  In  In10      1.0  0.0026704285653803  0.001811565504032936  0.9997121221678639  1.0000
  In  In11      1.0  0.0026704285653803  0.006811565577807078  0.9999393266871602  1.0000
  In  In12      1.0  0.0076704285653803  0.004311565577807079  0.9998257244855767  1.0000
  Pd  Pd1       1.0  0.0066123641218061345  0.0031739311083361136  0.9996225596563219  1.0000
  Pd  Pd2       1.0  0.0016123639564237177  0.0056739311910273225  0.9997361618616629  1.0000
  Pd  Pd3       1.0  0.0016123639564237177  0.0006739311172531797  0.9995089579230128  1.0000
  Pd  Pd4       1.0  0.0066123641218061345  0.008173931182110256  0.9998497641756181  1.0000
  Pd  Pd5       1.0  0.00015592525095127965  0.008068817235021588  0.9995420488516954  1.0000
  Pd  Pd6       1.0  0.005155925519697707  0.0005688170268742325  0.9996556505826559  1.0000
  Pd  Pd7       1.0  0.005155925519697707  0.005568817100648374  0.9998828551019523  1.0000
  Pd  Pd8       1.0  0.00015592525095127965  0.003068817161247446  0.9997692527903456  1.0000
  In  In13      1.0  0.005884144986134338  0.0018713739849139646  0.9994119011770811  1.0000
  In  In14      1.0  0.000884144655369504  0.004371374150296381  0.9990710943475872  1.0000
  In  In15      1.0  0.000884144655369504  0.009371374224070524  0.9992982985765604  1.0000
  In  In16      1.0  0.005884144986134338  0.006871374058688107  0.9991846963674618  1.0000
  In  In17      1.0  0.009097860745358708  0.001931182796559827  0.9991116793303594  1.0000
  In  In18      1.0  0.004097861076123542  0.00443118263117741  0.9992252815244278  1.0000
  In  In19      1.0  0.004097861076123542  0.009431182704951553  0.9994524863340473  1.0000
  In  In20      1.0  0.009097860745358708  0.006931182870333969  0.9993388841399788  1.0000
  In  In21      1.0  0.0076704285653803  0.00931156565158122  0.9991441112180108  1.0000
  In  In22      1.0  0.0026704285653803  0.001811565504032936  0.9992577134195944  1.0000
  In  In23      1.0  0.0026704285653803  0.006811565577807078  0.9994849182292137  1.0000
  In  In24      1.0  0.0076704285653803  0.004311565577807079  0.9993713160276302  1.0000
  Pd  Pd9       1.0  0.0066123641218061345  0.0031739311083361136  0.9991681509080522  1.0000
  Pd  Pd10      1.0  0.0016123639564237177  0.0056739311910273225  0.9992817531133934  1.0000
  Pd  Pd11      1.0  0.0016123639564237177  0.0006739311172531797  0.9990545488844201  1.0000
  Pd  Pd12      1.0  0.0066123641218061345  0.008173931182110256  0.9993953557176717  1.0000
  Pd  Pd13      1.0  0.00015592525095127965  0.008068817235021588  0.9990876398131028  1.0000
  Pd  Pd14      1.0  0.005155925519697707  0.0005688170268742325  0.9992012418343864  1.0000
  Pd  Pd15      1.0  0.005155925519697707  0.005568817100648374  0.9994284466440058  1.0000
  Pd  Pd16      1.0  0.00015592525095127965  0.003068817161247446  0.9993148440420759  1.0000
