data_image0
_chemical_formula_structural       HAl4Au8Mn4Al4Au8Mn4
_chemical_formula_sum              "H1 Al8 Au16 Mn8"
_cell_length_a       8.927765846252441
_cell_length_b       6.3128838539123535
_cell_length_c       105.71106719970703
_cell_angle_alpha    90.0
_cell_angle_beta     90.0
_cell_angle_gamma    90.0

_space_group_name_H-M_alt    "P 1"
_space_group_IT_number       1

loop_
  _space_group_symop_operation_xyz
  'x, y, z'

loop_
  _atom_site_type_symbol
  _atom_site_label
  _atom_site_symmetry_multiplicity
  _atom_site_fract_x
  _atom_site_fract_y
  _atom_site_fract_z
  _atom_site_occupancy
  H   H1        1.0  0.002499999065314838  0.00500002166880667  8.712418430138916e-05  1.0000
  Al  Al1       1.0  0.009999997930339998  5.999999991815982e-09  0.9997771611705413  1.0000
  Al  Al2       1.0  6.500000022388643e-10  2.7000000807329777e-09  0.999349446763967  1.0000
  Al  Al3       1.0  0.002499999065314838  0.00500002166880667  0.9999705751907095  1.0000
  Al  Al4       1.0  0.0025000007343954846  0.005000002785315019  0.9995605827108667  1.0000
  Au  Au1       1.0  0.009999997930339998  0.007708634304717768  0.0  1.0000
  Au  Au2       1.0  6.500000022388643e-10  0.007500002407645185  0.9995605827108667  1.0000
  Au  Au3       1.0  0.009999999599420646  0.002291396935658732  0.9999999988723103  1.0000
  Au  Au4       1.0  6.500000022388643e-10  0.0025000025728757376  0.9995605827108667  1.0000
  Au  Au5       1.0  0.0025000007343954846  0.0025000025728757376  0.999349446763967  1.0000
  Au  Au6       1.0  0.0024999986480446763  0.0025243442787778935  0.999760797264221  1.0000
  Au  Au7       1.0  0.0025000007343954846  0.007500002407645185  0.999349446763967  1.0000
  Au  Au8       1.0  0.0024999982307745143  0.007475670438543412  0.999760797264221  1.0000
  Mn  Mn1       1.0  0.002499999065314838  0.00999999730910244  0.999968450623174  1.0000
  Mn  Mn2       1.0  0.0025000007343954846  2.7000000807329777e-09  0.9995605827108667  1.0000
  Mn  Mn3       1.0  6.500000022388643e-10  0.005000002785315019  0.999349446763967  1.0000
  Mn  Mn4       1.0  0.009999998764880322  0.005000018128151985  0.9998057695324349  1.0000
  Al  Al5       1.0  0.004999998130629676  5.999999991815982e-09  0.9997771611705413  1.0000
  Al  Al6       1.0  0.005000000634250646  2.7000000807329777e-09  0.999349446763967  1.0000
  Al  Al7       1.0  0.007499998865025161  0.00500002166880667  0.9999705751907095  1.0000
  Al  Al8       1.0  0.007500000534105807  0.005000002785315019  0.9995605827108667  1.0000
  Au  Au9       1.0  0.004999998130629676  0.007708634304717768  0.0  1.0000
  Au  Au10      1.0  0.005000000634250646  0.007500002407645185  0.9995605827108667  1.0000
  Au  Au11      1.0  0.004999999382440161  0.002291396935658732  0.9999999988723103  1.0000
  Au  Au12      1.0  0.005000000634250646  0.0025000025728757376  0.9995605827108667  1.0000
  Au  Au13      1.0  0.007500000534105807  0.0025000025728757376  0.999349446763967  1.0000
  Au  Au14      1.0  0.007499998865025161  0.0025243442787778935  0.999760797264221  1.0000
  Au  Au15      1.0  0.007500000534105807  0.007500002407645185  0.999349446763967  1.0000
  Au  Au16      1.0  0.007499998030484837  0.007475670438543412  0.999760797264221  1.0000
  Mn  Mn5       1.0  0.007499998865025161  0.00999999730910244  0.999968450623174  1.0000
  Mn  Mn6       1.0  0.007500000534105807  2.7000000807329777e-09  0.9995605827108667  1.0000
  Mn  Mn7       1.0  0.005000000634250646  0.005000002785315019  0.999349446763967  1.0000
  Mn  Mn8       1.0  0.004999998965169999  0.005000018128151985  0.9998057695324349  1.0000
