data_image0
_chemical_formula_structural       HCu6Ru18Cu6Ru18
_chemical_formula_sum              "H1 Cu12 Ru36"
_cell_length_a       7.443728446960449
_cell_length_b       10.823657983541787
_cell_length_c       104.7780990600586
_cell_angle_alpha    68.79563300704015
_cell_angle_beta     90.0
_cell_angle_gamma    90.0

_space_group_name_H-M_alt    "P 1"
_space_group_IT_number       1

loop_
  _space_group_symop_operation_xyz
  'x, y, z'

loop_
  _atom_site_type_symbol
  _atom_site_label
  _atom_site_symmetry_multiplicity
  _atom_site_fract_x
  _atom_site_fract_y
  _atom_site_fract_z
  _atom_site_occupancy
  H   H1        1.0  0.0012499999749769869  0.00303312189969898  0.9998866721444003  1.0000
  Cu  Cu1       1.0  0.0012499999749769869  0.0029166666100598534  0.9995913500932397  1.0000
  Cu  Cu2       1.0  0.0012499999749769869  0.009583332910012817  0.9990381478872434  1.0000
  Cu  Cu3       1.0  0.0012499999749769869  0.006249999852330052  0.9993147492712259  1.0000
  Cu  Cu4       1.0  0.003750000050046026  0.0029166666100598534  0.9991764486161918  1.0000
  Cu  Cu5       1.0  0.003750000050046026  0.009583332910012817  0.9994530493642912  1.0000
  Cu  Cu6       1.0  0.003750000050046026  0.006249999852330052  0.9997296507482738  1.0000
  Ru  Ru1       1.0  0.003750000050046026  0.0020833333456391624  0.9994530497007114  1.0000
  Ru  Ru2       1.0  0.003750000050046026  0.008749999645592126  0.9997296510176763  1.0000
  Ru  Ru3       1.0  0.003750000050046026  0.0054166665879093615  0.9991764483098321  1.0000
  Ru  Ru4       1.0  0.0012499999749769869  0.003750000059067979  0.9993147490018233  1.0000
  Ru  Ru5       1.0  0.0012499999749769869  0.00041666663221034554  0.9995913503995995  1.0000
  Ru  Ru6       1.0  0.0012499999749769869  0.0070833331167507434  0.9990381476178408  1.0000
  Ru  Ru7       1.0  0.0012499999749769869  0.0012499999889247538  0.9993147493116314  1.0000
  Ru  Ru8       1.0  0.0012499999749769869  0.007916666381171434  0.9995913500562825  1.0000
  Ru  Ru9       1.0  0.0012499999749769869  0.00458333332348867  0.9990381479173037  1.0000
  Ru  Ru10      1.0  0.0012499999749769869  0.0020833333456391624  0.9990381479392307  1.0000
  Ru  Ru11      1.0  0.0012499999749769869  0.008749999645592126  0.999314748971763  1.0000
  Ru  Ru12      1.0  0.0012499999749769869  0.0054166665879093615  0.9995913503557454  1.0000
  Ru  Ru13      1.0  0.003750000050046026  0.00041666663221034554  0.9991764483536861  1.0000
  Ru  Ru14      1.0  0.003750000050046026  0.0070833331167507434  0.9994530496637541  1.0000
  Ru  Ru15      1.0  0.003750000050046026  0.003750000059067979  0.9997296510477367  1.0000
  Ru  Ru16      1.0  0.003750000050046026  0.00458333332348867  0.9994530493943516  1.0000
  Ru  Ru17      1.0  0.003750000050046026  0.0012499999889247538  0.9997296507886794  1.0000
  Ru  Ru18      1.0  0.003750000050046026  0.007916666381171434  0.9991764485792346  1.0000
  Cu  Cu7       1.0  0.0062499999999999995  0.0029166666100598534  0.9995913500932397  1.0000
  Cu  Cu8       1.0  0.0062499999999999995  0.009583332910012817  0.9990381478872434  1.0000
  Cu  Cu9       1.0  0.0062499999999999995  0.006249999852330052  0.9993147492712259  1.0000
  Cu  Cu10      1.0  0.008750000200184105  0.0029166666100598534  0.9991764486161918  1.0000
  Cu  Cu11      1.0  0.008750000200184105  0.009583332910012817  0.9994530493642912  1.0000
  Cu  Cu12      1.0  0.008750000200184105  0.006249999852330052  0.9997296507482738  1.0000
  Ru  Ru19      1.0  0.008750000200184105  0.0020833333456391624  0.9994530497007114  1.0000
  Ru  Ru20      1.0  0.008750000200184105  0.008749999645592126  0.9997296510176763  1.0000
  Ru  Ru21      1.0  0.008750000200184105  0.0054166665879093615  0.9991764483098321  1.0000
  Ru  Ru22      1.0  0.0062499999999999995  0.003750000059067979  0.9993147490018233  1.0000
  Ru  Ru23      1.0  0.0062499999999999995  0.00041666663221034554  0.9995913503995995  1.0000
  Ru  Ru24      1.0  0.0062499999999999995  0.0070833331167507434  0.9990381476178408  1.0000
  Ru  Ru25      1.0  0.0062499999999999995  0.0012499999889247538  0.9993147493116314  1.0000
  Ru  Ru26      1.0  0.0062499999999999995  0.007916666381171434  0.9995913500562825  1.0000
  Ru  Ru27      1.0  0.0062499999999999995  0.00458333332348867  0.9990381479173037  1.0000
  Ru  Ru28      1.0  0.0062499999999999995  0.0020833333456391624  0.9990381479392307  1.0000
  Ru  Ru29      1.0  0.0062499999999999995  0.008749999645592126  0.999314748971763  1.0000
  Ru  Ru30      1.0  0.0062499999999999995  0.0054166665879093615  0.9995913503557454  1.0000
  Ru  Ru31      1.0  0.008750000200184105  0.00041666663221034554  0.9991764483536861  1.0000
  Ru  Ru32      1.0  0.008750000200184105  0.0070833331167507434  0.9994530496637541  1.0000
  Ru  Ru33      1.0  0.008750000200184105  0.003750000059067979  0.9997296510477367  1.0000
  Ru  Ru34      1.0  0.008750000200184105  0.00458333332348867  0.9994530493943516  1.0000
  Ru  Ru35      1.0  0.008750000200184105  0.0012499999889247538  0.9997296507886794  1.0000
  Ru  Ru36      1.0  0.008750000200184105  0.007916666381171434  0.9991764485792346  1.0000
