data_image0
_chemical_formula_structural       HGa16
_chemical_formula_sum              "H1 Ga16"
_cell_length_a       7.851481914520264
_cell_length_b       4.667665958404541
_cell_length_c       102.44055938720703
_cell_angle_alpha    90.0
_cell_angle_beta     90.0
_cell_angle_gamma    90.0

_space_group_name_H-M_alt    "P 1"
_space_group_IT_number       1

loop_
  _space_group_symop_operation_xyz
  'x, y, z'

loop_
  _atom_site_type_symbol
  _atom_site_label
  _atom_site_symmetry_multiplicity
  _atom_site_fract_x
  _atom_site_fract_y
  _atom_site_fract_z
  _atom_site_occupancy
  H   H1        1.0  0.008822599975852908  0.002499999920189441  0.00012026934412216973  1.0000
  Ga  Ga1       1.0  0.006204102268095758  0.0008180407223640935  0.9995376801795981  1.0000
  Ga  Ga2       1.0  0.008078944630281363  0.005818040512861376  0.9995376801795981  1.0000
  Ga  Ga3       1.0  0.0030789449339419742  0.009181958210169679  0.9995376801795981  1.0000
  Ga  Ga4       1.0  0.001204102097286665  0.0041819583697907965  0.9995376801795981  1.0000
  Ga  Ga5       1.0  0.001204102097286665  0.0008180407223640935  0.9993114822533388  1.0000
  Ga  Ga6       1.0  0.0030789449339419742  0.005818040512861376  0.9993114822533388  1.0000
  Ga  Ga7       1.0  0.008078944630281363  0.009181958210169679  0.9993114822533388  1.0000
  Ga  Ga8       1.0  0.006204102268095758  0.0041819583697907965  0.9993114822533388  1.0000
  Ga  Ga9       1.0  0.006322599653213509  0.00032649394851599607  0.0  1.0000
  Ga  Ga10      1.0  0.007960448668572723  0.005326493664190879  0.0  1.0000
  Ga  Ga11      1.0  0.0029604489722333343  0.009673505856945767  0.9999999994181539  1.0000
  Ga  Ga12      1.0  0.0013225997196392681  0.004673506016566884  0.9999999994181539  1.0000
  Ga  Ga13      1.0  0.0011774003657652784  0.0009072504213678279  0.9997658976938337  1.0000
  Ga  Ga14      1.0  0.0031056466654633607  0.005907250361509908  0.9997658976938337  1.0000
  Ga  Ga15      1.0  0.008105646836272453  0.009092750755837918  0.9997658976938337  1.0000
  Ga  Ga16      1.0  0.006177400062104667  0.004092750516406242  0.9997658976938337  1.0000
