data_image0
_chemical_formula_structural       HCo12Sb24
_chemical_formula_sum              "H1 Co12 Sb24"
_cell_length_a       6.624025797089115
_cell_length_b       14.4936360915001
_cell_length_c       106.87821197509766
_cell_angle_alpha    72.55241386428708
_cell_angle_beta     109.04215908856887
_cell_angle_gamma    78.02178143757314

_space_group_name_H-M_alt    "P 1"
_space_group_IT_number       1

loop_
  _space_group_symop_operation_xyz
  'x, y, z'

loop_
  _atom_site_type_symbol
  _atom_site_label
  _atom_site_symmetry_multiplicity
  _atom_site_fract_x
  _atom_site_fract_y
  _atom_site_fract_z
  _atom_site_occupancy
  H   H1        1.0  0.006881648386148662  0.006532429451881076  0.9999637951751678  1.0000
  Co  Co1       1.0  0.007165025887512868  0.007219101444040543  0.9994400684709414  1.0000
  Co  Co2       1.0  0.007165025536932939  0.0038857682825120788  0.9991525276613555  1.0000
  Co  Co3       1.0  0.007202346984295068  0.0005579917199674093  0.999719190751805  1.0000
  Co  Co4       1.0  0.007562639514114092  0.007109191569667929  0.9998638637195777  1.0000
  Co  Co5       1.0  0.007818193537442413  0.003748777951965008  0.9996074730643189  1.0000
  Co  Co6       1.0  0.00781819332068167  0.00041544461147313835  0.9993199322647156  1.0000
  Co  Co7       1.0  0.002743387965630118  0.005517328399464006  0.9997348481921745  1.0000
  Co  Co8       1.0  0.0028181932698072287  0.002087074670702753  0.9994641306740458  1.0000
  Co  Co9       1.0  0.002818193245272237  0.00875374156644258  0.9991765901252606  1.0000
  Co  Co10      1.0  0.0021650257032404356  0.005557398449119736  0.9992967260707113  1.0000
  Co  Co11      1.0  0.0019149875075951766  0.00229067317637607  0.9998410939861111  1.0000
  Co  Co12      1.0  0.0021650252447627644  0.00889073189698965  0.9995842671311383  1.0000
  Sb  Sb1       1.0  0.008327792337682228  0.005333738288863819  0.999210124365431  1.0000
  Sb  Sb2       1.0  0.008410502196666463  0.0019364272847573621  0.9997828884778902  1.0000
  Sb  Sb3       1.0  0.008327791284257658  0.008667071736733733  0.9994976654138276  1.0000
  Sb  Sb4       1.0  0.006655426757823177  0.008009898067942  0.9991797326978887  1.0000
  Sb  Sb5       1.0  0.006676084139088241  0.004620484074650728  0.9997675372565723  1.0000
  Sb  Sb6       1.0  0.00665542627077402  0.0013432314585436226  0.9994672732246865  1.0000
  Sb  Sb7       1.0  0.001655426658633647  0.0073057712737493894  0.9991189931583137  1.0000
  Sb  Sb8       1.0  0.0017140350006618049  0.003994419399875971  0.9996967602736864  1.0000
  Sb  Sb9       1.0  0.001655426659476039  0.0006391048075217364  0.9994065336891557  1.0000
  Sb  Sb10      1.0  0.0033277922384926982  0.004629611494671209  0.9991493848258559  1.0000
  Sb  Sb11      1.0  0.003477328850152802  0.0012274319700823124  0.9997339607592399  1.0000
  Sb  Sb12      1.0  0.0033277923749619265  0.007962944942541123  0.9994369258983133  1.0000
  Sb  Sb13      1.0  0.006289674636641487  0.005610778221996448  0.9994079000092585  1.0000
  Sb  Sb14      1.0  0.006289674286061558  0.002277445060467984  0.9991203591996727  1.0000
  Sb  Sb15      1.0  0.006309499183739508  0.008931564760264861  0.9996985560893377  1.0000
  Sb  Sb16      1.0  0.008768155372734922  0.006243288156441208  0.9997209015518448  1.0000
  Sb  Sb17      1.0  0.00869354378492614  0.002964061216044944  0.999433212068158  1.0000
  Sb  Sb18      1.0  0.008693544057864598  0.00963072811178477  0.999145671525388  1.0000
  Sb  Sb19      1.0  0.0037529921058422774  0.007014011672102115  0.9997836264276777  1.0000
  Sb  Sb20      1.0  0.003693544223205159  0.003695397892746848  0.9994962991297135  1.0000
  Sb  Sb21      1.0  0.0036935446281551555  0.0003620645164622968  0.9992087583441372  1.0000
  Sb  Sb22      1.0  0.0012896744799736073  0.006342114898698352  0.999470986501096  1.0000
  Sb  Sb23      1.0  0.0012896744268671282  0.0030087817371698875  0.9991834459763691  1.0000
  Sb  Sb24      1.0  0.0012318444127220054  0.009637935898732805  0.9997617784054149  1.0000
