data_image0
_chemical_formula_structural       HFe6Sb6Ti6
_chemical_formula_sum              "H1 Fe6 Sb6 Ti6"
_cell_length_a       5.964779376983643
_cell_length_b       7.30533316372278
_cell_length_c       102.12132263183594
_cell_angle_alpha    94.34775286631421
_cell_angle_beta     90.0
_cell_angle_gamma    114.09484180578588

_space_group_name_H-M_alt    "P 1"
_space_group_IT_number       1

loop_
  _space_group_symop_operation_xyz
  'x, y, z'

loop_
  _atom_site_type_symbol
  _atom_site_label
  _atom_site_symmetry_multiplicity
  _atom_site_fract_x
  _atom_site_fract_y
  _atom_site_fract_z
  _atom_site_occupancy
  H   H1        1.0  0.001299364757453524  0.007822960402183131  4.2424826548154064e-05  1.0000
  Fe  Fe1       1.0  0.003541666622302314  0.002337123808039946  0.9996004377213497  1.0000
  Fe  Fe2       1.0  0.009375000234710749  0.004003790545709468  0.9993383203602321  1.0000
  Fe  Fe3       1.0  0.007644487178011873  0.0005795428077101998  0.9998697602937239  1.0000
  Fe  Fe4       1.0  0.006458333359155126  0.008170456969471631  0.99946937885873  1.0000
  Fe  Fe5       1.0  0.004747442257018448  0.004579201512775169  0.9999830542173459  1.0000
  Fe  Fe6       1.0  0.0006250000430208763  0.006503790512076537  0.9997314965132  1.0000
  Sb  Sb1       1.0  0.009583333448534096  0.009420457373066807  0.9996659667915776  1.0000
  Sb  Sb2       1.0  0.005416666709463202  0.0010871238949250186  0.9994038494993295  1.0000
  Sb  Sb3       1.0  0.0037048758436443716  0.0075991495002989485  0.9999286979662114  1.0000
  Sb  Sb4       1.0  0.0068052954966471724  0.003527114373688809  0.9997866804362884  1.0000
  Sb  Sb5       1.0  0.002500000077389022  0.005253790669030216  0.9995349082915598  1.0000
  Sb  Sb6       1.0  0.0008173472222516217  0.0018433360413971699  6.34434167224876e-05  1.0000
  Ti  Ti1       1.0  0.0018665195379579066  0.003518745379283679  0.9997983381177601  1.0000
  Ti  Ti2       1.0  0.007500000096515802  0.005253790669030216  0.9995349082915598  1.0000
  Ti  Ti3       1.0  0.005899804044472951  0.0018491913945992726  2.8815974210418883e-05  1.0000
  Ti  Ti4       1.0  0.004583333429407317  0.009420457373066807  0.9996659667915776  1.0000
  Ti  Ti5       1.0  0.00041666664154362015  0.0010871238949250186  0.9994038494993295  1.0000
  Ti  Ti6       1.0  0.008677417844296932  0.007613899222320529  0.9999136837943489  1.0000
