data_image0
_chemical_formula_structural       COAl24
_chemical_formula_sum              "C1 O1 Al24"
_cell_length_a       8.119890213012695
_cell_length_b       4.972396935794978
_cell_length_c       102.7323226928711
_cell_angle_alpha    92.90252575642576
_cell_angle_beta     90.0
_cell_angle_gamma    114.09484261152664

_space_group_name_H-M_alt    "P 1"
_space_group_IT_number       1

loop_
  _space_group_symop_operation_xyz
  'x, y, z'

loop_
  _atom_site_type_symbol
  _atom_site_label
  _atom_site_symmetry_multiplicity
  _atom_site_fract_x
  _atom_site_fract_y
  _atom_site_fract_z
  _atom_site_occupancy
  C   C1        1.0  0.001863421073007675  0.0044494757563275636  0.00010747151586076624  1.0000
  O   O1        1.0  0.001863421073007675  0.0044494757563275636  0.00022427958949816884  1.0000
  Al  Al1       1.0  0.004431400987428097  0.008055555500757787  0.9993126497493544  1.0000
  Al  Al2       1.0  0.0013758453828718743  0.0058333332511366805  0.9991356400228059  1.0000
  Al  Al3       1.0  0.0024869565639609225  0.0002777778068890921  0.9994896595543676  1.0000
  Al  Al4       1.0  0.0029036232165000394  0.0019444444170455602  0.999224144925344  1.0000
  Al  Al5       1.0  0.004848067736291415  0.009722222496211063  0.999047135121275  1.0000
  Al  Al6       1.0  0.0009591787869340674  0.004166666666666667  0.9994011546518925  1.0000
  Al  Al7       1.0  0.003611349911673299  0.004773163707061126  0.9998471504171353  1.0000
  Al  Al8       1.0  0.0005425121193109796  0.0025000000821966523  0.9996666692809791  1.0000
  Al  Al9       1.0  0.0016679893676027069  0.007002481582689306  1.7162412550569837e-05  1.0000
  Al  Al10      1.0  0.0021024598693930086  0.008742131807658255  0.9997624294088651  1.0000
  Al  Al11      1.0  0.0040147343413105925  0.006388888916287773  0.9995781640883442  1.0000
  Al  Al12      1.0  0.00015193239907966495  0.0009368161033039634  0.9999515256181424  1.0000
  Al  Al13      1.0  0.00943140091402237  0.008055555500757787  0.9993126497493544  1.0000
  Al  Al14      1.0  0.006375845388319956  0.0058333332511366805  0.9991356400228059  1.0000
  Al  Al15      1.0  0.007486956490555195  0.0002777778068890921  0.9994896595543676  1.0000
  Al  Al16      1.0  0.007903623143094311  0.0019444444170455602  0.999224144925344  1.0000
  Al  Al17      1.0  0.009848067662885688  0.009722222496211063  0.999047135121275  1.0000
  Al  Al18      1.0  0.005959178742202453  0.004166666666666667  0.9994011546518925  1.0000
  Al  Al19      1.0  0.00861134983826757  0.004773163707061126  0.9998471504171353  1.0000
  Al  Al20      1.0  0.005542512096084949  0.0025000000821966523  0.9996666692809791  1.0000
  Al  Al21      1.0  0.00666798933003962  0.007002481582689306  1.7162412550569837e-05  1.0000
  Al  Al22      1.0  0.007102460075559876  0.008742131807658255  0.9997624294088651  1.0000
  Al  Al23      1.0  0.009014734267904865  0.006388888916287773  0.9995781640883442  1.0000
  Al  Al24      1.0  0.0051519326482577016  0.0009368161033039634  0.9999515256181424  1.0000
