data_image0
_chemical_formula_structural       HTi3Pd5Ti3Pd5Ti3Pd5Ti3Pd5
_chemical_formula_sum              "H1 Ti12 Pd20"
_cell_length_a       6.651423454284668
_cell_length_b       6.651423454284668
_cell_length_c       104.65780639648438
_cell_angle_alpha    90.0
_cell_angle_beta     90.0
_cell_angle_gamma    90.0

_space_group_name_H-M_alt    "P 1"
_space_group_IT_number       1

loop_
  _space_group_symop_operation_xyz
  'x, y, z'

loop_
  _atom_site_type_symbol
  _atom_site_label
  _atom_site_symmetry_multiplicity
  _atom_site_fract_x
  _atom_site_fract_y
  _atom_site_fract_z
  _atom_site_occupancy
  H   H1        1.0  0.0012498043324970036  0.004999998633419088  1.9618232688726134e-05  1.0000
  Ti  Ti1       1.0  0.0012508100856413406  0.0025000004368578325  0.0  1.0000
  Ti  Ti2       1.0  0.0012501955442866845  0.0025000012769690483  0.9992080873450215  1.0000
  Ti  Ti3       1.0  0.0037501954210703726  1.4000000178171947e-09  0.9996090534493809  1.0000
  Pd  Pd1       1.0  0.003749804209280692  0.009999998386986465  0.9999018963071309  1.0000
  Pd  Pd2       1.0  0.0012501955442866845  0.0025000012769690483  0.9994766197002444  1.0000
  Pd  Pd3       1.0  0.0012519295338369377  0.002500003237228553  0.9997436741527812  1.0000
  Pd  Pd4       1.0  0.0037501954210703726  1.4000000178171947e-09  0.999324315990871  1.0000
  Pd  Pd5       1.0  0.0037501954210703726  1.4000000178171947e-09  0.9990571308336458  1.0000
  Ti  Ti4       1.0  0.0012508100856413406  0.007500000470462281  0.0  1.0000
  Ti  Ti5       1.0  0.0012501955442866845  0.007500001030536425  0.9992080873450215  1.0000
  Ti  Ti6       1.0  0.0037501954210703726  0.005000001433789809  0.9996090534493809  1.0000
  Pd  Pd6       1.0  0.003749804209280692  0.004999998633419088  0.9999018963071309  1.0000
  Pd  Pd7       1.0  0.0012501955442866845  0.007500001030536425  0.9994766197002444  1.0000
  Pd  Pd8       1.0  0.0012519295338369377  0.007500003270833002  0.9997436741527812  1.0000
  Pd  Pd9       1.0  0.0037501954210703726  0.005000001433789809  0.999324315990871  1.0000
  Pd  Pd10      1.0  0.0037501954210703726  0.005000001433789809  0.9990571308336458  1.0000
  Ti  Ti7       1.0  0.006250809979227253  0.0025000004368578325  0.0  1.0000
  Ti  Ti8       1.0  0.006250195577891133  0.0025000012769690483  0.9992080873450215  1.0000
  Ti  Ti9       1.0  0.00875019517463775  1.4000000178171947e-09  0.9996090534493809  1.0000
  Pd  Pd11      1.0  0.00874980424288514  0.009999998386986465  0.9999018963071309  1.0000
  Pd  Pd12      1.0  0.006250195577891133  0.0025000012769690483  0.9994766197002444  1.0000
  Pd  Pd13      1.0  0.006251929567441386  0.002500003237228553  0.9997436741527812  1.0000
  Pd  Pd14      1.0  0.00875019517463775  1.4000000178171947e-09  0.999324315990871  1.0000
  Pd  Pd15      1.0  0.00875019517463775  1.4000000178171947e-09  0.9990571308336458  1.0000
  Ti  Ti10      1.0  0.006250809979227253  0.007500000470462281  0.0  1.0000
  Ti  Ti11      1.0  0.006250195577891133  0.007500001030536425  0.9992080873450215  1.0000
  Ti  Ti12      1.0  0.00875019517463775  0.005000001433789809  0.9996090534493809  1.0000
  Pd  Pd16      1.0  0.00874980424288514  0.004999998633419088  0.9999018963071309  1.0000
  Pd  Pd17      1.0  0.006250195577891133  0.007500001030536425  0.9994766197002444  1.0000
  Pd  Pd18      1.0  0.006251929567441386  0.007500003270833002  0.9997436741527812  1.0000
  Pd  Pd19      1.0  0.00875019517463775  0.005000001433789809  0.999324315990871  1.0000
  Pd  Pd20      1.0  0.00875019517463775  0.005000001433789809  0.9990571308336458  1.0000
