data_image0
_chemical_formula_structural       HSn4Pd8Sn4Pd8
_chemical_formula_sum              "H1 Sn8 Pd16"
_cell_length_a       5.776950359344482
_cell_length_b       9.412706627322969
_cell_length_c       105.2656021118164
_cell_angle_alpha    117.92558513217868
_cell_angle_beta     90.0
_cell_angle_gamma    90.0

_space_group_name_H-M_alt    "P 1"
_space_group_IT_number       1

loop_
  _space_group_symop_operation_xyz
  'x, y, z'

loop_
  _atom_site_type_symbol
  _atom_site_label
  _atom_site_symmetry_multiplicity
  _atom_site_fract_x
  _atom_site_fract_y
  _atom_site_fract_z
  _atom_site_occupancy
  H   H1        1.0  0.0016746005714191735  0.005337443205201815  0.00029509582515300305  1.0000
  Sn  Sn1       1.0  0.002963397491469973  0.006123807324288594  0.9996104514486264  1.0000
  Sn  Sn2       1.0  0.007036602482735863  0.003886678545943083  0.9997261519344417  1.0000
  Sn  Sn3       1.0  0.007963397800999956  0.008886678223432682  0.9997261520002082  1.0000
  Sn  Sn4       1.0  0.002036602656846477  0.0011238074228334383  0.9996104513734807  1.0000
  Pd  Pd1       1.0  0.009510466054754781  0.002090698082290091  0.9998603263574052  1.0000
  Pd  Pd2       1.0  0.0004895339194510539  0.00791978756397603  0.9994762770162838  1.0000
  Pd  Pd3       1.0  0.004510466067651864  0.0029197878864864303  0.9994762769505172  1.0000
  Pd  Pd4       1.0  0.005489534228981036  0.007090697983745247  0.9998603264325507  1.0000
  Pd  Pd5       1.0  0.008279729704800018  0.005608580386333632  0.9995888753261482  1.0000
  Pd  Pd6       1.0  0.0017202707530464148  0.004401905931829157  0.9997477280756778  1.0000
  Pd  Pd7       1.0  0.0032797293952700353  0.009401905609318756  0.9997477281414444  1.0000
  Pd  Pd8       1.0  0.0067202705789358  0.0006085804288870875  0.9995888752486578  1.0000
  Sn  Sn5       1.0  0.0028568595285049466  0.006137244361772845  2.6662228042310705e-05  1.0000
  Sn  Sn6       1.0  0.006947468810314497  0.003985200993928319  0.00016688798354827825  1.0000
  Sn  Sn7       1.0  0.008053361400686727  0.00898473213547524  0.0001668528571160582  1.0000
  Sn  Sn8       1.0  0.0021436993859152136  0.001137878058874976  2.6681041941043274e-05  1.0000
  Pd  Pd9       1.0  0.009463041547466671  0.0020738702062914126  0.0002527716797271626  1.0000
  Pd  Pd10      1.0  0.0004895339194510539  0.00791978756397603  0.9998950461589677  1.0000
  Pd  Pd11      1.0  0.004510466067651864  0.0029197878864864303  0.9998950460932011  1.0000
  Pd  Pd12      1.0  0.00553681170952749  0.007074103031924574  0.00025278179213775886  1.0000
  Pd  Pd13      1.0  0.00827527956644837  0.0055978882707009535  6.198450639606851e-06  1.0000
  Pd  Pd14      1.0  0.0016746005714191735  0.004362097398083561  0.0001563686865642447  1.0000
  Pd  Pd15      1.0  0.003325197415127498  0.00936204511556422  0.0001563334518929918  1.0000
  Pd  Pd16      1.0  0.0067240732837408525  0.000598094137600166  6.1953847059852305e-06  1.0000
