data_image0
_chemical_formula_structural       HIr12Rh4Ir12Rh4
_chemical_formula_sum              "H1 Ir24 Rh8"
_cell_length_a       5.480545520782471
_cell_length_b       8.66267539309037
_cell_length_c       102.88327026367188
_cell_angle_alpha    108.44118369265581
_cell_angle_beta     90.0
_cell_angle_gamma    71.55881630734419

_space_group_name_H-M_alt    "P 1"
_space_group_IT_number       1

loop_
  _space_group_symop_operation_xyz
  'x, y, z'

loop_
  _atom_site_type_symbol
  _atom_site_label
  _atom_site_symmetry_multiplicity
  _atom_site_fract_x
  _atom_site_fract_y
  _atom_site_fract_z
  _atom_site_occupancy
  H   H1        1.0  0.0021778912106666494  0.005686648109407586  0.00012956344899873342  1.0000
  Ir  Ir1       1.0  0.006261019629489168  0.002518549421425267  0.9992737164254869  1.0000
  Ir  Ir2       1.0  0.0012610200917054558  0.002518549421425267  0.9995400641876233  1.0000
  Ir  Ir3       1.0  0.0012610200917054558  0.002518549421425267  0.9992737164254869  1.0000
  Ir  Ir4       1.0  0.006261019629489168  0.002518549421425267  0.9995400641876233  1.0000
  Ir  Ir5       1.0  1.1020248796849096e-05  1.8549449975007977e-05  0.9993403032248426  1.0000
  Ir  Ir6       1.0  0.005011020186187359  1.8549449975007977e-05  0.9996066512766502  1.0000
  Ir  Ir7       1.0  0.00876101982296083  0.00751854946950904  0.9994068903020424  1.0000
  Ir  Ir8       1.0  0.0037610196054472817  0.00751854946950904  0.9991405425399059  1.0000
  Ir  Ir9       1.0  0.0037610196054472817  0.00751854946950904  0.9994068903020424  1.0000
  Ir  Ir10      1.0  0.00876101982296083  0.00751854946950904  0.9991405425399059  1.0000
  Ir  Ir11      1.0  0.007511019666120283  0.005018549565676587  0.9992071293410626  1.0000
  Ir  Ir12      1.0  0.0025110201283365698  0.005018549565676587  0.999473477103199  1.0000
  Rh  Rh1       1.0  1.1020248796849096e-05  1.8549449975007977e-05  0.9996066512766502  1.0000
  Rh  Rh2       1.0  0.005011020186187359  1.8549449975007977e-05  0.9993403032248426  1.0000
  Rh  Rh3       1.0  0.007511019666120283  0.005018549565676587  0.999473477103199  1.0000
  Rh  Rh4       1.0  0.0025110201283365698  0.005018549565676587  0.9992071293410626  1.0000
  Ir  Ir13      1.0  0.006261019629489168  0.002518549421425267  0.9998064116600885  1.0000
  Ir  Ir14      1.0  0.0012788740580933872  0.0024853646457941546  6.61971282702699e-05  1.0000
  Ir  Ir15      1.0  0.0012610200917054558  0.002518549421425267  0.9998064116600885  1.0000
  Ir  Ir16      1.0  0.006279727620647365  0.0024850242126801445  6.618458485622015e-05  1.0000
  Ir  Ir17      1.0  2.9818622662317982e-05  0.009981450818993598  0.9998721719707069  1.0000
  Ir  Ir18      1.0  0.004993659139115469  5.205414798563995e-05  0.0001227957695077401  1.0000
  Ir  Ir19      1.0  0.008779724954259412  0.007496634328213526  0.9999470564297213  1.0000
  Ir  Ir20      1.0  0.0037610196054472817  0.00751854946950904  0.9996732380641788  1.0000
  Ir  Ir21      1.0  0.0037650748387224793  0.007496560279202852  0.9999470764724553  1.0000
  Ir  Ir22      1.0  0.00876101982296083  0.00751854946950904  0.9996732380641788  1.0000
  Ir  Ir23      1.0  0.007511019666120283  0.005018549565676587  0.9997398251550066  1.0000
  Ir  Ir24      1.0  0.0025506306097718145  0.004941169311197256  0.9999995910127448  1.0000
  Rh  Rh5       1.0  0.009988979449019504  6.255115121736958e-05  0.00013049093805280723  1.0000
  Rh  Rh6       1.0  0.005032966405188627  0.009976481841874702  0.9998678451838573  1.0000
  Rh  Rh7       1.0  0.007544799347550549  0.004953505203202794  4.242050394449318e-06  1.0000
  Rh  Rh8       1.0  0.0025110201283365698  0.005018549565676587  0.9997398251550066  1.0000
