data_image0
_chemical_formula_structural       HCu6In6Pd12
_chemical_formula_sum              "H1 Cu6 In6 Pd12"
_cell_length_a       6.377226829528809
_cell_length_b       7.81047614932323
_cell_length_c       104.34241485595703
_cell_angle_alpha    94.34775289404833
_cell_angle_beta     90.0
_cell_angle_gamma    114.09484158052283

_space_group_name_H-M_alt    "P 1"
_space_group_IT_number       1

loop_
  _space_group_symop_operation_xyz
  'x, y, z'

loop_
  _atom_site_type_symbol
  _atom_site_label
  _atom_site_symmetry_multiplicity
  _atom_site_fract_x
  _atom_site_fract_y
  _atom_site_fract_z
  _atom_site_occupancy
  H   H1        1.0  0.00570003135475216  0.008619820952055886  0.00010799822940911614  1.0000
  Cu  Cu1       1.0  0.0069432679771307786  0.0035680685049976337  0.9997546818246943  1.0000
  Cu  Cu2       1.0  0.0027993353064604005  0.005275332159124319  0.9994825734977942  1.0000
  Cu  Cu3       1.0  0.0011681549923110897  0.0020059966445602506  1.1383404786552416e-05  1.0000
  Cu  Cu4       1.0  0.009882668498087948  0.009441998860744007  0.9996197115820605  1.0000
  Cu  Cu5       1.0  0.00571600179646826  0.0011086654575046307  0.9993454351279074  1.0000
  Cu  Cu6       1.0  0.004036368401825984  0.007741796153910425  0.9998938564642365  1.0000
  In  In1       1.0  0.001933218154369513  0.0035432622581253698  0.9997520904339448  1.0000
  In  In2       1.0  0.007799335147278106  0.005275332159124319  0.9994825734977942  1.0000
  In  In3       1.0  0.0061708913277723695  0.002016642985435227  2.6493729624947654e-05  1.0000
  In  In4       1.0  0.004882668602505693  0.009441998860744007  0.9996197115820605  1.0000
  In  In5       1.0  0.0007160020104151074  0.0011086654575046307  0.9993454351279074  1.0000
  In  In6       1.0  0.009047293593089624  0.007771324990925078  0.9999122580375783  1.0000
  Pd  Pd1       1.0  0.00502673375893618  0.0048181230421973685  0.9999521974729512  1.0000
  Pd  Pd2       1.0  0.0009243351324367174  0.006525331907462563  0.999688280999487  1.0000
  Pd  Pd3       1.0  0.006757668642165667  0.00819199858811044  0.9994140040773926  1.0000
  Pd  Pd4       1.0  0.0017576684727606553  0.00819199858811044  0.9994140040773926  1.0000
  Pd  Pd5       1.0  0.00011733119405969475  0.004818689281148663  0.9999521641267691  1.0000
  Pd  Pd6       1.0  0.005924335301841728  0.006525331907462563  0.999688280999487  1.0000
  Pd  Pd7       1.0  0.009674335445795861  0.004025332148638413  0.9992768659946137  1.0000
  Pd  Pd8       1.0  0.00795382810995905  0.0005595586424069656  0.9998269629566242  1.0000
  Pd  Pd9       1.0  0.003841002082105716  0.002358665467990537  0.9995511423454675  1.0000
  Pd  Pd10      1.0  0.008841002105471925  0.002358665467990537  0.9995511423454675  1.0000
  Pd  Pd11      1.0  0.004674335422429654  0.004025332148638413  0.9992768659946137  1.0000
  Pd  Pd12      1.0  0.0029309763897682473  0.0005580010265324977  0.999826928983045  1.0000
