data_image0
_chemical_formula_structural       COGa3Ni3Ga3Ni3Ga3Ni3Ga3Ni3Ga3Ni3Ga3Ni3Ga3Ni3Ga3Ni3
_chemical_formula_sum              "C1 O1 Ga24 Ni24"
_cell_length_a       8.324111888907378
_cell_length_b       8.324111938476562
_cell_length_c       100.5847396850586
_cell_angle_alpha    90.0
_cell_angle_beta     90.0
_cell_angle_gamma    59.999999803013765

_space_group_name_H-M_alt    "P 1"
_space_group_IT_number       1

loop_
  _space_group_symop_operation_xyz
  'x, y, z'

loop_
  _atom_site_type_symbol
  _atom_site_label
  _atom_site_symmetry_multiplicity
  _atom_site_fract_x
  _atom_site_fract_y
  _atom_site_fract_z
  _atom_site_occupancy
  C   C1        1.0  0.004166666614990346  0.004166666513492804  0.00017219822588906741  1.0000
  O   O1        1.0  0.004166666614990346  0.004166666513492804  0.00029150026665214387  1.0000
  Ga  Ga1       1.0  0.0008333333100789892  0.0008333333539111066  0.9999155364116896  1.0000
  Ga  Ga2       1.0  0.0024999998656415673  0.00250000009403102  0.999577681465867  1.0000
  Ga  Ga3       1.0  0.004166666614990346  0.004166666513492804  0.9997466086424877  1.0000
  Ni  Ni1       1.0  0.0008333333100789892  0.0008333333539111066  0.9996621450541773  1.0000
  Ni  Ni2       1.0  0.0024999998656415673  0.00250000009403102  0.9998310722307979  1.0000
  Ni  Ni3       1.0  0.004166666614990346  0.004166666513492804  0.0  1.0000
  Ga  Ga4       1.0  0.0008333333100789892  0.0008333333539111066  0.9994087539929556  1.0000
  Ga  Ga5       1.0  0.0024999998656415673  0.00250000009403102  0.9990708990471329  1.0000
  Ga  Ga6       1.0  0.004166666614990346  0.004166666513492804  0.9992398265200443  1.0000
  Ni  Ni4       1.0  0.0008333333100789892  0.0008333333539111066  0.9991553629317339  1.0000
  Ni  Ni5       1.0  0.0024999998656415673  0.00250000009403102  0.9993242901083546  1.0000
  Ni  Ni6       1.0  0.004166666614990346  0.004166666513492804  0.999493217581266  1.0000
  Ga  Ga7       1.0  0.0008333333100789892  0.005833333165948483  0.9999155364116896  1.0000
  Ga  Ga8       1.0  0.0024999998656415673  0.007499999458538338  0.999577681465867  1.0000
  Ga  Ga9       1.0  0.004166666614990346  0.009166666549295209  0.9997466086424877  1.0000
  Ni  Ni7       1.0  0.0008333333100789892  0.005833333165948483  0.9996621450541773  1.0000
  Ni  Ni8       1.0  0.0024999998656415673  0.007499999458538338  0.9998310722307979  1.0000
  Ni  Ni9       1.0  0.004166666614990346  0.009166666549295209  0.0  1.0000
  Ga  Ga10      1.0  0.0008333333100789892  0.005833333165948483  0.9994087539929556  1.0000
  Ga  Ga11      1.0  0.0024999998656415673  0.007499999458538338  0.9990708990471329  1.0000
  Ga  Ga12      1.0  0.004166666614990346  0.009166666549295209  0.9992398265200443  1.0000
  Ni  Ni10      1.0  0.0008333333100789892  0.005833333165948483  0.9991553629317339  1.0000
  Ni  Ni11      1.0  0.0024999998656415673  0.007499999458538338  0.9993242901083546  1.0000
  Ni  Ni12      1.0  0.004166666614990346  0.009166666549295209  0.999493217581266  1.0000
  Ga  Ga13      1.0  0.005833333105957524  0.0008333332501080124  0.9999155364116896  1.0000
  Ga  Ga14      1.0  0.0074999998553063035  0.0024999998933348255  0.999577681465867  1.0000
  Ga  Ga15      1.0  0.00916666608789188  0.004166666347413182  0.9997466086424877  1.0000
  Ni  Ni13      1.0  0.005833333105957524  0.0008333332501080124  0.9996621450541773  1.0000
  Ni  Ni14      1.0  0.0074999998553063035  0.0024999998933348255  0.9998310722307979  1.0000
  Ni  Ni15      1.0  0.00916666608789188  0.004166666347413182  0.0  1.0000
  Ga  Ga16      1.0  0.005833333105957524  0.0008333332501080124  0.9994087539929556  1.0000
  Ga  Ga17      1.0  0.0074999998553063035  0.0024999998933348255  0.9990708990471329  1.0000
  Ga  Ga18      1.0  0.00916666608789188  0.004166666347413182  0.9992398265200443  1.0000
  Ni  Ni16      1.0  0.005833333105957524  0.0008333332501080124  0.9991553629317339  1.0000
  Ni  Ni17      1.0  0.0074999998553063035  0.0024999998933348255  0.9993242901083546  1.0000
  Ni  Ni18      1.0  0.00916666608789188  0.004166666347413182  0.999493217581266  1.0000
  Ga  Ga19      1.0  0.005833333105957524  0.005833332838380358  0.9999155364116896  1.0000
  Ga  Ga20      1.0  0.0074999998553063035  0.00749999992913723  0.999577681465867  1.0000
  Ga  Ga21      1.0  0.00916666608789188  0.009166666383215586  0.9997466086424877  1.0000
  Ni  Ni19      1.0  0.005833333105957524  0.005833332838380358  0.9996621450541773  1.0000
  Ni  Ni20      1.0  0.0074999998553063035  0.00749999992913723  0.9998310722307979  1.0000
  Ni  Ni21      1.0  0.00916666608789188  0.009166666383215586  0.0  1.0000
  Ga  Ga22      1.0  0.005833333105957524  0.005833332838380358  0.9994087539929556  1.0000
  Ga  Ga23      1.0  0.0074999998553063035  0.00749999992913723  0.9990708990471329  1.0000
  Ga  Ga24      1.0  0.00916666608789188  0.009166666383215586  0.9992398265200443  1.0000
  Ni  Ni22      1.0  0.005833333105957524  0.005833332838380358  0.9991553629317339  1.0000
  Ni  Ni23      1.0  0.0074999998553063035  0.00749999992913723  0.9993242901083546  1.0000
  Ni  Ni24      1.0  0.00916666608789188  0.009166666383215586  0.999493217581266  1.0000
