data_image0
_chemical_formula_structural       HTi4Ni4Ge4Ti4Ni4Ge4Ti4Ni4Ge4Ti4Ni4Ge4
_chemical_formula_sum              "H1 Ti16 Ni16 Ge16"
_cell_length_a       7.557958126068115
_cell_length_b       7.227352619171143
_cell_length_c       107.85162353515625
_cell_angle_alpha    90.0
_cell_angle_beta     90.0
_cell_angle_gamma    90.0

_space_group_name_H-M_alt    "P 1"
_space_group_IT_number       1

loop_
  _space_group_symop_operation_xyz
  'x, y, z'

loop_
  _atom_site_type_symbol
  _atom_site_label
  _atom_site_symmetry_multiplicity
  _atom_site_fract_x
  _atom_site_fract_y
  _atom_site_fract_z
  _atom_site_occupancy
  H   H1        1.0  0.0006250015600170836  0.002057827121167007  7.704440643991848e-05  1.0000
  Ti  Ti1       1.0  0.004374987815601166  0.006863011737855678  0.9988926002278491  1.0000
  Ti  Ti2       1.0  0.0018749878599618414  0.0031369882827620528  0.9994468976711987  1.0000
  Ti  Ti3       1.0  0.0018749878599618414  0.0018630117275468126  0.9991544308969416  1.0000
  Ti  Ti4       1.0  0.004374987815601166  0.00813698803534928  0.9991850672784333  1.0000
  Ni  Ni1       1.0  0.004374987815601166  0.004405480263817228  0.9992507994075619  1.0000
  Ni  Ni2       1.0  0.004374987815601166  0.0005945198753524559  0.9989583323569777  1.0000
  Ni  Ni3       1.0  0.0018749878599618414  0.0055945197568005025  0.9990886987678129  1.0000
  Ni  Ni4       1.0  0.0018749878599618414  0.009405480016404457  0.99938116554207  1.0000
  Ge  Ge1       1.0  0.004374987815601166  0.003783935311011379  0.9990275044817155  1.0000
  Ge  Ge2       1.0  0.0018749878599618414  0.006216064451884715  0.9993119936936593  1.0000
  Ge  Ge3       1.0  0.004374987815601166  0.0012160646992974862  0.9993199712559726  1.0000
  Ge  Ge4       1.0  0.0018749878599618414  0.00878393480587697  0.9990195266430753  1.0000
  Ti  Ti5       1.0  0.004374987815601166  0.006863011737855678  0.9994775340526904  1.0000
  Ti  Ti6       1.0  0.0018750084383862473  0.0030166106295982076  0.0  1.0000
  Ti  Ti7       1.0  0.0018749878599618414  0.0018630117275468126  0.9997393644454557  1.0000
  Ti  Ti8       1.0  0.0043749976735290245  0.00796618714387818  0.999769740526854  1.0000
  Ni  Ni5       1.0  0.0043749981664254175  0.00432692825514551  0.9998360949445287  1.0000
  Ni  Ni6       1.0  0.004374987815601166  0.0005945198753524559  0.9995432661818189  1.0000
  Ni  Ni7       1.0  0.0018749878599618414  0.0055945197568005025  0.9996736323163271  1.0000
  Ni  Ni8       1.0  0.001874970238915793  0.009346432896675081  0.9999019890013163  1.0000
  Ge  Ge5       1.0  0.004374987815601166  0.003783935311011379  0.9996124380302296  1.0000
  Ge  Ge6       1.0  0.0018749802200677505  0.006158754891432966  0.9999071402904276  1.0000
  Ge  Ge7       1.0  0.0043749947161506675  0.001099043741596625  0.9999256177284865  1.0000
  Ge  Ge8       1.0  0.0018749878599618414  0.00878393480587697  0.9996044604679164  1.0000
  Ti  Ti9       1.0  0.009374987973328011  0.006863011737855678  0.9988926002278491  1.0000
  Ti  Ti10      1.0  0.006874987894464588  0.0031369882827620528  0.9994468976711987  1.0000
  Ti  Ti11      1.0  0.006874987894464588  0.0018630117275468126  0.9991544308969416  1.0000
  Ti  Ti12      1.0  0.009374987973328011  0.00813698803534928  0.9991850672784333  1.0000
  Ni  Ni9       1.0  0.009374987973328011  0.004405480263817228  0.9992507994075619  1.0000
  Ni  Ni10      1.0  0.009374987973328011  0.0005945198753524559  0.9989583323569777  1.0000
  Ni  Ni11      1.0  0.006874987894464588  0.0055945197568005025  0.9990886987678129  1.0000
  Ni  Ni12      1.0  0.006874987894464588  0.009405480016404457  0.99938116554207  1.0000
  Ge  Ge9       1.0  0.009374987973328011  0.003783935311011379  0.9990275044817155  1.0000
  Ge  Ge10      1.0  0.006874987894464588  0.006216064451884715  0.9993119936936593  1.0000
  Ge  Ge11      1.0  0.009374987973328011  0.0012160646992974862  0.9993199712559726  1.0000
  Ge  Ge12      1.0  0.006874987894464588  0.00878393480587697  0.9990195266430753  1.0000
  Ti  Ti13      1.0  0.009374987973328011  0.006863011737855678  0.9994775340526904  1.0000
  Ti  Ti14      1.0  0.006875008596113092  0.0030166106295982076  0.0  1.0000
  Ti  Ti15      1.0  0.006874987894464588  0.0018630117275468126  0.9997393644454557  1.0000
  Ti  Ti16      1.0  0.009374997831255871  0.00796618714387818  0.999769740526854  1.0000
  Ni  Ni13      1.0  0.009374998817048657  0.00432692825514551  0.9998360949445287  1.0000
  Ni  Ni14      1.0  0.009374987973328011  0.0005945198753524559  0.9995432661818189  1.0000
  Ni  Ni15      1.0  0.006874987894464588  0.0055945197568005025  0.9996736323163271  1.0000
  Ni  Ni16      1.0  0.006874970150194442  0.009346432896675081  0.9999019890013163  1.0000
  Ge  Ge13      1.0  0.009374987973328011  0.003783935311011379  0.9996124380302296  1.0000
  Ge  Ge14      1.0  0.006874980008122301  0.006158754891432966  0.9999071402904276  1.0000
  Ge  Ge15      1.0  0.009374994873877513  0.001099043741596625  0.9999256177284865  1.0000
  Ge  Ge16      1.0  0.006874987894464588  0.00878393480587697  0.9996044604679164  1.0000
