data_image0
_chemical_formula_structural       HMn18Al54Si6
_chemical_formula_sum              "H1 Mn18 Al54 Si6"
_cell_length_a       17.079821661896005
_cell_length_b       7.517892288792836
_cell_length_c       112.95469665527344
_cell_angle_alpha    69.51034553269777
_cell_angle_beta     109.45262887244881
_cell_angle_gamma    77.28620387862752

_space_group_name_H-M_alt    "P 1"
_space_group_IT_number       1

loop_
  _space_group_symop_operation_xyz
  'x, y, z'

loop_
  _atom_site_type_symbol
  _atom_site_label
  _atom_site_symmetry_multiplicity
  _atom_site_fract_x
  _atom_site_fract_y
  _atom_site_fract_z
  _atom_site_occupancy
  H   H1        1.0  0.004370580324176334  0.00603582766969238  5.655030729651235e-05  1.0000
  Mn  Mn1       1.0  0.008405594670758791  0.007146869710810665  0.9998446052539919  1.0000
  Mn  Mn2       1.0  0.0017082648742549925  0.007242156514219871  0.9995122433474786  1.0000
  Mn  Mn3       1.0  0.005041598187572222  0.007242156291858086  0.9991953412026557  1.0000
  Mn  Mn4       1.0  0.0005171688976335776  0.007242156655416897  0.9992857668097376  1.0000
  Mn  Mn5       1.0  0.003848537567808955  0.007260222603239542  0.9999176382244616  1.0000
  Mn  Mn6       1.0  0.007183835711919009  0.007242156576119062  0.9996026690524437  1.0000
  Mn  Mn7       1.0  0.00964456647809255  0.006051060312179924  0.9995952020737409  1.0000
  Mn  Mn8       1.0  0.0029778996012567935  0.006051060445999028  0.999278300354301  1.0000
  Mn  Mn9       1.0  0.0062239244210494085  0.006191915803339831  0.999903897846513  1.0000
  Mn  Mn10      1.0  0.0018474438498647455  0.009608007702322074  0.9999998952798517  1.0000
  Mn  Mn11      1.0  0.005120136875402284  0.00962434879709815  0.9996856276880695  1.0000
  Mn  Mn12      1.0  0.008453470188719513  0.009624348574736364  0.9993687255432467  1.0000
  Mn  Mn13      1.0  0.00964456647809255  0.009624348689922535  0.9995952020907638  1.0000
  Mn  Mn14      1.0  0.0029778996012567935  0.009624348294752099  0.9992783003836481  1.0000
  Mn  Mn15      1.0  0.006223803824023795  0.009658187858069473  0.9999039064493583  1.0000
  Mn  Mn16      1.0  0.0005171688976335776  0.0008154443401832117  0.9992857667373678  1.0000
  Mn  Mn17      1.0  0.003848743733678468  0.0008198147708861229  0.9999177217019846  1.0000
  Mn  Mn18      1.0  0.007183835711919009  0.000815444657627531  0.9996026689708308  1.0000
  Al  Al1       1.0  0.008867559341662978  0.000436492046268585  0.9997462834843915  1.0000
  Al  Al2       1.0  0.002200892965229818  0.000436491479422771  0.9994293818064741  1.0000
  Al  Al3       1.0  0.0054851390357003385  0.0006299663400306855  4.968306125798243e-05  1.0000
  Al  Al4       1.0  0.007606061911474505  0.0004585777417853625  0.9998695682566913  1.0000
  Al  Al5       1.0  0.0009630012768993216  0.000436491237274992  0.9995470687679976  1.0000
  Al  Al6       1.0  0.004296334590216551  0.00043649154390274723  0.9992301666108507  1.0000
  Al  Al7       1.0  0.0012941753460095798  0.006430013602570661  0.9991346852688536  1.0000
  Al  Al8       1.0  0.0046275085342261605  0.0064300140182409525  0.9997684896342822  1.0000
  Al  Al9       1.0  0.00796084184754339  0.006430013795879167  0.9994515874894595  1.0000
  Al  Al10      1.0  0.0012941753460095798  0.0024397301755607562  0.9991346854443226  1.0000
  Al  Al11      1.0  0.0046275085342261605  0.0024397305912310483  0.9997684898097512  1.0000
  Al  Al12      1.0  0.00796084184754339  0.002439730368869263  0.9994515876649285  1.0000
  Al  Al13      1.0  0.00991913237844028  0.006495981852395714  0.999824365885014  1.0000
  Al  Al14      1.0  0.00329741416478179  0.006430013385256677  0.9995155836495409  1.0000
  Al  Al15      1.0  0.006630747728300317  0.0064300140027889  0.9991986817615933  1.0000
  Al  Al16      1.0  0.008959762523179449  0.0004364914719453924  0.9991661704746116  1.0000
  Al  Al17      1.0  0.00229309589654499  0.00043649112318465183  0.9997999747827432  1.0000
  Al  Al18      1.0  0.005626429209862219  0.0004364911653176367  0.9994830726317584  1.0000
  Al  Al19      1.0  0.009460479371915798  0.00774575136973994  2.1776225888133685e-05  1.0000
  Al  Al20      1.0  0.002722943477837433  0.007580797160530666  0.9997051756804111  1.0000
  Al  Al21      1.0  0.006056276540953365  0.0075807971562539544  0.9993882735179082  1.0000
  Al  Al22      1.0  0.0007938471849896002  0.0029956375570787184  0.9998221496124992  1.0000
  Al  Al23      1.0  0.004105458271819843  0.00300702496250493  0.9994926955477728  1.0000
  Al  Al24      1.0  0.007438791334935774  0.0030070254872177596  0.9991757933729457  1.0000
  Al  Al25      1.0  0.009531685660508047  0.003007025177748509  0.9995737390785483  1.0000
  Al  Al26      1.0  0.0028650192840748863  0.003007024875397465  0.9992568368667825  1.0000
  Al  Al27      1.0  0.006357190639585935  0.0027639496388813423  0.9999217866884815  1.0000
  Al  Al28      1.0  0.007606129465824952  0.004370631385402681  0.9998695534631938  1.0000
  Al  Al29      1.0  0.0009630012768993216  0.0044267749287796665  0.9995470685863665  1.0000
  Al  Al30      1.0  0.004296334590216551  0.004426774706417881  0.9992301664415438  1.0000
  Al  Al31      1.0  0.009460653512019173  0.0036282444039523816  2.1732364637127277e-05  1.0000
  Al  Al32      1.0  0.002722943477837433  0.003859480052578949  0.9997051753891395  1.0000
  Al  Al33      1.0  0.006056276540953365  0.003859480577291779  0.9993882737419988  1.0000
  Al  Al34      1.0  0.0007939051691404008  0.009143895706380491  0.9998220775539036  1.0000
  Al  Al35      1.0  0.004105458271819843  0.009285708150787355  0.999492695355137  1.0000
  Al  Al36      1.0  0.007438791334935774  0.009285708146510644  0.9991757934564772  1.0000
  Al  Al37      1.0  0.0025565013177962248  0.0023922518060990328  0.9999705576539958  1.0000
  Al  Al38      1.0  0.005865400472757954  0.0024397306152937528  0.9996508023382216  1.0000
  Al  Al39      1.0  0.009198733786075183  0.0024397309219215076  0.9993339004449179  1.0000
  Al  Al40      1.0  0.0006300490897148355  0.0038594801520746977  0.9993072302129652  1.0000
  Al  Al41      1.0  0.003944680168761696  0.0037522209329386757  0.9999634416085764  1.0000
  Al  Al42      1.0  0.007296715528698321  0.0038594806643992433  0.9996241318953027  1.0000
  Al  Al43      1.0  0.00030355760044609327  0.0003418128288380957  7.322872295755453e-06  1.0000
  Al  Al44      1.0  0.003530987584875486  0.000436491365332431  0.9996822872935334  1.0000
  Al  Al45      1.0  0.006864320647991417  0.00043649162555048983  0.9993653851248685  1.0000
  Al  Al46      1.0  0.0012019726648957057  0.006430013740723705  0.9997147988416801  1.0000
  Al  Al47      1.0  0.0045353058531122864  0.006430014156393998  0.9993978966756932  1.0000
  Al  Al48      1.0  0.0076825759704015305  0.006590937950864723  1.8886333948246025e-05  1.0000
  Al  Al49      1.0  0.0025565070724260777  0.0064231074178689  0.9999705417977796  1.0000
  Al  Al50      1.0  0.005865400472757954  0.006430013513314116  0.999650802702763  1.0000
  Al  Al51      1.0  0.009198733786075183  0.006430014348931412  0.9993339005332921  1.0000
  Al  Al52      1.0  0.008867559341662978  0.004426775473278489  0.9997462838366089  1.0000
  Al  Al53      1.0  0.002200892965229818  0.004426774641937905  0.9994293816371671  1.0000
  Al  Al54      1.0  0.0054853997454528056  0.004424625423740612  4.970595087135793e-05  1.0000
  Si  Si1       1.0  8.086760060536144e-05  0.008433252314955463  0.9994404844119755  1.0000
  Si  Si2       1.0  0.0033941449889860185  0.008521334668249099  5.920341796788661e-05  1.0000
  Si  Si3       1.0  0.006747534188145867  0.008433252962286765  0.999757386626335  1.0000
  Si  Si4       1.0  0.0017475342181700233  0.008433252766839903  0.9992820335883208  1.0000
  Si  Si5       1.0  0.0050808417607535634  0.008379583626814738  0.9999260091427723  1.0000
  Si  Si6       1.0  0.008414200594603185  0.00843325359818049  0.9995989357877625  1.0000
