data_image0
_chemical_formula_structural       CORh4Sn8
_chemical_formula_sum              "C1 O1 Rh4 Sn8"
_cell_length_a       5.4520583152771
_cell_length_b       5.452058429051446
_cell_length_c       106.90087890625
_cell_angle_alpha    90.0
_cell_angle_beta     90.0
_cell_angle_gamma    115.5651211010574

_space_group_name_H-M_alt    "P 1"
_space_group_IT_number       1

loop_
  _space_group_symop_operation_xyz
  'x, y, z'

loop_
  _atom_site_type_symbol
  _atom_site_label
  _atom_site_symmetry_multiplicity
  _atom_site_fract_x
  _atom_site_fract_y
  _atom_site_fract_z
  _atom_site_occupancy
  C   C1        1.0  0.009095236613514667  0.000904682853723115  0.00016202405352036924  1.0000
  O   O1        1.0  0.009095236613514667  0.000904682853723115  0.00027427780149206604  1.0000
  Rh  Rh1       1.0  0.007428567832581387  0.00757135442732637  0.9996438013338413  1.0000
  Rh  Rh2       1.0  0.002428567971306651  0.002571354321285034  0.9992123168773024  1.0000
  Rh  Rh3       1.0  0.002428567971306651  0.002571354321285034  0.9996438013338413  1.0000
  Rh  Rh4       1.0  0.007428567832581387  0.00757135442732637  0.9992123168773024  1.0000
  Sn  Sn1       1.0  0.0024285694221672658  0.0075713491252595655  0.0  1.0000
  Sn  Sn2       1.0  0.0074285679371425785  0.002571354321285034  0.9995678732236646  1.0000
  Sn  Sn3       1.0  0.005665557946197416  0.004334215411424872  0.999868680170917  1.0000
  Sn  Sn4       1.0  0.000808418110305718  0.0091915031937469  0.9994280593843564  1.0000
  Sn  Sn5       1.0  0.009191581244523628  0.0008084961662178917  0.9998686812860555  1.0000
  Sn  Sn6       1.0  0.004048717296322866  0.005951204903467724  0.9994280593843564  1.0000
  Sn  Sn7       1.0  0.0074285679371425785  0.002571354321285034  0.9992882452662637  1.0000
  Sn  Sn8       1.0  0.002428566682521157  0.007571358214516945  0.9997201805175556  1.0000
