data_image0
_chemical_formula_structural       CONb4Pd8
_chemical_formula_sum              "C1 O1 Nb4 Pd8"
_cell_length_a       4.893702477020902
_cell_length_b       4.92789804270013
_cell_length_c       98.80685424804688
_cell_angle_alpha    88.41844563881183
_cell_angle_beta     86.28693672350992
_cell_angle_gamma    98.40339015271314

_space_group_name_H-M_alt    "P 1"
_space_group_IT_number       1

loop_
  _space_group_symop_operation_xyz
  'x, y, z'

loop_
  _atom_site_type_symbol
  _atom_site_label
  _atom_site_symmetry_multiplicity
  _atom_site_fract_x
  _atom_site_fract_y
  _atom_site_fract_z
  _atom_site_occupancy
  C   C1        1.0  0.00031010391705479137  0.00927384619079659  5.7592686529466665e-05  1.0000
  O   O1        1.0  0.00031010391705479137  0.00927384619079659  0.00017904199700513411  1.0000
  Nb  Nb1       1.0  0.0006453036352859216  0.003797262652294529  0.9995088240216669  1.0000
  Nb  Nb2       1.0  0.0070738751651305285  0.0016544055323784689  0.9993005761899902  1.0000
  Nb  Nb3       1.0  0.007898613724911624  0.008088515634145844  0.9999057947550575  1.0000
  Nb  Nb4       1.0  0.004108213612775662  0.005936218067603737  0.9997186902492602  1.0000
  Pd  Pd1       1.0  0.001600711193321862  0.00905200439357824  0.9993695507099624  1.0000
  Pd  Pd2       1.0  0.005172139714535213  0.0011948616205526847  0.9995777988278687  1.0000
  Pd  Pd3       1.0  0.002547038841533095  0.004256806564120314  0.9992316013845721  1.0000
  Pd  Pd4       1.0  0.0061184674010755  0.0063996638752120616  0.9994398491734717  1.0000
  Pd  Pd5       1.0  0.008597731245098942  0.0032976226988197786  0.9997918877701679  1.0000
  Pd  Pd6       1.0  0.002413412081226581  0.0055461829593051876  0.9999846247630538  1.0000
  Pd  Pd7       1.0  0.009689895846226053  0.00854252042160106  0.9996480972654129  1.0000
  Pd  Pd8       1.0  0.0032205866479350274  0.0007261540367024774  0.999857812548152  1.0000
