data_image0
_chemical_formula_structural       COCa8Cu8Ga4
_chemical_formula_sum              "C1 O1 Ca8 Cu8 Ga4"
_cell_length_a       5.783783518390886
_cell_length_b       7.056119271954888
_cell_length_c       102.8695297241211
_cell_angle_alpha    89.69051077968692
_cell_angle_beta     87.23295041314906
_cell_angle_gamma    81.00576478296198

_space_group_name_H-M_alt    "P 1"
_space_group_IT_number       1

loop_
  _space_group_symop_operation_xyz
  'x, y, z'

loop_
  _atom_site_type_symbol
  _atom_site_label
  _atom_site_symmetry_multiplicity
  _atom_site_fract_x
  _atom_site_fract_y
  _atom_site_fract_z
  _atom_site_occupancy
  C   C1        1.0  0.006524133922256098  0.009679989746347916  4.598810885569859e-05  1.0000
  O   O1        1.0  0.006524133922256098  0.009679989746347916  0.00016264096369888813  1.0000
  Ca  Ca1       1.0  0.005153776448353962  0.007076621482531742  0.9994338826781636  1.0000
  Ca  Ca2       1.0  0.008487109616336684  0.00290995469114247  0.9997001548181742  1.0000
  Ca  Ca3       1.0  0.0018204426760059004  0.0012432880280393065  0.9991676105398845  1.0000
  Ca  Ca4       1.0  0.0017844088442272633  0.008824832408738287  0.9999691128733128  1.0000
  Ca  Ca5       1.0  0.006592885615619979  0.001896732698420295  0.9993764035732319  1.0000
  Ca  Ca6       1.0  0.009926218607416814  0.007730066019281367  0.9996426754239692  1.0000
  Ca  Ca7       1.0  0.0032595520997112685  0.00606339962344093  0.9991101314341161  1.0000
  Ca  Ca8       1.0  0.0032117702320628556  0.003675056784135462  0.9999073129048921  1.0000
  Cu  Cu1       1.0  0.0016728799025760507  0.0008858882080939913  0.9994690124414144  1.0000
  Cu  Cu2       1.0  0.004978726704607814  0.006778945327231521  0.9997389172932334  1.0000
  Cu  Cu3       1.0  0.008339546817988309  0.005052554799036218  0.9992027403765763  1.0000
  Cu  Cu4       1.0  0.008237151915738223  0.0025451341211594216  0.9999766992661263  1.0000
  Cu  Cu5       1.0  7.378134845953754e-05  0.008087465772411002  0.9993412737369374  1.0000
  Cu  Cu6       1.0  0.003407114949067499  0.0039207992482844555  0.9996075458756747  1.0000
  Cu  Cu7       1.0  0.006740448053875804  0.0022541325851812917  0.999075001672587  1.0000
  Cu  Cu8       1.0  0.006669902703156243  0.00967458462497489  0.9998774178539438  1.0000
  Ga  Ga1       1.0  0.007539997335087148  0.008653343815049609  0.9991388711696647  1.0000
  Ga  Ga2       1.0  0.0008733306701496665  0.0044866767563976106  0.9994051429442864  1.0000
  Ga  Ga3       1.0  0.00769335046158923  0.006137461332001164  0.9999311448682101  1.0000
  Ga  Ga4       1.0  0.004206664077666688  0.00032001039931026884  0.999671414793776  1.0000
