data_image0
_chemical_formula_structural       COSi12Pt12
_chemical_formula_sum              "C1 O1 Si12 Pt12"
_cell_length_a       6.755360623728806
_cell_length_b       7.0240476429780365
_cell_length_c       106.14514923095703
_cell_angle_alpha    69.04264874534627
_cell_angle_beta     71.8655539110665
_cell_angle_gamma    73.69999000907166

_space_group_name_H-M_alt    "P 1"
_space_group_IT_number       1

loop_
  _space_group_symop_operation_xyz
  'x, y, z'

loop_
  _atom_site_type_symbol
  _atom_site_label
  _atom_site_symmetry_multiplicity
  _atom_site_fract_x
  _atom_site_fract_y
  _atom_site_fract_z
  _atom_site_occupancy
  C   C1        1.0  0.00931794986413103  0.004108310690827379  0.9998020607641489  1.0000
  O   O1        1.0  0.00931794986413103  0.004108310690827379  0.9999151131721109  1.0000
  Si  Si1       1.0  7.882603464484067e-05  0.003818274794805289  0.999336346001178  1.0000
  Si  Si2       1.0  0.0034121593459472683  0.007151608097281903  0.9990525750132735  1.0000
  Si  Si3       1.0  0.006585166399714259  0.0005104859015258487  0.9996252486951116  1.0000
  Si  Si4       1.0  0.003163289954200786  0.009489514259025517  0.9996491036723258  1.0000
  Si  Si5       1.0  0.006587840295153632  0.002230623859396819  0.9993296520514575  1.0000
  Si  Si6       1.0  0.009921173562120888  0.005563957017232564  0.9990458805063156  1.0000
  Si  Si7       1.0  0.005634254754079863  0.00770741667278864  0.9992890616089927  1.0000
  Si  Si8       1.0  0.008967588332944733  0.0010407497785536722  0.9990052900364433  1.0000
  Si  Si9       1.0  0.0022378922474274657  0.004596893950962404  0.9995791016290776  1.0000
  Si  Si10      1.0  0.007691189597394389  0.005214123982320729  0.9996654542680633  1.0000
  Si  Si11      1.0  0.0010324115700963868  0.008341482322765919  0.9993769364581365  1.0000
  Si  Si12      1.0  0.004365744540481279  0.0016748155731718208  0.999093164894217  1.0000
  Pt  Pt1       1.0  0.006819681894317235  0.008499237490365298  0.999457387643884  1.0000
  Pt  Pt2       1.0  0.00015301561018447751  0.0018325704514894612  0.9991736162292753  1.0000
  Pt  Pt3       1.0  0.0038716383421550536  0.005906143178668104  0.9996947456826052  1.0000
  Pt  Pt4       1.0  0.00653838953792245  0.0041593842496100205  0.9994862119060517  1.0000
  Pt  Pt5       1.0  0.009846983559438817  0.007549661505189261  0.999208610283256  1.0000
  Pt  Pt6       1.0  0.003180317676284049  0.0008829948279155971  0.9989248388521458  1.0000
  Pt  Pt7       1.0  0.009833171793617026  0.007896963903452438  0.9996183077954165  1.0000
  Pt  Pt8       1.0  0.003110298667761288  0.0009180044271168129  0.9993475156434319  1.0000
  Pt  Pt9       1.0  0.006443631630488556  0.004251337657272993  0.9990637441026049  1.0000
  Pt  Pt10      1.0  0.00355636803881219  0.00513089415476486  0.999318482403452  1.0000
  Pt  Pt11      1.0  0.006889701277579601  0.008464227457241475  0.9990347108554452  1.0000
  Pt  Pt12      1.0  0.00016055240173361548  0.0021622599311022545  0.999600883339683  1.0000
