data_image0
_chemical_formula_structural       HPd4Au12Pd4Au12
_chemical_formula_sum              "H1 Pd8 Au24"
_cell_length_a       5.8820648193359375
_cell_length_b       9.18970050304852
_cell_length_c       105.29238891601562
_cell_angle_alpha    108.66508504346461
_cell_angle_beta     90.0
_cell_angle_gamma    71.33491495653539

_space_group_name_H-M_alt    "P 1"
_space_group_IT_number       1

loop_
  _space_group_symop_operation_xyz
  'x, y, z'

loop_
  _atom_site_type_symbol
  _atom_site_label
  _atom_site_symmetry_multiplicity
  _atom_site_fract_x
  _atom_site_fract_y
  _atom_site_fract_z
  _atom_site_occupancy
  H   H1        1.0  0.0046263534581698585  0.0008057105144847973  0.0001362931482575465  1.0000
  Pd  Pd1       1.0  1.7698349206475442e-05  2.1557301661207035e-05  0.99946296164775  1.0000
  Pd  Pd2       1.0  0.005017698568002327  2.1557301661207035e-05  0.9991836413384494  1.0000
  Pd  Pd3       1.0  0.0075176985237406305  0.005021557694183178  0.9993233016059593  1.0000
  Pd  Pd4       1.0  0.0025176983717413413  0.005021557694183178  0.9990439810136154  1.0000
  Au  Au1       1.0  0.0062676985432077855  0.0025215575032495807  0.9991138110346595  1.0000
  Au  Au2       1.0  0.0012676982328759029  0.0025215575032495807  0.9993931313439599  1.0000
  Au  Au3       1.0  0.0012676982328759029  0.0025215575032495807  0.9991138110346595  1.0000
  Au  Au4       1.0  0.0062676985432077855  0.0025215575032495807  0.9993931313439599  1.0000
  Au  Au5       1.0  1.7698349206475442e-05  2.1557301661207035e-05  0.9991836413384494  1.0000
  Au  Au6       1.0  0.005017698568002327  2.1557301661207035e-05  0.99946296164775  1.0000
  Au  Au7       1.0  0.008767697984594055  0.007521557657814874  0.9992534712955227  1.0000
  Au  Au8       1.0  0.003767698465925138  0.007521557657814874  0.9989741507031787  1.0000
  Au  Au9       1.0  0.003767698465925138  0.007521557657814874  0.9992534712955227  1.0000
  Au  Au10      1.0  0.008767697984594055  0.007521557657814874  0.9989741507031787  1.0000
  Au  Au11      1.0  0.0075176985237406305  0.005021557694183178  0.9990439810136154  1.0000
  Au  Au12      1.0  0.0025176983717413413  0.005021557694183178  0.9993233016059593  1.0000
  Pd  Pd5       1.0  0.00998230204403187  9.581750405544779e-05  2.6763794395940437e-06  1.0000
  Pd  Pd6       1.0  0.0050387523619515266  0.00997754242668179  0.9997394552377902  1.0000
  Pd  Pd7       1.0  0.007565239251107387  0.004924132917074332  0.9998776285481643  1.0000
  Pd  Pd8       1.0  0.0025176983717413413  0.005021557694183178  0.9996026219152597  1.0000
  Au  Au13      1.0  0.0062676985432077855  0.0025215575032495807  0.9996724522193473  1.0000
  Au  Au14      1.0  0.0012093427148943403  0.002612482809793653  0.9999563875336464  1.0000
  Au  Au15      1.0  0.0012676982328759029  0.0025215575032495807  0.9996724522193473  1.0000
  Au  Au16      1.0  0.006236173719248573  0.0026119961564230443  0.9999563829978102  1.0000
  Au  Au17      1.0  3.943535894929458e-05  0.009978443451418404  0.9997378540375208  1.0000
  Au  Au18      1.0  0.004983351714651079  9.17140015223554e-05  9.007225936023244e-06  1.0000
  Au  Au19      1.0  0.008803213711469578  0.0074514559330495014  0.9998216159572287  1.0000
  Au  Au20      1.0  0.003767698465925138  0.007521557657814874  0.9995327916048231  1.0000
  Au  Au21      1.0  0.00380313418406406  0.007451319551908742  0.9998216381878223  1.0000
  Au  Au22      1.0  0.008767697984594055  0.007521557657814874  0.9995327916048231  1.0000
  Au  Au23      1.0  0.0075176985237406305  0.005021557694183178  0.9996026219152597  1.0000
  Au  Au24      1.0  0.002523110516243709  0.005011715067254596  0.9998870168212508  1.0000
