data_image0
_chemical_formula_structural       COCa4In16Rh4Ca4In16Rh4
_chemical_formula_sum              "C1 O1 Ca8 In32 Rh8"
_cell_length_a       15.904858131785033
_cell_length_b       9.85541596165172
_cell_length_c       104.58312225341797
_cell_angle_alpha    116.01656175409089
_cell_angle_beta     105.77121769391238
_cell_angle_gamma    83.15299762613925

_space_group_name_H-M_alt    "P 1"
_space_group_IT_number       1

loop_
  _space_group_symop_operation_xyz
  'x, y, z'

loop_
  _atom_site_type_symbol
  _atom_site_label
  _atom_site_symmetry_multiplicity
  _atom_site_fract_x
  _atom_site_fract_y
  _atom_site_fract_z
  _atom_site_occupancy
  C   C1        1.0  0.004479517421249246  0.0034421910508438437  0.0003274397993713785  1.0000
  O   O1        1.0  0.004479517421249246  0.0034421910508438437  0.00044218129933938963  1.0000
  Ca  Ca1       1.0  0.0021689719082359812  0.002788142607676458  0.9996708440622878  1.0000
  Ca  Ca2       1.0  0.007168971976383996  0.002788142607676458  0.9994641716824293  1.0000
  Ca  Ca3       1.0  0.0031651099252387473  0.007788142102936751  0.999505346518135  1.0000
  Ca  Ca4       1.0  0.008165109506615233  0.007788142102936751  0.9997120189632964  1.0000
  In  In1       1.0  0.00016704094350979812  0.00028814264973810064  0.9994847590323609  1.0000
  In  In2       1.0  0.0051670408291184895  0.00028814264973810064  0.9996914314900975  1.0000
  In  In3       1.0  0.00016704094350979812  0.0052881423553066045  0.9996914314826557  1.0000
  In  In4       1.0  0.0051670408291184895  0.0052881423553066045  0.9994847590952521  1.0000
  In  In5       1.0  0.0005011228305293944  0.002788142607676458  0.9998085769321575  1.0000
  In  In6       1.0  0.005501122837830968  0.002788142607676458  0.999601904264821  1.0000
  In  In7       1.0  0.004832958820406011  0.007788142102936751  0.9997809584858605  1.0000
  In  In8       1.0  0.00983295913193979  0.007788142102936751  0.9995742861160622  1.0000
  In  In9       1.0  0.00359660197491231  0.000929955150848528  0.9994463746260251  1.0000
  In  In10      1.0  0.008596602286446087  0.000929955150848528  0.9996530471013672  1.0000
  In  In11      1.0  0.0017374798585624187  0.009646329559764681  0.9997298156694348  1.0000
  In  In12      1.0  0.006737479683324669  0.009646329559764681  0.9995231432795161  1.0000
  In  In13      1.0  0.00359660197491231  0.0046463300645043885  0.9995999890969948  1.0000
  In  In14      1.0  0.008596602286446087  0.0046463300645043885  0.9998066615723368  1.0000
  In  In15      1.0  0.0017374798585624187  0.005929955066725243  0.9995762012158511  1.0000
  In  In16      1.0  0.006737479683324669  0.005929955066725243  0.9997828736710727  1.0000
  Rh  Rh1       1.0  0.004197854864855402  0.002788142607676458  0.9997547069096273  1.0000
  Rh  Rh2       1.0  0.009197854689617651  0.002788142607676458  0.9995480345197086  1.0000
  Rh  Rh3       1.0  0.0011362269686193273  0.007788142102936751  0.9998348285159359  1.0000
  Rh  Rh4       1.0  0.006136226793381577  0.007788142102936751  0.9996281558410541  1.0000
  Ca  Ca5       1.0  0.002246679628211228  0.0028195311082522653  9.799212828083083e-05  1.0000
  Ca  Ca6       1.0  0.007168971976383996  0.002788142607676458  0.9998775165275696  1.0000
  Ca  Ca7       1.0  0.0031651099252387473  0.007788142102936751  0.9999186913632754  1.0000
  Ca  Ca8       1.0  0.008136690324489845  0.007714325603143761  0.00012025484801008002  1.0000
  In  In17      1.0  0.00016704094350979812  0.00028814264973810064  0.9998981038775012  1.0000
  In  In18      1.0  0.005287287512934883  0.0003714580353686592  0.00014218659723485942  1.0000
  In  In19      1.0  0.00019350354747796586  0.005303894860969111  0.00013642642712839178  1.0000
  In  In20      1.0  0.0051670408291184895  0.0052881423553066045  0.9998981039403924  1.0000
  In  In21      1.0  0.00044712623845969855  0.0026811554555228752  0.0002517043925188247  1.0000
  In  In22      1.0  0.005600985477136412  0.0030111187343631637  5.943104471326018e-05  1.0000
  In  In23      1.0  0.004947701578554115  0.007702087347696476  0.0002066411628401971  1.0000
  In  In24      1.0  0.009820270945288189  0.007870296902701798  0.9999987443138363  1.0000
  In  In25      1.0  0.00359660197491231  0.000929955150848528  0.9998597197561284  1.0000
  In  In26      1.0  0.00863699945556357  0.0009472160921584716  6.877834983324916e-05  1.0000
  In  In27      1.0  0.0017337829504993389  0.00971185739232354  0.00014795778357691128  1.0000
  In  In28      1.0  0.006737479683324669  0.009646329559764681  0.9999364881246563  1.0000
  In  In29      1.0  0.00369004823532003  0.004705957069263209  3.326499749008194e-05  1.0000
  In  In30      1.0  0.008600195633866563  0.00448841299337297  0.00021469813074501785  1.0000
  In  In31      1.0  0.001776641601541569  0.005829834057062775  0.9999811187722668  1.0000
  In  In32      1.0  0.006747480891141126  0.005961399088668903  0.00018974550106767946  1.0000
  Rh  Rh5       1.0  0.0042011313240110796  0.002610753519852826  0.00013730726340709502  1.0000
  Rh  Rh6       1.0  0.009189560102778733  0.002780800748010787  0.9999459132534355  1.0000
  Rh  Rh7       1.0  0.001128139381372735  0.007637691814548671  0.0002012034033533557  1.0000
  Rh  Rh8       1.0  0.006176595729750429  0.007758857105092999  3.6681604995552615e-05  1.0000
