data_image0
_chemical_formula_structural       CONa6Ca6Al2As8
_chemical_formula_sum              "C1 O1 Na6 Ca6 Al2 As8"
_cell_length_a       7.303413391113281
_cell_length_b       9.567650749429529
_cell_length_c       108.2706069946289
_cell_angle_alpha    59.99999984250118
_cell_angle_beta     90.0
_cell_angle_gamma    90.0

_space_group_name_H-M_alt    "P 1"
_space_group_IT_number       1

loop_
  _space_group_symop_operation_xyz
  'x, y, z'

loop_
  _atom_site_type_symbol
  _atom_site_label
  _atom_site_symmetry_multiplicity
  _atom_site_fract_x
  _atom_site_fract_y
  _atom_site_fract_z
  _atom_site_occupancy
  C   C1        1.0  0.00657052138192945  0.005257908234657767  0.9997676847331992  1.0000
  O   O1        1.0  0.00657052138192945  0.005257908234657767  0.9998785178119742  1.0000
  Na  Na1       1.0  0.002388806781738334  0.008074655081516901  0.9996919183609696  1.0000
  Na  Na2       1.0  0.007197600224152358  0.0011525148466904596  0.9996095474475611  1.0000
  Na  Na3       1.0  0.007365251752243091  0.007251810631047127  0.9990511133350122  1.0000
  Na  Na4       1.0  0.0023879511305323823  0.003298207417247245  0.9996918931541213  1.0000
  Na  Na5       1.0  0.0023652517624445954  0.008625905144676399  0.9991725395287437  1.0000
  Na  Na6       1.0  0.007365251752243091  0.0013740949632270723  0.9990511134343925  1.0000
  Ca  Ca1       1.0  0.005642173743474955  0.009493997567251486  0.9993938844793054  1.0000
  Ca  Ca2       1.0  0.0006421738174358635  0.00050600282165061  0.9993491699139947  1.0000
  Ca  Ca3       1.0  0.0006421738174358635  0.004746998783625743  0.9989744019626192  1.0000
  Ca  Ca4       1.0  0.005642173743474955  0.005253001773875528  0.9993938846086388  1.0000
  Ca  Ca5       1.0  0.0006421738174358635  0.004746998783625743  0.999349169777212  1.0000
  Ca  Ca6       1.0  0.005642173743474955  0.005253001773875528  0.9988849732384595  1.0000
  Al  Al1       1.0  0.009357825970882916  0.006621681331611712  0.9995266269785245  1.0000
  Al  Al2       1.0  0.004418951611929147  0.0033333333693011573  0.9992242472220805  1.0000
  As  As1       1.0  0.008432885124919956  0.00825910707460049  0.9996316958310071  1.0000
  As  As2       1.0  0.003344829827231234  0.0018907023919667563  0.9994794758375081  1.0000
  As  As3       1.0  0.003349496760589717  0.006196443640405321  0.9990977436398903  1.0000
  As  As4       1.0  0.008435173322422131  0.003792489617671815  0.999632408454241  1.0000
  As  As5       1.0  0.008349496495350595  0.008098222098953296  0.9992657998546395  1.0000
  As  As6       1.0  0.003349496760589717  0.001901778458547975  0.999097743475275  1.0000
  As  As7       1.0  0.0028435056984462636  0.0068576936499008265  0.9994847827503308  1.0000
  As  As8       1.0  0.007921381169641525  0.0033333333693011573  0.9992242472220805  1.0000
