data_image0
_chemical_formula_structural       COCu4Se8Cu4Se8
_chemical_formula_sum              "C1 O1 Cu8 Se16"
_cell_length_a       6.298540115356445
_cell_length_b       10.918911455530663
_cell_length_c       100.8797607421875
_cell_angle_alpha    110.70229751738833
_cell_angle_beta     90.0
_cell_angle_gamma    90.0

_space_group_name_H-M_alt    "P 1"
_space_group_IT_number       1

loop_
  _space_group_symop_operation_xyz
  'x, y, z'

loop_
  _atom_site_type_symbol
  _atom_site_label
  _atom_site_symmetry_multiplicity
  _atom_site_fract_x
  _atom_site_fract_y
  _atom_site_fract_z
  _atom_site_occupancy
  C   C1        1.0  0.002256799876907753  0.009953675849262723  0.00032576165649317513  1.0000
  O   O1        1.0  0.002256799876907753  0.009953675849262723  0.00044471480057048813  1.0000
  Cu  Cu1       1.0  0.0005734590916415033  0.005046323421280529  0.9996258934927661  1.0000
  Cu  Cu2       1.0  0.0005734590916415033  4.632354950534808e-05  0.9998172088728258  1.0000
  Cu  Cu3       1.0  0.005573458942299627  0.002546323421280529  0.9997215510326307  1.0000
  Cu  Cu4       1.0  0.005573458942299627  0.007546323421280529  0.9995302356574773  1.0000
  Se  Se1       1.0  0.0067203773473775  0.0041057090056979325  0.9995899026905847  1.0000
  Se  Se2       1.0  0.0067203773473775  0.00910570864096956  0.9997812180635994  1.0000
  Se  Se3       1.0  0.004426540832948242  0.0009869380192273128  0.999470568914955  1.0000
  Se  Se4       1.0  0.004426540832948242  0.005986937836863126  0.9996618842949475  1.0000
  Se  Se5       1.0  0.009426540868435421  0.0016057090056979324  0.9996855602304493  1.0000
  Se  Se6       1.0  0.009426540868435421  0.006605708640969559  0.9994942448413403  1.0000
  Se  Se7       1.0  0.0017203773118903208  0.003486937836863126  0.9997575418348121  1.0000
  Se  Se8       1.0  0.0017203773118903208  0.008486937472134751  0.9995662264457031  1.0000
  Cu  Cu5       1.0  0.0008744329876349043  0.0049544089532937595  0.9999991469946766  1.0000
  Cu  Cu6       1.0  0.008794169400725083  0.00976051132583724  0.00011377219582981952  1.0000
  Cu  Cu7       1.0  0.005431307359582818  0.0027151240893461964  7.473240739121876e-05  1.0000
  Cu  Cu8       1.0  0.005469729919291368  0.007543045972114911  0.9999153992412414  1.0000
  Se  Se9       1.0  0.0067661291923701095  0.004310091114983392  0.9999711303022957  1.0000
  Se  Se10      1.0  0.005719430719791269  0.008947881190753524  0.00017065815556550017  1.0000
  Se  Se11      1.0  0.004426540832948242  0.0009869380192273128  0.9998531996770788  1.0000
  Se  Se12      1.0  0.0044906590672182806  0.00614849536415648  6.296393962956089e-05  1.0000
  Se  Se13      1.0  0.009155295210362695  0.0018261355161402516  6.987356458613175e-05  1.0000
  Se  Se14      1.0  0.009426540868435421  0.006605708640969559  0.999876875603464  1.0000
  Se  Se15      1.0  0.0018013133636822208  0.003583912911034288  0.00014985782067970303  1.0000
  Se  Se16      1.0  0.0015232671792863742  0.008555188363239114  0.9999482970227682  1.0000
