data_image0
_chemical_formula_structural       COSi6Mo18
_chemical_formula_sum              "C1 O1 Si6 Mo18"
_cell_length_a       6.945211410522461
_cell_length_b       6.945211396363716
_cell_length_c       104.02445220947266
_cell_angle_alpha    90.0
_cell_angle_beta     90.0
_cell_angle_gamma    59.99999993256253

_space_group_name_H-M_alt    "P 1"
_space_group_IT_number       1

loop_
  _space_group_symop_operation_xyz
  'x, y, z'

loop_
  _atom_site_type_symbol
  _atom_site_label
  _atom_site_symmetry_multiplicity
  _atom_site_fract_x
  _atom_site_fract_y
  _atom_site_fract_z
  _atom_site_occupancy
  C   C1        1.0  0.0037499988243672347  0.003333300598027462  0.00010114650637898484  1.0000
  O   O1        1.0  0.0037499988243672347  0.003333300598027462  0.00021650423298859753  1.0000
  Si  Si1       1.0  0.0070833302192689455  0.00666667861620945  0.9998681362407646  1.0000
  Si  Si2       1.0  0.0004166666628413408  3.900000118760339e-09  0.9996039211104717  1.0000
  Si  Si3       1.0  0.0037500002445252966  0.0033333374500210166  0.9993313532641512  1.0000
  Si  Si4       1.0  0.007083333172351855  0.006666670564513379  0.9994676370440647  1.0000
  Si  Si5       1.0  0.0004166894647497543  0.009999996556351526  0.0  1.0000
  Si  Si6       1.0  0.003750054243686214  0.0033332820171903758  0.9997377851668534  1.0000
  Mo  Mo1       1.0  0.009583333987653351  0.006666670564513379  0.9996720630004284  1.0000
  Mo  Mo2       1.0  0.0029166667406168123  3.900000118760339e-09  0.999399495154108  1.0000
  Mo  Mo3       1.0  0.006182212205922606  0.0034836474413107166  0.9999346388153001  1.0000
  Mo  Mo4       1.0  0.007810517649496698  0.00020740280681852505  0.9998127054914254  1.0000
  Mo  Mo5       1.0  0.0012499999656063634  0.0033333374500210166  0.999535779220515  1.0000
  Mo  Mo6       1.0  0.004583333429815485  0.006666670564513379  0.9992632113741945  1.0000
  Mo  Mo7       1.0  0.0006240407381979053  0.0023987293962795674  0.9998127003345436  1.0000
  Mo  Mo8       1.0  0.003750000159148768  0.005833337363310443  0.999535779220515  1.0000
  Mo  Mo9       1.0  0.007083334004900143  0.009166670787483424  0.9992632113741945  1.0000
  Mo  Mo10      1.0  0.007083333257728383  0.004166670651223952  0.9996720630004284  1.0000
  Mo  Mo11      1.0  0.0004166666375375624  0.007500004385077552  0.999399495154108  1.0000
  Mo  Mo12      1.0  0.003900366289612219  0.0007507255866431073  0.9999346416802344  1.0000
  Mo  Mo13      1.0  0.002815342861239394  0.007394017432253971  0.9998126957506487  1.0000
  Mo  Mo14      1.0  0.006250000227278504  0.0008333372270509715  0.999535779220515  1.0000
  Mo  Mo15      1.0  0.009583334073029878  0.004166670651223952  0.9992632113741945  1.0000
  Mo  Mo16      1.0  0.004583333189598647  0.009166670787483424  0.9996720630004284  1.0000
  Mo  Mo17      1.0  0.007916666613771628  0.002500003939137462  0.999399495154108  1.0000
  Mo  Mo18      1.0  0.0011674175545352886  0.005765529075809181  0.9999346474101031  1.0000
