data_image0
_chemical_formula_structural       COAs18Ni18
_chemical_formula_sum              "C1 O1 As18 Ni18"
_cell_length_a       6.368224143981934
_cell_length_b       8.154529527617013
_cell_length_c       103.68643951416016
_cell_angle_alpha    91.58970402233251
_cell_angle_beta     90.0
_cell_angle_gamma    112.9838459950151

_space_group_name_H-M_alt    "P 1"
_space_group_IT_number       1

loop_
  _space_group_symop_operation_xyz
  'x, y, z'

loop_
  _atom_site_type_symbol
  _atom_site_label
  _atom_site_symmetry_multiplicity
  _atom_site_fract_x
  _atom_site_fract_y
  _atom_site_fract_z
  _atom_site_occupancy
  C   C1        1.0  0.006292440483062553  0.00293467886500804  0.00013731110989988364  1.0000
  O   O1        1.0  0.006292440483062553  0.00293467886500804  0.000253044322172174  1.0000
  As  As1       1.0  0.003384972664715717  0.009909983378188564  0.999967477176717  1.0000
  As  As2       1.0  0.005696266177117185  0.004555495821130321  0.9996009432289636  1.0000
  As  As3       1.0  0.007918488503043473  0.008999940472982899  0.9992399570875174  1.0000
  As  As4       1.0  0.00421335239490746  0.004925607969109116  0.9993001046069989  1.0000
  As  As5       1.0  0.009523839902154423  0.0055181918186398135  1.2039588936236748e-05  1.0000
  As  As6       1.0  0.001991130093392541  0.00048116365856979023  0.9996610910366173  1.0000
  As  As7       1.0  0.0023616297005872562  0.0012221625804687076  0.9990594640579946  1.0000
  As  As8       1.0  0.007940433672994266  0.0021756346804083894  0.9997919418849581  1.0000
  As  As9       1.0  0.00013940734348576143  0.00677771814705661  0.9994204501582405  1.0000
  As  As10      1.0  0.0019924332736742803  0.007147830295035406  0.9991196115362757  1.0000
  As  As11      1.0  0.00753314444132118  0.008166742446979491  0.9998634765871321  1.0000
  As  As12      1.0  0.00977021106016228  0.002703385891410647  0.9994805976782636  1.0000
  As  As13      1.0  0.006034199649364956  0.008562547167257477  0.9995462040245868  1.0000
  As  As14      1.0  0.008256422006466452  0.003006991600669575  0.9991852176369136  1.0000
  As  As15      1.0  0.003625960785517845  0.004111722067515171  0.9999099234761402  1.0000
  As  As16      1.0  0.003808525279568829  0.0007847693368002406  0.9993657107077721  1.0000
  As  As17      1.0  0.00603074757446664  0.005229213926595864  0.9990047245661905  1.0000
  As  As18      1.0  0.0015863027451936  0.006340324841331188  0.9997266968078826  1.0000
  Ni  Ni1       1.0  0.005089410766449536  9.001645239594894e-05  0.9991516716610074  1.0000
  Ni  Ni2       1.0  0.0007830369211056527  0.0009937942891055486  0.9998669583931473  1.0000
  Ni  Ni3       1.0  0.0028671883276272197  0.005645571910384181  0.9995126577610163  1.0000
  Ni  Ni4       1.0  0.003305184855938888  0.0069645919933731355  0.9999314757944235  1.0000
  Ni  Ni5       1.0  0.005908556004390829  0.0015677834546840375  0.999572580732626  1.0000
  Ni  Ni6       1.0  0.008130778392374074  0.006012228230650526  0.9992115948788779  1.0000
  Ni  Ni7       1.0  0.0040585611908263005  0.00786779423631047  0.9993321649777205  1.0000
  Ni  Ni8       1.0  0.006280783611910095  0.0023122386697225668  0.9989711785900472  1.0000
  Ni  Ni9       1.0  0.001836338989013921  0.0034233498326857116  0.9996931511197084  1.0000
  Ni  Ni10      1.0  0.004699340676681305  0.009302666214619315  0.9997514019097813  1.0000
  Ni  Ni11      1.0  0.00693940536849977  0.0037900056564964166  0.9993920879490595  1.0000
  Ni  Ni12      1.0  0.009161627570312149  0.008234450060121174  0.9990311015196442  1.0000
  Ni  Ni13      1.0  0.00986059246655136  0.009717698165392266  0.9994523803970284  1.0000
  Ni  Ni14      1.0  0.0020828147952261077  0.004162142847032184  0.9990913940098968  1.0000
  Ni  Ni15      1.0  0.007647112315358604  0.005276072388665573  0.9998073694802884  1.0000
  Ni  Ni16      1.0  0.0011372832793927897  0.001939920521105894  0.9992718870806199  1.0000
  Ni  Ni17      1.0  0.006257661903747657  0.002865121706378246  0.999970188182109  1.0000
  Ni  Ni18      1.0  0.008915061016424928  0.007495476335921617  0.9996328731814074  1.0000
