data_image0
_chemical_formula_structural       COV18Sb6V18Sb6
_chemical_formula_sum              "C1 O1 V36 Sb12"
_cell_length_a       4.950314044952393
_cell_length_b       11.069238439443383
_cell_length_c       112.00480651855469
_cell_angle_alpha    71.56505117707799
_cell_angle_beta     90.0
_cell_angle_gamma    90.0

_space_group_name_H-M_alt    "P 1"
_space_group_IT_number       1

loop_
  _space_group_symop_operation_xyz
  'x, y, z'

loop_
  _atom_site_type_symbol
  _atom_site_label
  _atom_site_symmetry_multiplicity
  _atom_site_fract_x
  _atom_site_fract_y
  _atom_site_fract_z
  _atom_site_occupancy
  C   C1        1.0  0.007404283752462659  0.0070775814905459  0.9997788097594719  1.0000
  O   O1        1.0  0.007404283752462659  0.0070775814905459  0.9998859477036999  1.0000
  V   V1        1.0  3.7999998450175306e-09  0.007546898038816097  0.9987303039262824  1.0000
  V   V2        1.0  3.7999998450175306e-09  0.004213565116991551  0.9991470005088506  1.0000
  V   V3        1.0  3.7999998450175306e-09  0.0008802315743563344  0.998938652153818  1.0000
  V   V4        1.0  3.7999998450175306e-09  0.005880231400529346  0.9986261297446085  1.0000
  V   V5        1.0  3.7999998450175306e-09  0.0025468983013303232  0.9990428263327202  1.0000
  V   V6        1.0  3.7999998450175306e-09  0.009213564677102846  0.9988344781079562  1.0000
  V   V7        1.0  0.00500000373257933  0.007546898038816097  0.9988865651655331  1.0000
  V   V8        1.0  0.00500000373257933  0.004213565116991551  0.9986782167910987  1.0000
  V   V9        1.0  0.00500000373257933  0.0008802315743563344  0.9990949133930687  1.0000
  V   V10       1.0  0.00500000373257933  0.009213564677102846  0.9986782168687055  1.0000
  V   V11       1.0  0.00500000373257933  0.005880231400529346  0.9990949134623606  1.0000
  V   V12       1.0  0.00500000373257933  0.0025468983013303232  0.9988865650934695  1.0000
  V   V13       1.0  0.007500003341260528  0.005046898081385971  0.9988865648661922  1.0000
  V   V14       1.0  0.007500003341260528  0.0017135649821869482  0.9986782170294627  1.0000
  V   V15       1.0  0.007500003341260528  0.008380231712708427  0.9990949132184532  1.0000
  V   V16       1.0  0.0025000037476300527  0.005046898081385971  0.9988865648661922  1.0000
  V   V17       1.0  0.0025000037476300527  0.0017135649821869482  0.9986782170294627  1.0000
  V   V18       1.0  0.0025000037476300527  0.008380231712708427  0.9990949132184532  1.0000
  Sb  Sb1       1.0  0.00500000373257933  0.006713565074421676  0.9986782170904395  1.0000
  Sb  Sb2       1.0  0.00500000373257933  0.003380231443099221  0.9990949131630197  1.0000
  Sb  Sb3       1.0  0.00500000373257933  4.689829955657856e-05  0.998886565327676  1.0000
  Sb  Sb4       1.0  3.7999998450175306e-09  0.006713565074421676  0.9989907390367794  1.0000
  Sb  Sb5       1.0  3.7999998450175306e-09  0.003380231443099221  0.9987823912166799  1.0000
  Sb  Sb6       1.0  3.7999998450175306e-09  4.689829955657856e-05  0.9991990872740159  1.0000
  V   V19       1.0  3.7999998450175306e-09  0.007546898038816097  0.9993553483511236  1.0000
  V   V20       1.0  1.0459999936004794e-07  0.004345353998816489  0.9997250632893274  1.0000
  V   V21       1.0  2.7499999936041774e-08  0.0008845709522542644  0.999568721333374  1.0000
  V   V22       1.0  3.7999998450175306e-09  0.005880231400529346  0.9992511747016113  1.0000
  V   V23       1.0  1.0009999712615025e-07  0.002545011391641665  0.9996642796320435  1.0000
  V   V24       1.0  3.7999998450175306e-09  0.009213564677102846  0.9994595225327975  1.0000
  V   V25       1.0  0.00500000373257933  0.007546898038816097  0.9995116095903742  1.0000
  V   V26       1.0  0.00500000373257933  0.004213565116991551  0.9993032617481014  1.0000
  V   V27       1.0  0.004999989058124303  0.0006428415115539634  0.9997232599866677  1.0000
  V   V28       1.0  0.00500000373257933  0.009213564677102846  0.9993032618257083  1.0000
  V   V29       1.0  0.0049999792751542855  0.00591180795971287  0.9996996791307992  1.0000
  V   V30       1.0  0.00500000373257933  0.0025468983013303232  0.9995116095183108  1.0000
  V   V31       1.0  0.007500003341260528  0.005046898081385971  0.9995116098231949  1.0000
  V   V32       1.0  0.007500003341260528  0.0017135649821869482  0.9993032614543039  1.0000
  V   V33       1.0  0.007212776846612951  0.008448563456312366  0.9997170196240523  1.0000
  V   V34       1.0  0.0025000037476300527  0.005046898081385971  0.9995116098231949  1.0000
  V   V35       1.0  0.0025000037476300527  0.0017135649821869482  0.9993032614543039  1.0000
  V   V36       1.0  0.0027871892290571715  0.00844855990882282  0.9997170192027579  1.0000
  Sb  Sb7       1.0  0.00500000373257933  0.006713565074421676  0.9993032615152807  1.0000
  Sb  Sb8       1.0  0.005000317163887974  0.00324584792742152  0.9997445641697581  1.0000
  Sb  Sb9       1.0  0.00500000373257933  4.689829955657856e-05  0.9995116097525172  1.0000
  Sb  Sb10      1.0  7.159999828851877e-08  0.006802025983198363  0.9996187827016074  1.0000
  Sb  Sb11      1.0  3.7999998450175306e-09  0.003380231443099221  0.9994074356415211  1.0000
  Sb  Sb12      1.0  0.00999999617711633  0.009953101308445827  0.9998379389765721  1.0000
