data_image0
_chemical_formula_structural       COCo12Sb24
_chemical_formula_sum              "C1 O1 Co12 Sb24"
_cell_length_a       14.660672705274068
_cell_length_b       6.880349539268481
_cell_length_c       106.87821197509766
_cell_angle_alpha    68.36591229855622
_cell_angle_beta     70.58270350556153
_cell_angle_gamma    62.37417752761286

_space_group_name_H-M_alt    "P 1"
_space_group_IT_number       1

loop_
  _space_group_symop_operation_xyz
  'x, y, z'

loop_
  _atom_site_type_symbol
  _atom_site_label
  _atom_site_symmetry_multiplicity
  _atom_site_fract_x
  _atom_site_fract_y
  _atom_site_fract_z
  _atom_site_occupancy
  C   C1        1.0  0.003074380408611943  0.0071282087581994846  0.9996091692310394  1.0000
  O   O1        1.0  0.003074380408611943  0.0071282087581994846  0.9997214462283085  1.0000
  Co  Co1       1.0  0.006690999594104346  0.0071326999958561494  0.9993050546545863  1.0000
  Co  Co2       1.0  0.0033576663541717436  0.0071326999958561494  0.9990175138213546  1.0000
  Co  Co3       1.0  0.00012857871794309304  0.007269101975443473  0.9995626589433765  1.0000
  Co  Co4       1.0  0.006610267462050998  0.007785867460214173  0.9988667793175302  1.0000
  Co  Co5       1.0  0.003341024911890773  0.007882955460843196  0.9994313785776409  1.0000
  Co  Co6       1.0  0.0099436007019836  0.007785867460214173  0.9991543201507619  1.0000
  Co  Co7       1.0  0.009980630662769422  0.0028524654645006304  0.9995619885237343  1.0000
  Co  Co8       1.0  0.006605304266582888  0.0027858676751966877  0.9992989469191834  1.0000
  Co  Co9       1.0  0.0032719707572251002  0.0027858676751966877  0.999011406098238  1.0000
  Co  Co10      1.0  1.9369683023994402e-05  0.0021327002108386638  0.9991621406005267  1.0000
  Co  Co11      1.0  0.006686036398636236  0.0021327002108386638  0.9988745995685547  1.0000
  Co  Co12      1.0  0.0033979440686757617  0.0020799482439459306  0.9994400705944494  1.0000
  Sb  Sb1       1.0  0.008188774019911329  0.008295466439620851  0.9988790406299962  1.0000
  Sb  Sb2       1.0  0.004862290731925766  0.008282891859404309  0.9994577937539587  1.0000
  Sb  Sb3       1.0  0.0015221078094713092  0.008295466439620851  0.9991665816389312  1.0000
  Sb  Sb4       1.0  0.006070069480230233  0.006623101016449471  0.9991275878085408  1.0000
  Sb  Sb5       1.0  0.002736736240297631  0.006623101016449471  0.9988400469753091  1.0000
  Sb  Sb6       1.0  0.009369738830911294  0.006678383770153524  0.9994142157067707  1.0000
  Sb  Sb7       1.0  0.008440862541858137  0.0016231012314319856  0.9991498791138932  1.0000
  Sb  Sb8       1.0  0.005107529301925534  0.0016231012314319856  0.9988623382806614  1.0000
  Sb  Sb9       1.0  0.0017991330339779856  0.0015884555345543774  0.9994420842645476  1.0000
  Sb  Sb10      1.0  0.0005595676311666098  0.003295466654603366  0.9989013321110518  1.0000
  Sb  Sb11      1.0  0.007088288189673832  0.0033649622817477276  0.99949079000758  1.0000
  Sb  Sb12      1.0  0.003892900871099212  0.003295466654603366  0.9991888729442835  1.0000
  Sb  Sb13      1.0  0.008591106549123895  0.006257348734660467  0.9991593185542818  1.0000
  Sb  Sb14      1.0  0.0052577733091912935  0.006257348734660467  0.9988717777210501  1.0000
  Sb  Sb15      1.0  0.002008689781160655  0.00620480890492581  0.9994517515318214  1.0000
  Sb  Sb16      1.0  0.006966253196522531  0.008742650936542747  0.9994726089774902  1.0000
  Sb  Sb17      1.0  0.0037698671498201746  0.008661218721409856  0.9991747388622113  1.0000
  Sb  Sb18      1.0  0.0004365340446001647  0.008661218721409856  0.9988871980228364  1.0000
  Sb  Sb19      1.0  0.00803853055149594  0.00366121893639237  0.9988696011650349  1.0000
  Sb  Sb20      1.0  0.004643893605712123  0.003759343595354225  0.9994363884558437  1.0000
  Sb  Sb21      1.0  0.0013718639369181432  0.00366121893639237  0.9991571421923995  1.0000
  Sb  Sb22      1.0  0.009487403000594384  0.001328865254351934  0.9994283264818903  1.0000
  Sb  Sb23      1.0  0.006193102932084087  0.0012573489496429814  0.9991417219028994  1.0000
  Sb  Sb24      1.0  0.0028597699615766693  0.0012573489496429814  0.9988541810573813  1.0000
