data_image0
_chemical_formula_structural       COV2Pd6V2Pd6V2Pd6V2Pd6
_chemical_formula_sum              "C1 O1 V8 Pd24"
_cell_length_a       5.540594972650663
_cell_length_b       8.99849796295166
_cell_length_c       108.78416442871094
_cell_angle_alpha    90.0
_cell_angle_beta     120.00000048943079
_cell_angle_gamma    90.0

_space_group_name_H-M_alt    "P 1"
_space_group_IT_number       1

loop_
  _space_group_symop_operation_xyz
  'x, y, z'

loop_
  _atom_site_type_symbol
  _atom_site_label
  _atom_site_symmetry_multiplicity
  _atom_site_fract_x
  _atom_site_fract_y
  _atom_site_fract_z
  _atom_site_occupancy
  C   C1        1.0  0.006726414277062864  0.0025000561950346816  0.00017310189453393452  1.0000
  O   O1        1.0  0.006726414277062864  0.0025000561950346816  0.0002834122911041908  1.0000
  V   V1        1.0  0.0066781849140036785  0.003750001391007194  0.9995352401239985  1.0000
  V   V2        1.0  0.003344851627253011  0.0012500012916495374  0.9991956933494286  1.0000
  Pd  Pd1       1.0  0.0034007869278058615  0.0012500012916495374  0.9994517779070033  1.0000
  Pd  Pd2       1.0  0.008316883907102586  0.0012500012916495374  0.9991928444680646  1.0000
  Pd  Pd3       1.0  0.008316883907102586  0.0012500012916495374  0.9994517777785017  1.0000
  Pd  Pd4       1.0  0.00662225000163971  0.003750001391007194  0.9992791555763093  1.0000
  Pd  Pd5       1.0  0.0017061526341541026  0.003750001391007194  0.9995380890053626  1.0000
  Pd  Pd6       1.0  0.0017061526341541026  0.003750001391007194  0.9992791556949254  1.0000
  V   V3        1.0  0.006349051983124703  0.0037500663874743007  1.1308710719463146e-05  1.0000
  V   V4        1.0  0.003344851627253011  0.0012500012916495374  0.9997050135678546  1.0000
  Pd  Pd7       1.0  0.0034940555176931646  0.0012500457955999448  0.9999671942046712  1.0000
  Pd  Pd8       1.0  0.008316883907102586  0.0012500012916495374  0.9997021646864905  1.0000
  Pd  Pd9       1.0  0.00834344767228779  0.0012499333972507763  0.9999674738977916  1.0000
  Pd  Pd10      1.0  0.006567640366118387  0.003749993111202467  0.9997855531310672  1.0000
  Pd  Pd11      1.0  0.0016565525761530937  0.003750038650128465  4.218576784297189e-05  1.0000
  Pd  Pd12      1.0  0.0016985057013704794  0.0037500088428314483  0.9997853739313126  1.0000
  V   V5        1.0  0.0066781849140036785  0.008750000761742035  0.9995352401239985  1.0000
  V   V6        1.0  0.003344851627253011  0.006250001076374614  0.9991956933494286  1.0000
  Pd  Pd13      1.0  0.0034007869278058615  0.006250001076374614  0.9994517779070033  1.0000
  Pd  Pd14      1.0  0.008316883907102586  0.006250001076374614  0.9991928444680646  1.0000
  Pd  Pd15      1.0  0.008316883907102586  0.006250001076374614  0.9994517777785017  1.0000
  Pd  Pd16      1.0  0.00662225000163971  0.008750000761742035  0.9992791555763093  1.0000
  Pd  Pd17      1.0  0.0017061526341541026  0.008750000761742035  0.9995380890053626  1.0000
  Pd  Pd18      1.0  0.0017061526341541026  0.008750000761742035  0.9992791556949254  1.0000
  V   V7        1.0  0.006349051983124703  0.008750066172199377  1.1308710719463146e-05  1.0000
  V   V8        1.0  0.003344851627253011  0.006250001076374614  0.9997050135678546  1.0000
  Pd  Pd19      1.0  0.0034940555176931646  0.00625004578732014  0.9999671942046712  1.0000
  Pd  Pd20      1.0  0.008316883907102586  0.006250001076374614  0.9997021646864905  1.0000
  Pd  Pd21      1.0  0.00834344767228779  0.006249933181975853  0.9999674738977916  1.0000
  Pd  Pd22      1.0  0.006567640366118387  0.00874999330991778  0.9997855531310672  1.0000
  Pd  Pd23      1.0  0.0016565525761530937  0.008750038848843778  4.218576784297189e-05  1.0000
  Pd  Pd24      1.0  0.0016985057013704794  0.008750009041546762  0.9997853739313126  1.0000
