data_image0
_chemical_formula_structural       COCu2Au2Cu2Au2Cu2Au2Cu2Au2
_chemical_formula_sum              "C1 O1 Cu8 Au8"
_cell_length_a       5.785843849182129
_cell_length_b       4.695655565301743
_cell_length_c       102.86959075927734
_cell_angle_alpha    76.06156877157645
_cell_angle_beta     90.0
_cell_angle_gamma    90.0

_space_group_name_H-M_alt    "P 1"
_space_group_IT_number       1

loop_
  _space_group_symop_operation_xyz
  'x, y, z'

loop_
  _atom_site_type_symbol
  _atom_site_label
  _atom_site_symmetry_multiplicity
  _atom_site_fract_x
  _atom_site_fract_y
  _atom_site_fract_z
  _atom_site_occupancy
  C   C1        1.0  0.006249997295775749  0.004156407810530842  5.123521683448223e-05  1.0000
  O   O1        1.0  0.006249997295775749  0.004156407810530842  0.00016788800246455278  1.0000
  Cu  Cu1       1.0  0.0037499989569420747  3.187965033143481e-05  0.999196448918918  1.0000
  Cu  Cu2       1.0  0.0037499989569420747  0.005031879427457574  0.9994246823645914  1.0000
  Au  Au1       1.0  0.001249999169416837  3.187965033143481e-05  0.9994246822520512  1.0000
  Au  Au2       1.0  0.001249999169416837  0.005031879427457574  0.9991964490314583  1.0000
  Cu  Cu3       1.0  0.003750000566599367  0.009968120245575616  0.9996592528744516  1.0000
  Cu  Cu4       1.0  0.003749997347284782  0.005071876051198294  0.9998777539256537  1.0000
  Au  Au3       1.0  0.0012500014229370469  0.00990083211091342  0.9998911370664146  1.0000
  Au  Au4       1.0  0.0012500001352112127  0.005021922061967796  0.9996495066574697  1.0000
  Cu  Cu5       1.0  0.008749999175855467  3.187965033143481e-05  0.999196448918918  1.0000
  Cu  Cu6       1.0  0.008749999175855467  0.005031879427457574  0.9994246823645914  1.0000
  Au  Au5       1.0  0.0062499992273645  3.187965033143481e-05  0.9994246822520512  1.0000
  Au  Au6       1.0  0.0062499992273645  0.005031879427457574  0.9991964490314583  1.0000
  Cu  Cu7       1.0  0.008750000463581301  0.009968120245575616  0.9996592528744516  1.0000
  Cu  Cu8       1.0  0.008749997244266715  0.005071876051198294  0.9998777539256537  1.0000
  Au  Au7       1.0  0.0062500011589532506  0.00990083211091342  0.9998911370664146  1.0000
  Au  Au8       1.0  0.006249999871227417  0.005021922061967796  0.9996495066574697  1.0000
