data_image0
_chemical_formula_structural       COGa5As5Pd25
_chemical_formula_sum              "C1 O1 Ga5 As5 Pd25"
_cell_length_a       8.984463424101344
_cell_length_b       8.094320996177583
_cell_length_c       106.14684295654297
_cell_angle_alpha    62.980492850388046
_cell_angle_beta     78.53065189986174
_cell_angle_gamma    77.17380751824841

_space_group_name_H-M_alt    "P 1"
_space_group_IT_number       1

loop_
  _space_group_symop_operation_xyz
  'x, y, z'

loop_
  _atom_site_type_symbol
  _atom_site_label
  _atom_site_symmetry_multiplicity
  _atom_site_fract_x
  _atom_site_fract_y
  _atom_site_fract_z
  _atom_site_occupancy
  C   C1        1.0  0.007968391253403345  0.00016733420189749492  0.9997979410120387  1.0000
  O   O1        1.0  0.007968391253403345  0.00016733420189749492  0.999910992177617  1.0000
  Ga  Ga1       1.0  0.0051667580335079955  0.005154445075113605  0.999283612247727  1.0000
  Ga  Ga2       1.0  0.009122364930390103  0.003080102850125514  0.9994544567126411  1.0000
  Ga  Ga3       1.0  0.0011667578970880061  0.007154445083475207  0.9991133439052017  1.0000
  Ga  Ga4       1.0  0.0031525549486420704  0.00119806087119762  0.9996042991213033  1.0000
  Ga  Ga5       1.0  0.007166758400605012  0.009154444569236704  0.9989430758058526  1.0000
  As  As1       1.0  0.0031667581701724247  0.0011544449277403762  0.9991984780221134  1.0000
  As  As2       1.0  0.007166758400605012  0.009154444569236704  0.9993687464874923  1.0000
  As  As3       1.0  0.009166758202198392  0.0031544448054519514  0.9990282099171217  1.0000
  As  As4       1.0  0.001130046017513535  0.006985671902188793  0.9995499764980093  1.0000
  As  As5       1.0  0.005225023918955531  0.005212685198607104  0.9997058641118693  1.0000
  Pd  Pd1       1.0  0.005607351300417796  0.008832666097029764  0.9992085930319254  1.0000
  Pd  Pd2       1.0  0.009607351078293176  0.006832665566068058  0.9993788613985894  1.0000
  Pd  Pd3       1.0  0.001607351044889873  0.0008326658022833059  0.9990383251511292  1.0000
  Pd  Pd4       1.0  0.0035945404612901513  0.004716328503148209  0.9995645194577094  1.0000
  Pd  Pd5       1.0  0.007634485622227375  0.0030053344531134557  0.9997004474558651  1.0000
  Pd  Pd6       1.0  0.00472616518968362  0.0014762240531974464  0.9993586308948779  1.0000
  Pd  Pd7       1.0  0.0087512666104794  0.009415162445183848  0.9995267468558741  1.0000
  Pd  Pd8       1.0  0.0007261649474922749  0.0034762240615590478  0.9991883631156627  1.0000
  Pd  Pd9       1.0  0.0027901199085317557  0.007524050872084953  0.9996833584374154  1.0000
  Pd  Pd10      1.0  0.00672616549223982  0.005476224069920649  0.9990180949975156  1.0000
  Pd  Pd11      1.0  0.0026073511454705184  0.00783266557024886  0.9992937271071268  1.0000
  Pd  Pd12      1.0  0.006555031989098221  0.00588274162654157  0.9994587731027934  1.0000
  Pd  Pd13      1.0  0.008607351584446709  0.00983266557861046  0.9991234589907599  1.0000
  Pd  Pd14      1.0  0.0006161051330030085  0.0037549269588172387  0.9996312714825739  1.0000
  Pd  Pd15      1.0  0.004607350947063898  0.0018326658064641067  0.9989531910982863  1.0000
  Pd  Pd16      1.0  0.001700867473494264  0.0004459018110535223  0.9994359815318804  1.0000
  Pd  Pd17      1.0  0.005703144990680711  0.008485186674262568  0.9996100645348747  1.0000
  Pd  Pd18      1.0  0.007726164986086289  0.002476224057378247  0.9992734968438151  1.0000
  Pd  Pd19      1.0  0.00972616528864249  0.00647622407410145  0.9989329609464529  1.0000
  Pd  Pd20      1.0  0.0037261652727517258  0.0044762240657398485  0.999103229055699  1.0000
  Pd  Pd21      1.0  0.004166758116576101  0.008154445087656007  0.9990282098470182  1.0000
  Pd  Pd22      1.0  0.008166758676081515  0.006154445079294406  0.9991984781824228  1.0000
  Pd  Pd23      1.0  0.0002738350606487386  0.0002449161962182198  0.9996923583378798  1.0000
  Pd  Pd24      1.0  0.002166758057833022  0.0041544448096327525  0.999368746310859  1.0000
  Pd  Pd25      1.0  0.006099543873692544  0.0021693625519163488  0.9995382101277077  1.0000
