data_image0
_chemical_formula_structural       HFe6Sb12Fe6Sb12
_chemical_formula_sum              "H1 Fe12 Sb24"
_cell_length_a       8.757777714074392
_cell_length_b       7.31401043270202
_cell_length_c       109.9552230834961
_cell_angle_alpha    102.79268395647479
_cell_angle_beta     78.13462377132647
_cell_angle_gamma    70.32217166062966

_space_group_name_H-M_alt    "P 1"
_space_group_IT_number       1

loop_
  _space_group_symop_operation_xyz
  'x, y, z'

loop_
  _atom_site_type_symbol
  _atom_site_label
  _atom_site_symmetry_multiplicity
  _atom_site_fract_x
  _atom_site_fract_y
  _atom_site_fract_z
  _atom_site_occupancy
  H   H1        1.0  0.009641613096880833  0.0015515842656307777  0.0001053152402555598  1.0000
  Fe  Fe1       1.0  0.006752769384167151  0.0007008661822233137  0.9990026584228989  1.0000
  Fe  Fe2       1.0  8.610238643712892e-05  0.0007008661822233137  0.9994064108013637  1.0000
  Fe  Fe3       1.0  0.0034194357494719886  0.0007008661822233137  0.9992045343433152  1.0000
  Fe  Fe4       1.0  0.005086102644535929  0.005700866262026902  0.9994064106085839  1.0000
  Fe  Fe5       1.0  0.008419435844574608  0.005700866262026902  0.9992045346952858  1.0000
  Fe  Fe6       1.0  0.001752769009840767  0.005700866262026902  0.9990026583814173  1.0000
  Sb  Sb1       1.0  0.006223744609155544  0.0042527107249784825  0.9991536899464518  1.0000
  Sb  Sb2       1.0  0.009557078243850707  0.0042527107249784825  0.9989518134839545  1.0000
  Sb  Sb3       1.0  0.002890410974460382  0.0042527107249784825  0.9993555658668681  1.0000
  Sb  Sb4       1.0  0.007281794409615751  0.0071490215140625046  0.9988516269259224  1.0000
  Sb  Sb5       1.0  0.0006151273575536686  0.0071490215140625046  0.9992553795763175  1.0000
  Sb  Sb6       1.0  0.0039484607749205895  0.0071490215140625046  0.9990535031173793  1.0000
  Sb  Sb7       1.0  0.0032472309918405795  0.009252710804782072  0.9993987862175772  1.0000
  Sb  Sb8       1.0  0.006580564626535742  0.009252710804782072  0.9991969097550798  1.0000
  Sb  Sb9       1.0  0.009913898261230904  0.009252710804782072  0.998995033563623  1.0000
  Sb  Sb10      1.0  0.006924974297231279  0.002149021719271733  0.9994140355416717  1.0000
  Sb  Sb11      1.0  0.0002583071365050749  0.002149021719271733  0.9992121592331419  1.0000
  Sb  Sb12      1.0  0.0035916406625361164  0.002149021719271733  0.9990102833145051  1.0000
  Fe  Fe7       1.0  0.006752769384167151  0.0007008661822233137  0.9996082871125629  1.0000
  Fe  Fe8       1.0  0.0003145837079485952  0.0007156088264346916  0.9999811663127289  1.0000
  Fe  Fe9       1.0  0.0034252180272901635  0.0007299341406291725  0.9998169792186204  1.0000
  Fe  Fe10      1.0  0.005136366650295117  0.005539842000933346  0.9999974775604679  1.0000
  Fe  Fe11      1.0  0.008529236994712067  0.005717072090786167  0.9997962688327107  1.0000
  Fe  Fe12      1.0  0.001752769009840767  0.005700866262026902  0.9996082870710813  1.0000
  Sb  Sb13      1.0  0.0063143269199183545  0.004239640037203247  0.9997549035404996  1.0000
  Sb  Sb14      1.0  0.009557078243850707  0.0042527107249784825  0.9995574421736184  1.0000
  Sb  Sb15      1.0  0.0029831332983061174  0.004223247240036207  0.999964324657581  1.0000
  Sb  Sb16      1.0  0.007281794409615751  0.0071490215140625046  0.9994572553445459  1.0000
  Sb  Sb17      1.0  0.000523473335109519  0.007210823693242228  0.9998700155710053  1.0000
  Sb  Sb18      1.0  0.0039484607749205895  0.0071490215140625046  0.9996591318070432  1.0000
  Sb  Sb19      1.0  0.0032038502104995083  0.008972758675625973  0.9999964647953961  1.0000
  Sb  Sb20      1.0  0.006560626218140646  0.00929913426239668  0.999815606237789  1.0000
  Sb  Sb21      1.0  0.009913898261230904  0.009252710804782072  0.9996006619822464  1.0000
  Sb  Sb22      1.0  0.007122586434447053  0.0022771630541542956  1.8834651325744206e-05  1.0000
  Sb  Sb23      1.0  0.0002919479949432359  0.002263660286948897  0.9998061074221012  1.0000
  Sb  Sb24      1.0  0.0035916406625361164  0.002149021719271733  0.9996159120041691  1.0000
