data_image0
_chemical_formula_structural       Sn4Pt4Sn4Pt4H
_chemical_formula_sum              "Sn8 Pt8 H1"
_cell_length_a       5.541849136352539
_cell_length_b       7.279844760894775
_cell_length_c       99.421142578125
_cell_angle_alpha    90.0
_cell_angle_beta     90.0
_cell_angle_gamma    90.0

_space_group_name_H-M_alt    "P 1"
_space_group_IT_number       1

loop_
  _space_group_symop_operation_xyz
  'x, y, z'

loop_
  _atom_site_type_symbol
  _atom_site_label
  _atom_site_symmetry_multiplicity
  _atom_site_fract_x
  _atom_site_fract_y
  _atom_site_fract_z
  _atom_site_occupancy
  Sn  Sn1       1.0  0.0025000028568954837  0.0075000003275050315  0.9995728991391937  1.0000
  Sn  Sn2       1.0  0.0025000028568954837  0.0025000001944561127  0.9993615245051195  1.0000
  Sn  Sn3       1.0  0.007500002688842808  0.0041666666496091125  0.9995728991391937  1.0000
  Sn  Sn4       1.0  0.007500002688842808  0.009166667294384645  0.9993615245051195  1.0000
  Pt  Pt1       1.0  0.005000002688842808  0.005833333360625419  0.9993615245051195  1.0000
  Pt  Pt2       1.0  0.005000002688842808  0.0008333333555081532  0.9995728991391937  1.0000
  Pt  Pt3       1.0  2.6999999918008673e-09  0.005833333360625419  0.9993615245051195  1.0000
  Pt  Pt4       1.0  2.6999999918008673e-09  0.0008333333555081532  0.9995728991391937  1.0000
  Sn  Sn5       1.0  0.002500002688842808  0.00759524902532865  0.0  1.0000
  Sn  Sn6       1.0  0.0025000035291061857  0.0025409754236293963  0.999783993499166  1.0000
  Sn  Sn7       1.0  0.007500002016632106  0.00407141692833227  0.0  1.0000
  Sn  Sn8       1.0  0.007500004033264212  0.009125686180355318  0.999783993499166  1.0000
  Pt  Pt5       1.0  0.005000024535690623  0.005833334384078644  0.9997883387968978  1.0000
  Pt  Pt6       1.0  0.005000009074844477  0.0008333333555081532  0.9999777369438095  1.0000
  Pt  Pt7       1.0  0.009999981850311045  0.005833333872352031  0.9997883387968978  1.0000
  Pt  Pt8       1.0  0.009999997311157192  0.0008333340591322452  0.9999777369438095  1.0000
  H   H1        1.0  0.00250000336105351  0.001402547591434656  6.402899324612196e-05  1.0000
