data_image0
_chemical_formula_structural       HV6Ir2V6Ir2
_chemical_formula_sum              "H1 V12 Ir4"
_cell_length_a       4.789687156677246
_cell_length_b       4.789687156677246
_cell_length_c       36.472190856933594
_cell_angle_alpha    90.0
_cell_angle_beta     90.0
_cell_angle_gamma    90.0

_space_group_name_H-M_alt    "P 1"
_space_group_IT_number       1

loop_
  _space_group_symop_operation_xyz
  'x, y, z'

loop_
  _atom_site_type_symbol
  _atom_site_label
  _atom_site_symmetry_multiplicity
  _atom_site_fract_x
  _atom_site_fract_y
  _atom_site_fract_z
  _atom_site_occupancy
  H   H1        1.0  0.0062105217102259485  0.006250011588820654  0.0003378058242232009  1.0000
  V   V1        1.0  0.0036315498396567664  0.00125002045932398  0.9999809434299055  1.0000
  V   V2        1.0  0.008789485025289949  0.0012500206537672796  0.9999809434299055  1.0000
  V   V3        1.0  0.0012105235807704897  0.0062500228665320285  0.00027669185375724586  1.0000
  V   V4        1.0  0.001210520858564296  0.006250012366593853  0.9996732470109453  1.0000
  V   V5        1.0  0.006210514321380565  0.003749999642224329  0.9993325089352896  1.0000
  V   V6        1.0  0.006210514321380565  0.008749999813334432  0.9993325089352896  1.0000
  Ir  Ir1       1.0  0.0062105217102259485  0.006250011588820654  0.0  1.0000
  Ir  Ir2       1.0  0.0012105147336003597  0.0012499999455558761  0.9993325089352896  1.0000
  V   V7        1.0  0.0037105144302688126  0.0012499999455558761  0.9986758872612872  1.0000
  V   V8        1.0  0.008710514601378916  0.0012499999455558761  0.9986758872612872  1.0000
  V   V9        1.0  0.0012105147336003597  0.006249999533336081  0.9990041980982884  1.0000
  V   V10       1.0  0.0012105147336003597  0.006249999533336081  0.998347576424286  1.0000
  V   V11       1.0  0.006210514321380565  0.003749999642224329  0.9980192655872848  1.0000
  V   V12       1.0  0.006210514321380565  0.008749999813334432  0.9980192655872848  1.0000
  Ir  Ir3       1.0  0.006210514321380565  0.006249999533336081  0.9986758872612872  1.0000
  Ir  Ir4       1.0  0.0012105147336003597  0.0012499999455558761  0.9980192655872848  1.0000
