data_image0
_chemical_formula_structural       COMo2Zn14
_chemical_formula_sum              "C1 O1 Mo2 Zn14"
_cell_length_a       5.584162712097168
_cell_length_b       5.584162712097168
_cell_length_c       101.58879089355469
_cell_angle_alpha    90.0
_cell_angle_beta     90.0
_cell_angle_gamma    90.0

_space_group_name_H-M_alt    "P 1"
_space_group_IT_number       1

loop_
  _space_group_symop_operation_xyz
  'x, y, z'

loop_
  _atom_site_type_symbol
  _atom_site_label
  _atom_site_symmetry_multiplicity
  _atom_site_fract_x
  _atom_site_fract_y
  _atom_site_fract_z
  _atom_site_occupancy
  C   C1        1.0  0.008750871548432316  0.006226730689554411  0.00013287435133603487  1.0000
  O   O1        1.0  0.008750871548432316  0.006226730689554411  0.0002509978589902283  1.0000
  Mo  Mo1       1.0  0.008750871548432316  0.006226730689554411  0.9999623780438898  1.0000
  Mo  Mo2       1.0  0.003749128251432562  0.0012267871076454989  0.9995979557547302  1.0000
  Zn  Zn1       1.0  0.008749127704396559  0.0012267871076454989  0.9995979557547302  1.0000
  Zn  Zn2       1.0  0.0012950587851025264  0.0036813057939363517  0.9997914270248627  1.0000
  Zn  Zn3       1.0  0.0012950904731636199  0.008772306687190106  0.9997914352390074  1.0000
  Zn  Zn4       1.0  0.003749128251432562  0.006226786727388765  0.9995979557547302  1.0000
  Zn  Zn5       1.0  0.006201330874016018  0.008773212632178841  0.9997915942413795  1.0000
  Zn  Zn6       1.0  0.001249128191392025  0.008726786620650033  0.9994036134918988  1.0000
  Zn  Zn7       1.0  0.008749127704396559  0.006226786727388765  0.9995979557547302  1.0000
  Zn  Zn8       1.0  0.00374783804700825  0.0062267587084715885  0.9999880437256852  1.0000
  Zn  Zn9       1.0  0.006249127811135292  0.008726786620650033  0.9994036134918988  1.0000
  Zn  Zn10      1.0  0.006249127811135292  0.0037267871676860357  0.9994036134918988  1.0000
  Zn  Zn11      1.0  0.008745782112262162  0.001226796614063827  0.9999880179098019  1.0000
  Zn  Zn12      1.0  0.001249128191392025  0.0037267871676860357  0.9994036134918988  1.0000
  Zn  Zn13      1.0  0.006201365564103952  0.0036803918435427078  0.9997915860272348  1.0000
  Zn  Zn14      1.0  0.0037460458369845094  0.001226829302800534  0.0  1.0000
