data_image0
_chemical_formula_structural       COCa12Mn12Sb24
_chemical_formula_sum              "C1 O1 Ca12 Mn12 Sb24"
_cell_length_a       9.606049958423881
_cell_length_b       10.340060234069824
_cell_length_c       104.66281127929688
_cell_angle_alpha    90.0
_cell_angle_beta     93.11110853285622
_cell_angle_gamma    90.0

_space_group_name_H-M_alt    "P 1"
_space_group_IT_number       1

loop_
  _space_group_symop_operation_xyz
  'x, y, z'

loop_
  _atom_site_type_symbol
  _atom_site_label
  _atom_site_symmetry_multiplicity
  _atom_site_fract_x
  _atom_site_fract_y
  _atom_site_fract_z
  _atom_site_occupancy
  C   C1        1.0  0.007935832884346402  0.006152171564410594  9.076182822509028e-05  1.0000
  O   O1        1.0  0.007935832884346402  0.006152171564410594  0.00020541596537293095  1.0000
  Ca  Ca1       1.0  0.0019328601562882163  0.002615128467667355  3.5719299248511493e-06  1.0000
  Ca  Ca2       1.0  0.0057158032933402715  0.002275123310858017  0.999837905673225  1.0000
  Ca  Ca3       1.0  0.00958333306405717  0.002408300582385867  0.9996528162351875  1.0000
  Ca  Ca4       1.0  0.009140749467728021  0.007304143506304313  0.9999405406506127  1.0000
  Ca  Ca5       1.0  0.0026168236820116627  0.007655158200873446  0.9997444321888784  1.0000
  Ca  Ca6       1.0  0.006527777729446158  0.007605077476824881  0.9995608204796481  1.0000
  Ca  Ca7       1.0  0.003472222006456066  0.002408300582385867  0.9994688241526821  1.0000
  Ca  Ca8       1.0  0.007361111073136267  0.002408300582385867  0.9992848323099826  1.0000
  Ca  Ca9       1.0  0.0012500000155351632  0.002408300582385867  0.9991008405122231  1.0000
  Ca  Ca10      1.0  0.0004166666718450544  0.007605077476824881  0.9993768283971428  1.0000
  Ca  Ca11      1.0  0.004305555350146174  0.007605077476824881  0.9991928365525086  1.0000
  Ca  Ca12      1.0  0.008194444416826376  0.007605077476824881  0.9990088444250629  1.0000
  Mn  Mn1       1.0  0.0008514692874669362  0.004965187141584487  0.999818540190227  1.0000
  Mn  Mn2       1.0  0.004583333390295598  0.005008964812043785  0.9996528165443384  1.0000
  Mn  Mn3       1.0  0.006534912253172355  0.005000199262239448  0.9999095173087453  1.0000
  Mn  Mn4       1.0  0.001527777764400276  0.005004413427305676  0.9995608202178559  1.0000
  Mn  Mn5       1.0  0.004224551125128606  0.00512584637526091  0.9998412374734572  1.0000
  Mn  Mn6       1.0  0.007309622881550569  0.005107537796964289  0.9997466363905421  1.0000
  Mn  Mn7       1.0  0.0023611110109956145  0.005008964812043785  0.9992848323324527  1.0000
  Mn  Mn8       1.0  0.006250000077675816  0.005008964812043785  0.999100840489753  1.0000
  Mn  Mn9       1.0  0.0084722224569758  0.005008964812043785  0.9994688244168927  1.0000
  Mn  Mn10      1.0  0.0031944443546857233  0.005004413427305676  0.999008844447533  1.0000
  Mn  Mn11      1.0  0.005416666733985707  0.005004413427305676  0.9993768283746727  1.0000
  Mn  Mn12      1.0  0.009305555800665909  0.005004413427305676  0.999192836531973  1.0000
  Sb  Sb1       1.0  0.0007606474703863746  8.130600244199498e-06  0.9998470060307619  1.0000
  Sb  Sb2       1.0  0.004583333390295598  2.150900008599606e-05  0.9996528165443384  1.0000
  Sb  Sb3       1.0  0.006757872139491747  0.00952694282571316  3.366212378002681e-05  1.0000
  Sb  Sb4       1.0  0.001527777764400276  0.009991869316666818  0.9995608202178559  1.0000
  Sb  Sb5       1.0  0.0038186068229641625  5.347629939479906e-05  0.9999830007618743  1.0000
  Sb  Sb6       1.0  0.0077594932462058406  0.009940026835999132  0.9997719690381246  1.0000
  Sb  Sb7       1.0  0.002344279049984748  0.005920678906322704  3.27610972568253e-06  1.0000
  Sb  Sb8       1.0  0.0057675155796559656  0.007248902888943059  0.9998558397264862  1.0000
  Sb  Sb9       1.0  0.00958333306405717  0.006508115574738993  0.9996528162351875  1.0000
  Sb  Sb10      1.0  0.00892421725520659  0.0038503868232445046  0.9999430413242928  1.0000
  Sb  Sb11      1.0  0.0026239092699735967  0.0033913728451490034  0.9997273280490003  1.0000
  Sb  Sb12      1.0  0.006527777729446158  0.0035052630248878953  0.9995608204796481  1.0000
  Sb  Sb13      1.0  0.0023611110109956145  2.150900008599606e-05  0.9992848323324527  1.0000
  Sb  Sb14      1.0  0.006250000077675816  2.150900008599606e-05  0.999100840489753  1.0000
  Sb  Sb15      1.0  0.0084722224569758  2.150900008599606e-05  0.9994688244168927  1.0000
  Sb  Sb16      1.0  0.0031944443546857233  0.009991869316666818  0.999008844447533  1.0000
  Sb  Sb17      1.0  0.005416666733985707  0.009991869316666818  0.9993768283746727  1.0000
  Sb  Sb18      1.0  0.009305555800665909  0.009991869316666818  0.999192836531973  1.0000
  Sb  Sb19      1.0  0.003472222006456066  0.006508115574738993  0.9994688241526821  1.0000
  Sb  Sb20      1.0  0.007361111073136267  0.006508115574738993  0.9992848323099826  1.0000
  Sb  Sb21      1.0  0.0012500000155351632  0.006508115574738993  0.9991008405122231  1.0000
  Sb  Sb22      1.0  0.0004166666718450544  0.0035052630248878953  0.9993768283971428  1.0000
  Sb  Sb23      1.0  0.004305555350146174  0.0035052630248878953  0.9991928365525086  1.0000
  Sb  Sb24      1.0  0.008194444416826376  0.0035052630248878953  0.9990088444250629  1.0000
