data_image0
_chemical_formula_structural       COSe12Ti6V3
_chemical_formula_sum              "C1 O1 Se12 Ti6 V3"
_cell_length_a       7.115476752552553
_cell_length_b       7.002292026916975
_cell_length_c       101.02973175048828
_cell_angle_alpha    87.2591694540838
_cell_angle_beta     88.13279083207681
_cell_angle_gamma    117.54241722193021

_space_group_name_H-M_alt    "P 1"
_space_group_IT_number       1

loop_
  _space_group_symop_operation_xyz
  'x, y, z'

loop_
  _atom_site_type_symbol
  _atom_site_label
  _atom_site_symmetry_multiplicity
  _atom_site_fract_x
  _atom_site_fract_y
  _atom_site_fract_z
  _atom_site_occupancy
  C   C1        1.0  0.008548077331550484  0.006275945557945258  0.00010072193140358567  1.0000
  O   O1        1.0  0.008548077331550484  0.006275945557945258  0.00021949908849167298  1.0000
  Se  Se1       1.0  0.0025684461634584614  3.359947946889738e-05  0.9991081378314473  1.0000
  Se  Se2       1.0  0.002122466984458223  0.005167881198578199  0.9992101009096894  1.0000
  Se  Se3       1.0  0.0073644295328440645  0.009966400752405838  0.9992093238683203  1.0000
  Se  Se4       1.0  0.0073264840410209855  0.00523508027605371  0.999108915149439  1.0000
  Se  Se5       1.0  0.0045684461894886395  0.002033599489971691  0.9994152726524709  1.0000
  Se  Se6       1.0  0.004122467010488401  0.007167881400491096  0.999517235435093  1.0000
  Se  Se7       1.0  0.009364429854671718  0.001966400913005225  0.9995164583430344  1.0000
  Se  Se8       1.0  0.009326483771253688  0.00723508020503466  0.9994160496764259  1.0000
  Se  Se9       1.0  0.006649051619338313  0.0038556627121234077  0.9997269727030821  1.0000
  Se  Se10      1.0  0.006358180354451134  0.008794863085069833  0.9998737556504694  1.0000
  Se  Se11      1.0  0.0010777045309869296  0.004153946036089177  0.9999837596592704  1.0000
  Se  Se12      1.0  0.001327991938463372  0.009418012856739953  0.9997430376793267  1.0000
  Ti  Ti1       1.0  0.00548823820259331  0.005824136181780306  0.9993248535871726  1.0000
  Ti  Ti2       1.0  0.0012026751932016596  0.00137734473643508  0.9993005199737174  1.0000
  Ti  Ti3       1.0  0.007488237932826012  0.007824135977606402  0.9996319881146009  1.0000
  Ti  Ti4       1.0  0.0032026752931812066  0.0033773447735599683  0.9996076547944831  1.0000
  Ti  Ti5       1.0  0.009654543286425248  0.0021740987421259425  0.9997786388099487  1.0000
  Ti  Ti6       1.0  0.004591282937829864  0.004841488386777367  0.9998869004254877  1.0000
  V   V1        1.0  0.008345456652048876  0.0036007404547523745  0.9993126865998859  1.0000
  V   V2        1.0  0.0003454566218775334  0.005600740462332507  0.99961982148742  1.0000
  V   V3        1.0  0.0028170583219292757  0.006544987458145266  0.9997672445499861  1.0000
