data_image0
_chemical_formula_structural       HSn6Ir6Sn6Ir6
_chemical_formula_sum              "H1 Sn12 Ir12"
_cell_length_a       5.6937150955200195
_cell_length_b       10.705124144162738
_cell_length_c       102.36925506591797
_cell_angle_alpha    79.10660589384909
_cell_angle_beta     90.0
_cell_angle_gamma    90.0

_space_group_name_H-M_alt    "P 1"
_space_group_IT_number       1

loop_
  _space_group_symop_operation_xyz
  'x, y, z'

loop_
  _atom_site_type_symbol
  _atom_site_label
  _atom_site_symmetry_multiplicity
  _atom_site_fract_x
  _atom_site_fract_y
  _atom_site_fract_z
  _atom_site_occupancy
  H   H1        1.0  0.005030627527409458  0.0030082887649898644  0.9999405485228405  1.0000
  Sn  Sn1       1.0  0.002530597934274331  0.007843593039332334  0.9991541428260469  1.0000
  Sn  Sn2       1.0  0.002530597934274331  0.004510259398872254  0.9994176434710962  1.0000
  Sn  Sn3       1.0  0.002530597934274331  0.0011769262899776964  0.999285893205396  1.0000
  Sn  Sn4       1.0  0.007530597744532805  0.005621370612358947  0.999198059622665  1.0000
  Sn  Sn5       1.0  0.007530597744532805  0.002288037326275882  0.999461560260711  1.0000
  Sn  Sn6       1.0  0.007530597744532805  0.008954703898442011  0.9993298098848634  1.0000
  Ir  Ir1       1.0  0.005030597757618428  0.006732481471468625  0.9993737266814815  1.0000
  Ir  Ir2       1.0  0.005030597757618428  0.0033991485397625756  0.9992419764122796  1.0000
  Ir  Ir3       1.0  0.005030597757618428  6.581519830810207e-05  0.9995054770514199  1.0000
  Ir  Ir4       1.0  3.059799847566631e-05  0.006732481471468625  0.9993737266814815  1.0000
  Ir  Ir5       1.0  3.059799847566631e-05  0.0033991485397625756  0.9992419764122796  1.0000
  Ir  Ir6       1.0  3.059799847566631e-05  6.581519830810207e-05  0.9995054770514199  1.0000
  Sn  Sn7       1.0  0.002530597934274331  0.007843593039332334  0.9995493937262914  1.0000
  Sn  Sn8       1.0  0.0025304530110059086  0.004704981063793306  0.9997920840248533  1.0000
  Sn  Sn9       1.0  0.002530996391477353  0.0011124131060470668  0.9996869518784471  1.0000
  Sn  Sn10      1.0  0.007530597744532805  0.005621370612358947  0.9995933105229095  1.0000
  Sn  Sn11      1.0  0.007530801880242728  0.0019343511688544677  0.9998420963172607  1.0000
  Sn  Sn12      1.0  0.00753057419041243  0.008970159697592232  0.999729696906857  1.0000
  Ir  Ir7       1.0  0.005091733131334593  0.006781052385201125  0.9997587086604872  1.0000
  Ir  Ir8       1.0  0.005022751618408845  0.0033648721317007875  0.9996443455672587  1.0000
  Ir  Ir9       1.0  0.004856737270892735  0.009934113374789586  0.9998977217719733  1.0000
  Ir  Ir10      1.0  0.009969401836727275  0.0067810899491647595  0.9997586986021044  1.0000
  Ir  Ir11      1.0  3.843379953237193e-05  0.0033647970037735202  0.9996443336601958  1.0000
  Ir  Ir12      1.0  0.00020460288708951344  0.009934184250192667  0.9998977034860028  1.0000
