data_image0
_chemical_formula_structural       HSb2Pd2Sb2Pd2Sb2Pd2Sb2Pd2
_chemical_formula_sum              "H1 Sb8 Pd8"
_cell_length_a       8.351772092929078
_cell_length_b       5.725686550140381
_cell_length_c       103.40708923339844
_cell_angle_alpha    90.0
_cell_angle_beta     120.00000085323855
_cell_angle_gamma    90.0

_space_group_name_H-M_alt    "P 1"
_space_group_IT_number       1

loop_
  _space_group_symop_operation_xyz
  'x, y, z'

loop_
  _atom_site_type_symbol
  _atom_site_label
  _atom_site_symmetry_multiplicity
  _atom_site_fract_x
  _atom_site_fract_y
  _atom_site_fract_z
  _atom_site_occupancy
  H   H1        1.0  0.006091073471825829  0.0012911768611179471  0.00034268075913378263  1.0000
  Sb  Sb1       1.0  0.003439590203574159  0.0037499334407858002  0.9995589462464519  1.0000
  Sb  Sb2       1.0  0.0017729237188924406  0.008749933505848571  0.9996935560518727  1.0000
  Pd  Pd1       1.0  0.0001062570008279024  0.0012499334895828779  0.9998281661360727  1.0000
  Pd  Pd2       1.0  0.0001062570008279024  0.006249933635974112  0.9998281661360727  1.0000
  Sb  Sb3       1.0  0.0033492671250500796  0.0037498127493465617  0.9999481819817818  1.0000
  Sb  Sb4       1.0  0.0017905283161354947  0.008750066233900348  0.0001002153737385731  1.0000
  Pd  Pd3       1.0  0.0098937226169652  0.0012911768611179471  0.0001976229287639231  1.0000
  Pd  Pd4       1.0  0.00989374321903481  0.00620869229765062  0.0001976231843291135  1.0000
  Sb  Sb5       1.0  0.008439589915145184  0.0037499334407858002  0.9995589460734101  1.0000
  Sb  Sb6       1.0  0.006772923687989336  0.008749933505848571  0.9996935561774345  1.0000
  Pd  Pd5       1.0  0.005106256945781747  0.0012499334895828779  0.9998281659724556  1.0000
  Pd  Pd6       1.0  0.005106256945781747  0.006249933635974112  0.9998281659724556  1.0000
  Sb  Sb7       1.0  0.008349266836621105  0.0037498127493465617  0.9999481820969438  1.0000
  Sb  Sb8       1.0  0.006790528156469455  0.008750066233900348  0.00010021520589662077  1.0000
  Pd  Pd7       1.0  0.004893722390342435  0.0012911768611179471  0.00019762308100638328  1.0000
  Pd  Pd8       1.0  0.004893742992412044  0.00620869229765062  0.0001976233365715737  1.0000
