data_image0
_chemical_formula_structural       HGa6Pd14Ga6Pd14
_chemical_formula_sum              "H1 Ga12 Pd28"
_cell_length_a       5.570364030335336
_cell_length_b       8.282212257385254
_cell_length_c       110.56094360351562
_cell_angle_alpha    90.0
_cell_angle_beta     98.41839670246073
_cell_angle_gamma    90.0

_space_group_name_H-M_alt    "P 1"
_space_group_IT_number       1

loop_
  _space_group_symop_operation_xyz
  'x, y, z'

loop_
  _atom_site_type_symbol
  _atom_site_label
  _atom_site_symmetry_multiplicity
  _atom_site_fract_x
  _atom_site_fract_y
  _atom_site_fract_z
  _atom_site_occupancy
  H   H1        1.0  0.006644789356545568  0.003749999847070002  6.316893536006966e-05  1.0000
  Ga  Ga1       1.0  0.001471920005716495  0.0012499999865061768  0.9989607243994403  1.0000
  Ga  Ga2       1.0  0.001759227345510985  0.003749999847070002  0.9998057477581126  1.0000
  Ga  Ga3       1.0  0.006184612341416154  0.0012499999865061768  0.999950026151071  1.0000
  Ga  Ga4       1.0  0.006471919681210644  0.003749999847070002  0.9995721662863737  1.0000
  Ga  Ga5       1.0  0.006759227021005134  0.0012499999865061768  0.9991943064216765  1.0000
  Ga  Ga6       1.0  0.001184612581415273  0.003749999847070002  0.9993385848026254  1.0000
  Pd  Pd1       1.0  0.001471920005716495  0.003749999847070002  0.999572166011125  1.0000
  Pd  Pd2       1.0  0.0071485008597674355  0.003749999847070002  0.9998242169091286  1.0000
  Pd  Pd3       1.0  0.0007953389961731673  0.0012499999865061768  0.9999315570013015  1.0000
  Pd  Pd4       1.0  0.004066616397284985  0.003749999847070002  2.999563650166966e-05  1.0000
  Pd  Pd5       1.0  0.003877223627669082  0.0012499999865061768  0.9997257788142864  1.0000
  Pd  Pd6       1.0  0.009204660523828593  0.003749999847070002  0.9988602370908239  1.0000
  Pd  Pd7       1.0  0.008739179190140698  0.0012499999865061768  0.9996726536113628  1.0000
  Pd  Pd8       1.0  0.006471919681210644  0.0012499999865061768  0.9989607244051333  1.0000
  Pd  Pd9       1.0  0.0021485008462463584  0.0012499999865061768  0.9992127750197018  1.0000
  Pd  Pd10      1.0  0.005795339178707708  0.003749999847070002  0.9993201156686055  1.0000
  Pd  Pd11      1.0  0.009066616410806062  0.0012499999865061768  0.9994185537634477  1.0000
  Pd  Pd12      1.0  0.00887722330316323  0.003749999847070002  0.9991143369387391  1.0000
  Pd  Pd13      1.0  0.004204660848334445  0.0012499999865061768  0.9994716789663712  1.0000
  Pd  Pd14      1.0  0.0037391791766196213  0.003749999847070002  0.9990612122610473  1.0000
  Ga  Ga7       1.0  0.001471920005716495  0.006249999820082356  0.9989607243994403  1.0000
  Ga  Ga8       1.0  0.001759227345510985  0.008749999568197653  0.9998057477581126  1.0000
  Ga  Ga9       1.0  0.006184612341416154  0.006249999820082356  0.999950026151071  1.0000
  Ga  Ga10      1.0  0.006471919681210644  0.008749999568197653  0.9995721662863737  1.0000
  Ga  Ga11      1.0  0.006759227021005134  0.006249999820082356  0.9991943064216765  1.0000
  Ga  Ga12      1.0  0.001184612581415273  0.008749999568197653  0.9993385848026254  1.0000
  Pd  Pd15      1.0  0.001471920005716495  0.008749999568197653  0.999572166011125  1.0000
  Pd  Pd16      1.0  0.0071485008597674355  0.008749999568197653  0.9998242169091286  1.0000
  Pd  Pd17      1.0  0.0007953389961731673  0.006249999820082356  0.9999315570013015  1.0000
  Pd  Pd18      1.0  0.004066616397284985  0.008749999568197653  2.999563650166966e-05  1.0000
  Pd  Pd19      1.0  0.003877223627669082  0.006249999820082356  0.9997257788142864  1.0000
  Pd  Pd20      1.0  0.009204660523828593  0.008749999568197653  0.9988602370908239  1.0000
  Pd  Pd21      1.0  0.008739179190140698  0.006249999820082356  0.9996726536113628  1.0000
  Pd  Pd22      1.0  0.006471919681210644  0.006249999820082356  0.9989607244051333  1.0000
  Pd  Pd23      1.0  0.0021485008462463584  0.006249999820082356  0.9992127750197018  1.0000
  Pd  Pd24      1.0  0.005795339178707708  0.008749999568197653  0.9993201156686055  1.0000
  Pd  Pd25      1.0  0.009066616410806062  0.006249999820082356  0.9994185537634477  1.0000
  Pd  Pd26      1.0  0.00887722330316323  0.008749999568197653  0.9991143369387391  1.0000
  Pd  Pd27      1.0  0.004204660848334445  0.006249999820082356  0.9994716789663712  1.0000
  Pd  Pd28      1.0  0.0037391791766196213  0.008749999568197653  0.9990612122610473  1.0000
