data_image0
_chemical_formula_structural       COAl10Cu10
_chemical_formula_sum              "C1 O1 Al10 Cu10"
_cell_length_a       6.4474272182039405
_cell_length_b       6.447972061584492
_cell_length_c       39.33411407470703
_cell_angle_alpha    92.87417107588952
_cell_angle_beta     92.87645389337222
_cell_angle_gamma    65.71651153475074

_space_group_name_H-M_alt    "P 1"
_space_group_IT_number       1

loop_
  _space_group_symop_operation_xyz
  'x, y, z'

loop_
  _atom_site_type_symbol
  _atom_site_label
  _atom_site_symmetry_multiplicity
  _atom_site_fract_x
  _atom_site_fract_y
  _atom_site_fract_z
  _atom_site_occupancy
  C   C1        1.0  0.0016432262772090164  0.002346525016057919  0.00041112869417265607  1.0000
  O   O1        1.0  0.0016432262772090164  0.002346525016057919  0.0007162072449080601  1.0000
  Al  Al1       1.0  0.006157522950821012  0.005900027599611249  0.9985532459813408  1.0000
  Al  Al2       1.0  0.0022177151584566552  0.005855989701096647  0.9988882709782507  1.0000
  Al  Al3       1.0  0.00884733089428042  0.004694065637640817  0.9991927530702739  1.0000
  Al  Al4       1.0  0.0033979409861294497  0.0007905708203782274  0.9986719138048007  1.0000
  Al  Al5       1.0  0.008917105294739462  0.0010094843851858606  0.9984345779413277  1.0000
  Al  Al6       1.0  0.0047879069638748035  0.004775942848217378  0.9994994630760411  1.0000
  Al  Al7       1.0  0.001062477832173101  0.004570757555907248  0.999862511784483  1.0000
  Al  Al8       1.0  0.00800909708349901  0.0030346470650881243  2.4090339424761096e-05  1.0000
  Al  Al9       1.0  0.002294736837689188  0.009690682158773589  0.9997098519747555  1.0000
  Al  Al10      1.0  0.007686090732782138  0.00972497240038875  0.9994143724234763  1.0000
  Cu  Cu1       1.0  0.0005325233121045399  0.00027502759326966013  0.9990405122154049  1.0000
  Cu  Cu2       1.0  0.008101861678899142  0.00819162113507021  0.9987891344967204  1.0000
  Cu  Cu3       1.0  0.004213185249850625  0.003608434381231753  0.9983173574770161  1.0000
  Cu  Cu4       1.0  0.0062082983645973975  0.0026925969585372485  0.9989343352626452  1.0000
  Cu  Cu5       1.0  0.00485674839660322  0.00785745806312075  0.9991466891679361  1.0000
  Cu  Cu6       1.0  0.009467476695225983  0.008798544840657473  2.6252203389301766e-06  1.0000
  Cu  Cu7       1.0  0.006804824016743883  0.007020205297842837  0.9997786482985997  1.0000
  Cu  Cu8       1.0  0.002963185241623576  0.0023584342036672527  0.9992918895589423  1.0000
  Cu  Cu9       1.0  0.005085855219057052  0.0014672830026859116  0.9999159065887172  1.0000
  Cu  Cu10      1.0  0.00378051440621127  0.0061425382181712895  8.158760601160769e-05  1.0000
