data_image0
_chemical_formula_structural       COCa12Ga12Au12
_chemical_formula_sum              "C1 O1 Ca12 Ga12 Au12"
_cell_length_a       9.13129319461607
_cell_length_b       11.890992468579029
_cell_length_c       105.00846862792969
_cell_angle_alpha    96.51230005910203
_cell_angle_beta     74.32023329157596
_cell_angle_gamma    66.55683606935767

_space_group_name_H-M_alt    "P 1"
_space_group_IT_number       1

loop_
  _space_group_symop_operation_xyz
  'x, y, z'

loop_
  _atom_site_type_symbol
  _atom_site_label
  _atom_site_symmetry_multiplicity
  _atom_site_fract_x
  _atom_site_fract_y
  _atom_site_fract_z
  _atom_site_occupancy
  C   C1        1.0  0.00046367661338068316  0.0006003159269187602  0.9999968129527491  1.0000
  O   O1        1.0  0.00046367661338068316  0.0006003159269187602  0.00011108911419445942  1.0000
  Ca  Ca1       1.0  0.008305488373873477  0.008148561859287879  0.9995754718805149  1.0000
  Ca  Ca2       1.0  0.008050301049666135  0.0016046662569170003  0.999852568667223  1.0000
  Ca  Ca3       1.0  0.008305488373873477  0.00481522866890022  0.9992976491530509  1.0000
  Ca  Ca4       1.0  0.003305488430747126  0.009854724464533306  0.9992910654784584  1.0000
  Ca  Ca5       1.0  0.003305488430747126  0.0031880574531153033  0.9995688882714447  1.0000
  Ca  Ca6       1.0  0.0031534492893766455  0.006480979698831915  0.9998364039544168  1.0000
  Ca  Ca7       1.0  0.007486722998272011  0.00673050358410235  0.9998732349992607  1.0000
  Ca  Ca8       1.0  0.007315345631327231  0.00014527600450656115  0.9993251577282871  1.0000
  Ca  Ca9       1.0  0.007339779972837752  0.003479670063040326  0.9996039558166195  1.0000
  Ca  Ca10      1.0  0.0023153454512273423  0.008518105227179159  0.9995963965059584  1.0000
  Ca  Ca11      1.0  0.0025310544058332524  0.001739536557839282  0.999867225977647  1.0000
  Ca  Ca12      1.0  0.0023153454512273423  0.005184772036791501  0.9993185740623032  1.0000
  Ga  Ga1       1.0  0.009446651508550036  0.008559165291593063  0.9998528589254362  1.0000
  Ga  Ga2       1.0  0.009515853469031737  0.0016995140617462072  0.9992994046282958  1.0000
  Ga  Ga3       1.0  0.009515853469031737  0.005032847567455209  0.9995772273598095  1.0000
  Ga  Ga4       1.0  0.00440189058171157  0.008775672882371974  0.9997871699157419  1.0000
  Ga  Ga5       1.0  0.004515853999852462  0.002163527985249963  0.9992220566931908  1.0000
  Ga  Ga6       1.0  0.004515853999852462  0.005496861490958964  0.9994998794247044  1.0000
  Ga  Ga7       1.0  0.0061049800622218955  0.007836472326129232  0.9993941667953388  1.0000
  Ga  Ga8       1.0  0.00613551505049652  0.00116202658030363  0.9996693066006906  1.0000
  Ga  Ga9       1.0  0.0061049800622218955  0.0045031385050988875  0.9991163440597752  1.0000
  Ga  Ga10      1.0  0.0011049801190955446  0.008300486407615354  0.9993168183057834  1.0000
  Ga  Ga11      1.0  0.0011049801190955446  0.0016338193961973506  0.9995946408149611  1.0000
  Ga  Ga12      1.0  0.0009643652350219377  0.004989114460965483  0.9998870994653203  1.0000
  Au  Au1       1.0  0.009376296908779155  0.007121757633960416  0.9992406508893794  1.0000
  Au  Au2       1.0  0.009376296908779155  0.00045509093786375715  0.9995184734026067  1.0000
  Au  Au3       1.0  0.009536323243250325  0.0036940918164906165  0.9997967700854277  1.0000
  Au  Au4       1.0  0.0012445369163216636  0.00954490945250662  0.999097749524889  1.0000
  Au  Au5       1.0  0.0012445369163216636  0.002878242441088618  0.9993755720340665  1.0000
  Au  Au6       1.0  0.0011946385832777033  0.006274409293156505  0.9996471882331538  1.0000
  Au  Au7       1.0  0.0063004348885288605  0.009683713764793952  0.9998656303697341  1.0000
  Au  Au8       1.0  0.006244537096421552  0.003165677827965254  0.9993276584318305  1.0000
  Au  Au9       1.0  0.0062128703225290995  0.006472409458217027  0.9996128960672372  1.0000
  Au  Au10      1.0  0.004376296965652805  0.006834322483413939  0.9992885647728902  1.0000
  Au  Au11      1.0  0.004376296965652805  0.00016765562965660963  0.9995663870002839  1.0000
  Au  Au12      1.0  0.0042717736253745165  0.0035595930243448692  0.9998266167679174  1.0000
