data_image0
_chemical_formula_structural       HAlCo2Si2AlCo2Si2AlCo2Si2AlCo2Si2AlCo2Si2AlCo2Si2AlCo2Si2AlCo2Si2
_chemical_formula_sum              "H1 Al8 Co16 Si16"
_cell_length_a       7.902618408203125
_cell_length_b       7.902618371567466
_cell_length_c       37.40837097167969
_cell_angle_alpha    90.0
_cell_angle_beta     90.0
_cell_angle_gamma    120.00000015335397

_space_group_name_H-M_alt    "P 1"
_space_group_IT_number       1

loop_
  _space_group_symop_operation_xyz
  'x, y, z'

loop_
  _atom_site_type_symbol
  _atom_site_label
  _atom_site_symmetry_multiplicity
  _atom_site_fract_x
  _atom_site_fract_y
  _atom_site_fract_z
  _atom_site_occupancy
  H   H1        1.0  0.005833329279972096  0.003333331889057004  0.00024086240603056377  1.0000
  Al  Al1       1.0  0.0008333333480117942  0.000833331271247845  0.9989865502420363  1.0000
  Co  Co1       1.0  0.004166666109763233  0.002499994970434691  0.0  1.0000
  Co  Co2       1.0  0.0025000001339327794  0.004166664725239942  0.9991890507442603  1.0000
  Si  Si1       1.0  0.0024999926882377016  0.004166668807679317  0.9998230217853071  1.0000
  Si  Si2       1.0  0.004166665412434201  0.002499996875573066  0.9994205044158752  1.0000
  Al  Al2       1.0  0.0008333333480117942  0.000833331271247845  0.9977419232587611  1.0000
  Co  Co3       1.0  0.004166666663858687  0.0024999979642235655  0.9987840497398123  1.0000
  Co  Co4       1.0  0.0025000001339327794  0.004166664725239942  0.9979444237609852  1.0000
  Si  Si3       1.0  0.0025000001339327794  0.004166664725239942  0.9985535962939434  1.0000
  Si  Si4       1.0  0.004166666663858687  0.0024999979642235655  0.9981748772068542  1.0000
  Al  Al3       1.0  0.0008333332322258128  0.005833331214093694  0.9989865502420363  1.0000
  Co  Co5       1.0  0.0041666663408537015  0.007499995253483821  0.0  1.0000
  Co  Co6       1.0  0.0025000002289419353  0.009166664736126448  0.9991890507442603  1.0000
  Si  Si5       1.0  0.0024999927425533603  0.009166669090728446  0.9998230217853071  1.0000
  Si  Si6       1.0  0.004166665419055951  0.007499996886459572  0.9994205044158752  1.0000
  Al  Al4       1.0  0.0008333332322258128  0.005833331214093694  0.9977419232587611  1.0000
  Co  Co7       1.0  0.00416666667048044  0.007499997975110071  0.9987840497398123  1.0000
  Co  Co8       1.0  0.0025000002289419353  0.009166664736126448  0.9979444237609852  1.0000
  Si  Si7       1.0  0.0025000002289419353  0.009166664736126448  0.9985535962939434  1.0000
  Si  Si8       1.0  0.00416666667048044  0.007499997975110071  0.9981748772068542  1.0000
  Al  Al5       1.0  0.005833333345654797  0.000833331271247845  0.9989865502420363  1.0000
  Co  Co9       1.0  0.009166666402030918  0.002499994970434691  0.0  1.0000
  Co  Co10      1.0  0.007500000072650845  0.004166664725239942  0.9991890507442603  1.0000
  Si  Si9       1.0  0.007499992685880704  0.004166668807679317  0.9998230217853071  1.0000
  Si  Si10      1.0  0.00916666546900214  0.002499996875573066  0.9994205044158752  1.0000
  Al  Al6       1.0  0.005833333345654797  0.000833331271247845  0.9977419232587611  1.0000
  Co  Co11      1.0  0.009166666956126371  0.0024999979642235655  0.9987840497398123  1.0000
  Co  Co12      1.0  0.007500000072650845  0.004166664725239942  0.9979444237609852  1.0000
  Si  Si11      1.0  0.007500000072650845  0.004166664725239942  0.9985535962939434  1.0000
  Si  Si12      1.0  0.009166666956126371  0.0024999979642235655  0.9981748772068542  1.0000
  Al  Al7       1.0  0.0058333332887937515  0.005833331214093694  0.9989865502420363  1.0000
  Co  Co13      1.0  0.009166666279571767  0.007499995253483821  0.0  1.0000
  Co  Co14      1.0  0.007500000049810129  0.009166664736126448  0.9991890507442603  1.0000
  Si  Si13      1.0  0.007499992799121299  0.009166669090728446  0.9998230217853071  1.0000
  Si  Si14      1.0  0.009166665210461677  0.007499996886459572  0.9994205044158752  1.0000
  Al  Al8       1.0  0.0058333332887937515  0.005833331214093694  0.9977419232587611  1.0000
  Co  Co15      1.0  0.00916666669758591  0.007499997975110071  0.9987840497398123  1.0000
  Co  Co16      1.0  0.007500000049810129  0.009166664736126448  0.9979444237609852  1.0000
  Si  Si15      1.0  0.007500000049810129  0.009166664736126448  0.9985535962939434  1.0000
  Si  Si16      1.0  0.00916666669758591  0.007499997975110071  0.9981748772068542  1.0000
