data_image0
_chemical_formula_structural       COCa8Sn4Ca8Sn4
_chemical_formula_sum              "C1 O1 Ca16 Sn8"
_cell_length_a       8.024477005004883
_cell_length_b       9.748005867004395
_cell_length_c       100.92315673828125
_cell_angle_alpha    90.0
_cell_angle_beta     90.0
_cell_angle_gamma    90.0

_space_group_name_H-M_alt    "P 1"
_space_group_IT_number       1

loop_
  _space_group_symop_operation_xyz
  'x, y, z'

loop_
  _atom_site_type_symbol
  _atom_site_label
  _atom_site_symmetry_multiplicity
  _atom_site_fract_x
  _atom_site_fract_y
  _atom_site_fract_z
  _atom_site_occupancy
  C   C1        1.0  0.0021872435347660415  0.002507401086493943  0.00010706471307509714  1.0000
  O   O1        1.0  0.0021872435347660415  0.002507401086493943  0.00022596729902783446  1.0000
  Ca  Ca1       1.0  0.003426000465473908  0.005710069406228523  0.9994608452491647  1.0000
  Ca  Ca2       1.0  0.006588279611972465  0.00430474996392417  0.9992055094655735  1.0000
  Ca  Ca3       1.0  0.008426000827581798  0.00930474996392417  0.9994608452491647  1.0000
  Ca  Ca4       1.0  0.0015882798301656803  0.0007100693584586204  0.9992055094655735  1.0000
  Ca  Ca5       1.0  0.004776777328768946  0.0018555903244012024  0.9994608452491647  1.0000
  Ca  Ca6       1.0  0.005237502516556984  0.008159228472512664  0.9992055094655735  1.0000
  Ca  Ca7       1.0  0.009776777458756394  0.0031592288546718815  0.9994608452491647  1.0000
  Ca  Ca8       1.0  0.00023750270573514424  0.006855590133321593  0.9992055094655735  1.0000
  Sn  Sn1       1.0  0.007517907590720245  0.006102026040023382  0.9994608452491647  1.0000
  Sn  Sn2       1.0  0.0024963724867261275  0.003912792947970093  0.9992055094655735  1.0000
  Sn  Sn3       1.0  0.0025179076928532394  0.008912792947970092  0.9994608452491647  1.0000
  Sn  Sn4       1.0  0.007496372384593133  0.0011020261355631866  0.9992055094655735  1.0000
  Ca  Ca9       1.0  0.0035640499201862216  0.006052977815198809  0.999999998228217  1.0000
  Ca  Ca10      1.0  0.006532489927978338  0.0043195735378282595  0.9997107457930784  1.0000
  Ca  Ca11      1.0  0.008564095777900743  0.008961838497680142  0.0  1.0000
  Ca  Ca12      1.0  0.0015324916549544262  0.0006952500360758302  0.9997107469742671  1.0000
  Ca  Ca13      1.0  0.00468725915182938  0.0018978326757137511  0.9999354433142831  1.0000
  Ca  Ca14      1.0  0.005223227573614788  0.008187634367181023  0.9997266221500279  1.0000
  Ca  Ca15      1.0  0.0096872281776776  0.003116969497274135  0.9999354444954718  1.0000
  Ca  Ca16      1.0  0.0002232224965604207  0.006827196467748208  0.9997266233312166  1.0000
  Sn  Sn5       1.0  0.007543974252116107  0.005864181225404233  0.9999701005711283  1.0000
  Sn  Sn6       1.0  0.0025352863182254346  0.003990110254463009  0.9997292361205606  1.0000
  Sn  Sn7       1.0  0.002543940232544127  0.009150523496983082  0.9999700987993453  1.0000
  Sn  Sn8       1.0  0.00753533147957863  0.001024711599724601  0.9997292355299663  1.0000
