data_image0
_chemical_formula_structural       COCa4Cu4As4Ca4Cu4As4
_chemical_formula_sum              "C1 O1 Ca8 Cu8 As8"
_cell_length_a       7.363526821136475
_cell_length_b       9.11817449131366
_cell_length_c       104.01067352294922
_cell_angle_alpha    117.79104576448468
_cell_angle_beta     90.0
_cell_angle_gamma    90.0

_space_group_name_H-M_alt    "P 1"
_space_group_IT_number       1

loop_
  _space_group_symop_operation_xyz
  'x, y, z'

loop_
  _atom_site_type_symbol
  _atom_site_label
  _atom_site_symmetry_multiplicity
  _atom_site_fract_x
  _atom_site_fract_y
  _atom_site_fract_z
  _atom_site_occupancy
  C   C1        1.0  0.0015624989881777066  0.003678888426545143  0.0001503709534855767  1.0000
  O   O1        1.0  0.0015624989881777066  0.003678888426545143  0.00026574396196866616  1.0000
  Ca  Ca1       1.0  4.895124717291792e-05  0.005005542546087772  0.9994586823765983  1.0000
  Ca  Ca2       1.0  0.005048951254287294  0.005005542546087772  0.9996630526064697  1.0000
  Ca  Ca3       1.0  4.895124717291792e-05  5.542499796881778e-06  0.9996630524555812  1.0000
  Ca  Ca4       1.0  0.005048951254287294  5.542499796881778e-06  0.9994586825122412  1.0000
  Cu  Cu1       1.0  0.003382284402119873  0.007505542398303292  0.9995608674167259  1.0000
  Cu  Cu2       1.0  0.008382284452710989  0.007505542398303292  0.999356497473386  1.0000
  Cu  Cu3       1.0  0.0017156179293858127  0.0025055424629590022  0.9995608675569037  1.0000
  Cu  Cu4       1.0  0.006715617853499141  0.0025055424629590022  0.9993564973270324  1.0000
  As  As1       1.0  0.0017156179293858127  0.007505542398303292  0.999356497473386  1.0000
  As  As2       1.0  0.006715617853499141  0.007505542398303292  0.9995608674167259  1.0000
  As  As3       1.0  0.003382284402119873  0.0025055424629590022  0.9993564973270324  1.0000
  As  As4       1.0  0.008382284452710989  0.0025055424629590022  0.9995608675569037  1.0000
  Ca  Ca5       1.0  0.009951048644530478  0.004994502121771337  0.9998557478489335  1.0000
  Ca  Ca6       1.0  0.005259207926891064  0.005013013051556803  4.353438850519464e-05  1.0000
  Ca  Ca7       1.0  0.009838531981840948  1.2883000204070046e-05  4.353436788380474e-05  1.0000
  Ca  Ca8       1.0  0.0051467605740286426  0.009994457490858347  0.9998557453140909  1.0000
  Cu  Cu5       1.0  0.0035350194832453564  0.007677750572871758  0.9999621381998731  1.0000
  Cu  Cu6       1.0  0.008382284452710989  0.007505542398303292  0.9997652376465972  1.0000
  Cu  Cu7       1.0  0.0015624989881777066  0.0026777441719564644  0.9999621323451493  1.0000
  Cu  Cu8       1.0  0.006715617853499141  0.0025055424629590022  0.9997652375002437  1.0000
  As  As5       1.0  0.0017156179293858127  0.007505542398303292  0.9997652376465972  1.0000
  As  As6       1.0  0.006783488363396058  0.007668202309977829  0.9999853838979862  1.0000
  As  As7       1.0  0.003382284402119873  0.0025055424629590022  0.9997652375002437  1.0000
  As  As8       1.0  0.008314510571843107  0.0026681707395182675  0.999985382172047  1.0000
