data_image0
_chemical_formula_structural       COAl12Ca18Ge12
_chemical_formula_sum              "C1 O1 Al12 Ca18 Ge12"
_cell_length_a       9.932815327514971
_cell_length_b       9.533177400952402
_cell_length_c       106.3487777709961
_cell_angle_alpha    91.61707729088843
_cell_angle_beta     96.31113595373296
_cell_angle_gamma    72.77466919389634

_space_group_name_H-M_alt    "P 1"
_space_group_IT_number       1

loop_
  _space_group_symop_operation_xyz
  'x, y, z'

loop_
  _atom_site_type_symbol
  _atom_site_label
  _atom_site_symmetry_multiplicity
  _atom_site_fract_x
  _atom_site_fract_y
  _atom_site_fract_z
  _atom_site_occupancy
  C   C1        1.0  9.766320026722388e-05  0.002317672311400933  6.865549406365838e-06  1.0000
  O   O1        1.0  9.766320026722388e-05  0.002317672311400933  0.00011970205369168136  1.0000
  Al  Al1       1.0  0.009885079953599512  0.006747270835179739  0.9990838570487605  1.0000
  Al  Al2       1.0  0.009885079953599512  0.0045250490299461  0.9994636220957297  1.0000
  Al  Al3       1.0  0.009885079953599512  0.0006361600889336381  0.9992737393092226  1.0000
  Al  Al4       1.0  0.002609653955293455  0.009803650723607312  0.9992996069023455  1.0000
  Al  Al5       1.0  0.002609653955293455  0.005914762564448442  0.9991097243980482  1.0000
  Al  Al6       1.0  0.002609653955293455  0.00369253997736121  0.9994894891628078  1.0000
  Al  Al7       1.0  0.009885079953599512  0.00841393718910497  0.9996535040395632  1.0000
  Al  Al8       1.0  0.00970998297715278  0.006226664631004891  4.8307263749718284e-05  1.0000
  Al  Al9       1.0  0.00990233636139206  0.0023263551835341913  0.9998430059207671  1.0000
  Al  Al10      1.0  0.002614048419706368  0.0014542253602653234  0.9998796420526848  1.0000
  Al  Al11      1.0  0.002609653955293455  0.007581428918373672  0.9996793716690829  1.0000
  Al  Al12      1.0  0.002535817041127688  0.005466730466333868  5.105325369607658e-05  1.0000
  Ca  Ca1       1.0  0.0012473671242541479  0.009386571833406607  0.9990018495494737  1.0000
  Ca  Ca2       1.0  0.0012473671242541479  0.007164350028172967  0.9993816145964429  1.0000
  Ca  Ca3       1.0  0.0012473671242541479  0.003275461087160505  0.9991917318099358  1.0000
  Ca  Ca4       1.0  0.004960825498023294  0.00019634884216360271  0.9991320465835909  1.0000
  Ca  Ca5       1.0  0.004960825498023294  0.00797412633326173  0.9995118115951523  1.0000
  Ca  Ca6       1.0  0.004960825498023294  0.004085237783176064  0.9993219290898661  1.0000
  Ca  Ca7       1.0  0.0075339088057712195  0.006354573299627326  0.9992514171264403  1.0000
  Ca  Ca8       1.0  0.0075339088057712195  0.002465684358614864  0.9990615346201652  1.0000
  Ca  Ca9       1.0  0.0075339088057712195  0.00024346235791782597  0.99944129966664  1.0000
  Ca  Ca10      1.0  0.0012473671242541479  0.0010532387932683702  0.9995714968556689  1.0000
  Ca  Ca11      1.0  0.0011080568170571386  0.008832743295760326  0.999954878421551  1.0000
  Ca  Ca12      1.0  0.0012473671242541479  0.004942127441085735  0.9997613793612025  1.0000
  Ca  Ca13      1.0  0.004960825498023294  0.0018630155870156286  0.9997016938556145  1.0000
  Ca  Ca14      1.0  0.0052230713223280194  0.009665210703354762  7.087296828267524e-05  1.0000
  Ca  Ca15      1.0  0.004975794241155166  0.005721290329953213  0.9998935352026014  1.0000
  Ca  Ca16      1.0  0.0075339088057712195  0.008021239653552557  0.9998210646777069  1.0000
  Ca  Ca17      1.0  0.0075339088057712195  0.00413235110346689  0.9996311821724206  1.0000
  Ca  Ca18      1.0  0.0075630193681959414  0.001964269004855943  1.2962719686884339e-05  1.0000
  Ge  Ge1       1.0  0.008325488166550847  0.009168257605531024  0.9991639913482114  1.0000
  Ge  Ge2       1.0  0.008325488166550847  0.006946035018443792  0.999543756112971  1.0000
  Ge  Ge3       1.0  0.008325488166550847  0.0030571464683581268  0.9993538736076847  1.0000
  Ge  Ge4       1.0  0.00416924574234212  0.007382664735109619  0.9992194726048724  1.0000
  Ge  Ge5       1.0  0.00416924574234212  0.003493775794097157  0.9990295900985973  1.0000
  Ge  Ge6       1.0  0.00416924574234212  0.0012715537934001187  0.999409355145072  1.0000
  Ge  Ge7       1.0  0.008325488166550847  0.0008349242721976908  0.9997336383734331  1.0000
  Ge  Ge8       1.0  0.008448544227355727  0.008850543240375798  9.060524683351031e-05  1.0000
  Ge  Ge9       1.0  0.008311631071273248  0.004713590070674288  0.9999187053811702  1.0000
  Ge  Ge10      1.0  0.00416924574234212  0.00904933108903485  0.9997891201561391  1.0000
  Ge  Ge11      1.0  0.00416924574234212  0.005160442538949183  0.9995992376508528  1.0000
  Ge  Ge12      1.0  0.004157778986127368  0.0029859191297464016  0.9999822117602633  1.0000
