data_image0
_chemical_formula_structural       COMo8As12Mo8As12
_chemical_formula_sum              "C1 O1 Mo16 As24"
_cell_length_a       6.5464768409729
_cell_length_b       9.74710826463604
_cell_length_c       104.01406860351562
_cell_angle_alpha    79.44026906529551
_cell_angle_beta     90.0
_cell_angle_gamma    90.0

_space_group_name_H-M_alt    "P 1"
_space_group_IT_number       1

loop_
  _space_group_symop_operation_xyz
  'x, y, z'

loop_
  _atom_site_type_symbol
  _atom_site_label
  _atom_site_symmetry_multiplicity
  _atom_site_fract_x
  _atom_site_fract_y
  _atom_site_fract_z
  _atom_site_occupancy
  C   C1        1.0  0.0024999998634273528  0.006965086256102518  1.9527658891628213e-05  1.0000
  O   O1        1.0  0.0024999998634273528  0.006965086256102518  0.0001348963284875861  1.0000
  Mo  Mo1       1.0  0.0024999998634273528  0.0037635826339797035  0.9988895533235442  1.0000
  Mo  Mo2       1.0  0.0024999998634273528  0.006236417552634031  0.999430284257251  1.0000
  Mo  Mo3       1.0  0.0024999998634273528  0.007296348183208307  0.9998501378896109  1.0000
  Mo  Mo4       1.0  0.0024999998634273528  0.0028428399952321434  0.9995420096885208  1.0000
  Mo  Mo5       1.0  0.0  0.008763583116065184  0.999434576775506  1.0000
  Mo  Mo6       1.0  0.0  0.0012364173621325102  0.9988852608002818  1.0000
  Mo  Mo7       1.0  0.0  0.0021571600980747237  0.9993228517208657  1.0000
  Mo  Mo8       1.0  0.0  0.007842840282928316  0.9989969858565912  1.0000
  As  As1       1.0  0.0024999998634273528  0.005802429819053352  0.9990211906462819  1.0000
  As  As2       1.0  0.0024999998634273528  0.004197570756338995  0.9992986469278368  1.0000
  As  As3       1.0  0.002500000147953701  0.0022515079198371095  0.9997891007392068  1.0000
  As  As4       1.0  0.0024999998634273528  0.007699609576698344  0.999610396237638  1.0000
  As  As5       1.0  0.009999999453709411  0.004770641705910291  0.9995985328892473  1.0000
  As  As6       1.0  9.999999775598946e-11  0.00530029386002497  0.9998391438570524  1.0000
  As  As7       1.0  0.0  0.0008024295313571785  0.9995662144782115  1.0000
  As  As8       1.0  0.009999999453709411  0.009280458061076337  0.999840624369361  1.0000
  As  As9       1.0  0.0  0.007290171268611112  0.999252998531457  1.0000
  As  As10      1.0  0.0  0.002709828918002622  0.9990668393358603  1.0000
  As  As11      1.0  0.0024999998634273528  0.009758253757504857  0.9990458616446701  1.0000
  As  As12      1.0  0.0024999998634273528  0.00024174640481021284  0.9992739759365423  1.0000
  Mo  Mo9       1.0  0.007500000159334755  0.0037635826339797035  0.9988895533235442  1.0000
  Mo  Mo10      1.0  0.007500000159334755  0.006236417552634031  0.999430284257251  1.0000
  Mo  Mo11      1.0  0.007500000159334755  0.007296348183208307  0.9998501378896109  1.0000
  Mo  Mo12      1.0  0.007500000159334755  0.0028428399952321434  0.9995420096885208  1.0000
  Mo  Mo13      1.0  0.0049999997268547055  0.008763583116065184  0.999434576775506  1.0000
  Mo  Mo14      1.0  0.0049999997268547055  0.0012364173621325102  0.9988852608002818  1.0000
  Mo  Mo15      1.0  0.0049999997268547055  0.0021571600980747237  0.9993228517208657  1.0000
  Mo  Mo16      1.0  0.0049999997268547055  0.007842840282928316  0.9989969858565912  1.0000
  As  As13      1.0  0.007500000159334755  0.005802429819053352  0.9990211906462819  1.0000
  As  As14      1.0  0.007500000159334755  0.004197570756338995  0.9992986469278368  1.0000
  As  As15      1.0  0.007500000159334755  0.0022515079198371095  0.9997891007392068  1.0000
  As  As16      1.0  0.007500000159334755  0.007699609576698344  0.999610396237638  1.0000
  As  As17      1.0  0.0049999997268547055  0.004770641705910291  0.9995985328892473  1.0000
  As  As18      1.0  0.005000000295907402  0.00530029386002497  0.9998391438570524  1.0000
  As  As19      1.0  0.0049999997268547055  0.0008024295313571785  0.9995662144782115  1.0000
  As  As20      1.0  0.0049999997268547055  0.009280458061076337  0.999840624369361  1.0000
  As  As21      1.0  0.0049999997268547055  0.007290171268611112  0.999252998531457  1.0000
  As  As22      1.0  0.0049999997268547055  0.002709828918002622  0.9990668393358603  1.0000
  As  As23      1.0  0.007500000159334755  0.009758253757504857  0.9990458616446701  1.0000
  As  As24      1.0  0.007500000159334755  0.00024174640481021284  0.9992739759365423  1.0000
