data_image0
_chemical_formula_structural       HCu16Si2Se12
_chemical_formula_sum              "H1 Cu16 Si2 Se12"
_cell_length_a       7.3076558113098145
_cell_length_b       10.367966651916504
_cell_length_c       99.65667724609375
_cell_angle_alpha    90.0
_cell_angle_beta     90.0
_cell_angle_gamma    90.0

_space_group_name_H-M_alt    "P 1"
_space_group_IT_number       1

loop_
  _space_group_symop_operation_xyz
  'x, y, z'

loop_
  _atom_site_type_symbol
  _atom_site_label
  _atom_site_symmetry_multiplicity
  _atom_site_fract_x
  _atom_site_fract_y
  _atom_site_fract_z
  _atom_site_occupancy
  H   H1        1.0  0.007151652944500471  0.007357651658205631  5.932851567882898e-05  1.0000
  Cu  Cu1       1.0  0.008808343811673077  0.003770184483982626  0.9997674527931742  1.0000
  Cu  Cu2       1.0  0.002752156732689451  0.0003015579512722528  0.999595630366152  1.0000
  Cu  Cu3       1.0  0.007405672308113433  0.005331123507591016  0.9999574248595183  1.0000
  Cu  Cu4       1.0  0.0041368569931743435  0.004606854391777255  0.999595630366152  1.0000
  Cu  Cu5       1.0  0.005680878519882039  0.009412484273245494  0.9999006514264442  1.0000
  Cu  Cu6       1.0  0.0005325999486183437  0.00885364725144898  0.999847763848165  1.0000
  Cu  Cu7       1.0  0.004894566158399219  0.0024673446282773804  0.9994559692638874  1.0000
  Cu  Cu8       1.0  0.00848790583719107  0.0033936637845474646  0.9994515122237257  1.0000
  Cu  Cu9       1.0  0.0016589308365956479  0.008393663683941307  0.999367762692636  1.0000
  Cu  Cu10      1.0  0.0011929608660111262  0.0018556877570286105  0.9998343610283873  1.0000
  Cu  Cu11      1.0  0.00927901980814035  0.006459908423331578  0.9997636853621519  1.0000
  Cu  Cu12      1.0  0.00901787934009624  0.006514096336868875  0.999435959234949  1.0000
  Cu  Cu13      1.0  0.0052522705153875  0.007467344707325075  0.9993633056524743  1.0000
  Cu  Cu14      1.0  0.004645670584652207  0.0019969542520692214  0.9998996561882761  1.0000
  Cu  Cu15      1.0  0.005489558418728812  0.007087398368234817  0.999804275409196  1.0000
  Cu  Cu16      1.0  0.0011289579709143694  0.0015140960781673278  0.9993833159804627  1.0000
  Si  Si1       1.0  0.0027670858689066717  0.004039277569375476  0.9999265156568189  1.0000
  Si  Si2       1.0  0.0075557008108832055  0.009872794810764302  0.999595630366152  1.0000
  Se  Se1       1.0  0.007588222169404576  0.0010774803567052819  0.9994013442055129  1.0000
  Se  Se2       1.0  0.00741337048250063  0.0050934274480364024  0.999595630366152  1.0000
  Se  Se3       1.0  0.0027175526716014375  0.00012720514522050386  0.9999665428918941  1.0000
  Se  Se4       1.0  0.002079220902746217  0.002634089632647022  0.999595630366152  1.0000
  Se  Se5       1.0  0.00793412972793619  0.007677550493712932  0.9999549917892852  1.0000
  Se  Se6       1.0  0.0050358565373910345  0.008562724426466719  0.999595630366152  1.0000
  Se  Se7       1.0  0.005241480530679242  0.003806822731307008  5.8680773529726994e-05  1.0000
  Se  Se8       1.0  0.00012030175334651637  0.008560089263761611  0.999595630366152  1.0000
  Se  Se9       1.0  0.009879698654476776  0.003616622119984904  0.0  1.0000
  Se  Se10      1.0  0.007657715258104836  0.0012230336621418501  0.99978549985837  1.0000
  Se  Se11      1.0  0.002705980940623213  0.005801152959209964  0.999787324062945  1.0000
  Se  Se12      1.0  0.002558614504382143  0.006077479986618346  0.9994179307108488  1.0000
