data_image0
_chemical_formula_structural       HPd6Pb2Pd6Pb2Pd6Pb2Pd6Pb2
_chemical_formula_sum              "H1 Pd24 Pb8"
_cell_length_a       8.290389060974121
_cell_length_b       5.862190246582031
_cell_length_c       105.17314147949219
_cell_angle_alpha    90.0
_cell_angle_beta     90.0
_cell_angle_gamma    90.0

_space_group_name_H-M_alt    "P 1"
_space_group_IT_number       1

loop_
  _space_group_symop_operation_xyz
  'x, y, z'

loop_
  _atom_site_type_symbol
  _atom_site_label
  _atom_site_symmetry_multiplicity
  _atom_site_fract_x
  _atom_site_fract_y
  _atom_site_fract_z
  _atom_site_occupancy
  H   H1        1.0  0.0012499999056363993  0.00624999987290449  0.00014262182800549048  1.0000
  Pd  Pd1       1.0  0.003749999829246818  0.008749999694970775  0.9990245764831391  1.0000
  Pd  Pd2       1.0  0.003749999829246818  0.0037499997330994288  0.9993032687546055  1.0000
  Pd  Pd3       1.0  0.003749999829246818  0.0037499997330994288  0.9990245764831391  1.0000
  Pd  Pd4       1.0  0.003749999829246818  0.008749999694970775  0.9993032687546055  1.0000
  Pd  Pd5       1.0  0.0012499999056363993  0.00624999987290449  0.9994426148903386  1.0000
  Pd  Pd6       1.0  0.0012499999056363993  0.0012499999904678368  0.9991639226188723  1.0000
  Pb  Pb1       1.0  0.0012499999056363993  0.00624999987290449  0.9991639226188723  1.0000
  Pb  Pb2       1.0  0.0012499999056363993  0.0012499999904678368  0.9994426148903386  1.0000
  Pd  Pd7       1.0  0.003749999829246818  0.008749999694970775  0.9995819610260718  1.0000
  Pd  Pd8       1.0  0.003749999829246818  0.0037499997330994288  0.9998606538642668  1.0000
  Pd  Pd9       1.0  0.003749999829246818  0.0037499997330994288  0.9995819610260718  1.0000
  Pd  Pd10      1.0  0.003749999829246818  0.008749999694970775  0.9998606538642668  1.0000
  Pd  Pd11      1.0  0.0012499999056363993  0.00624999987290449  0.0  1.0000
  Pd  Pd12      1.0  0.0012499999056363993  0.0012499999904678368  0.999721307161805  1.0000
  Pb  Pb3       1.0  0.0012499999056363993  0.00624999987290449  0.999721307161805  1.0000
  Pb  Pb4       1.0  0.0012499999056363993  0.0012499999904678368  0.0  1.0000
  Pd  Pd13      1.0  0.008749999676467656  0.008749999694970775  0.9990245764831391  1.0000
  Pd  Pd14      1.0  0.008749999676467656  0.0037499997330994288  0.9993032687546055  1.0000
  Pd  Pd15      1.0  0.008749999676467656  0.0037499997330994288  0.9990245764831391  1.0000
  Pd  Pd16      1.0  0.008749999676467656  0.008749999694970775  0.9993032687546055  1.0000
  Pd  Pd17      1.0  0.0062499996405196165  0.00624999987290449  0.9994426148903386  1.0000
  Pd  Pd18      1.0  0.0062499996405196165  0.0012499999904678368  0.9991639226188723  1.0000
  Pb  Pb5       1.0  0.0062499996405196165  0.00624999987290449  0.9991639226188723  1.0000
  Pb  Pb6       1.0  0.0062499996405196165  0.0012499999904678368  0.9994426148903386  1.0000
  Pd  Pd19      1.0  0.008749999676467656  0.008749999694970775  0.9995819610260718  1.0000
  Pd  Pd20      1.0  0.008749999676467656  0.0037499997330994288  0.9998606538642668  1.0000
  Pd  Pd21      1.0  0.008749999676467656  0.0037499997330994288  0.9995819610260718  1.0000
  Pd  Pd22      1.0  0.008749999676467656  0.008749999694970775  0.9998606538642668  1.0000
  Pd  Pd23      1.0  0.0062499996405196165  0.00624999987290449  0.0  1.0000
  Pd  Pd24      1.0  0.0062499996405196165  0.0012499999904678368  0.999721307161805  1.0000
  Pb  Pb7       1.0  0.0062499996405196165  0.00624999987290449  0.999721307161805  1.0000
  Pb  Pb8       1.0  0.0062499996405196165  0.0012499999904678368  0.0  1.0000
