data_image0
_chemical_formula_structural       HMn6Au24
_chemical_formula_sum              "H1 Mn6 Au24"
_cell_length_a       7.6583026081061325
_cell_length_b       9.255670547485352
_cell_length_c       110.29557037353516
_cell_angle_alpha    90.0
_cell_angle_beta     69.50022392441066
_cell_angle_gamma    52.82223573859658

_space_group_name_H-M_alt    "P 1"
_space_group_IT_number       1

loop_
  _space_group_symop_operation_xyz
  'x, y, z'

loop_
  _atom_site_type_symbol
  _atom_site_label
  _atom_site_symmetry_multiplicity
  _atom_site_fract_x
  _atom_site_fract_y
  _atom_site_fract_z
  _atom_site_occupancy
  H   H1        1.0  0.006392003931594664  0.007357404679393727  0.9998445709326085  1.0000
  Mn  Mn1       1.0  0.006822158036176708  0.0016593511482830437  0.9996174766641136  1.0000
  Mn  Mn2       1.0  0.00015549135336737703  0.0049926844896877095  0.9990085741892619  1.0000
  Mn  Mn3       1.0  0.0034888248115939606  0.008326017470783527  0.9993130254238471  1.0000
  Mn  Mn4       1.0  0.006822158036176708  0.0016593511482830437  0.9991607997428315  1.0000
  Mn  Mn5       1.0  0.00015549135336737703  0.0049926844896877095  0.9994652511105441  1.0000
  Mn  Mn6       1.0  0.0036822880248814378  0.008216271838209143  0.9997477914591836  1.0000
  Au  Au1       1.0  0.007466931421054339  0.008316967673682283  0.9992196901058192  1.0000
  Au  Au2       1.0  0.0008002647170046591  0.001650301001557881  0.9995241414740483  1.0000
  Au  Au3       1.0  0.004220755333607211  0.005037097316901131  0.9998325994489811  1.0000
  Au  Au4       1.0  0.0021688226103189863  0.004953178653016855  0.999192462335494  1.0000
  Au  Au5       1.0  0.005502156004824524  0.008286512068460546  0.9994969135716286  1.0000
  Au  Au6       1.0  0.008994523026892453  0.0017134632075920457  0.9998107031366165  1.0000
  Au  Au7       1.0  0.004808826842946146  0.001698856550606026  0.9994335885163321  1.0000
  Au  Au8       1.0  0.008086836945505778  0.005087333045699862  0.9997454835111343  1.0000
  Au  Au9       1.0  0.0014754936183633976  0.00836552287310651  0.9991291367356573  1.0000
  Au  Au10      1.0  0.006177384651299077  0.00500173484827672  0.9991019088394354  1.0000
  Au  Au11      1.0  0.009510717875881826  0.008335067946194456  0.9994063606201102  1.0000
  Au  Au12      1.0  0.002897045247138315  0.0016052155021524862  0.9997266354049934  1.0000
  Au  Au13      1.0  0.004133598196471591  0.004983634575764547  0.9993719157868349  1.0000
  Au  Au14      1.0  0.0074751753951191515  0.00823847407436979  0.9996846639457597  1.0000
  Au  Au15      1.0  0.0008002647170046591  0.001650301001557881  0.9990674645527662  1.0000
  Au  Au16      1.0  0.008835488889561692  0.0016198455133955019  0.9993446878988766  1.0000
  Au  Au17      1.0  0.002163443024720052  0.004881203822746433  0.9996583586549661  1.0000
  Au  Au18      1.0  0.005502156004824524  0.008286512068460546  0.9990402366503465  1.0000
  Au  Au19      1.0  0.005227698414138063  0.0016474666796591534  0.9998720728542227  1.0000
  Au  Au20      1.0  0.008142160407374472  0.005032189478600971  0.9992813628270527  1.0000
  Au  Au21      1.0  0.0014754936183633976  0.00836552287310651  0.9995858141973478  1.0000
  Au  Au22      1.0  0.00284405142671633  0.0016684009453842878  0.999254134520451  1.0000
  Au  Au23      1.0  0.006177384651299077  0.00500173484827672  0.9995585863011258  1.0000
  Au  Au24      1.0  0.009844508766428188  0.00839478414784644  0.9998642419875087  1.0000
