data_image0
_chemical_formula_structural       COGa4Ni8Ga4Ni8
_chemical_formula_sum              "C1 O1 Ga8 Ni16"
_cell_length_a       6.515781050334827
_cell_length_b       7.078702926635742
_cell_length_c       102.69512939453125
_cell_angle_alpha    90.0
_cell_angle_beta     71.72278722243274
_cell_angle_gamma    57.098474321181904

_space_group_name_H-M_alt    "P 1"
_space_group_IT_number       1

loop_
  _space_group_symop_operation_xyz
  'x, y, z'

loop_
  _atom_site_type_symbol
  _atom_site_label
  _atom_site_symmetry_multiplicity
  _atom_site_fract_x
  _atom_site_fract_y
  _atom_site_fract_z
  _atom_site_occupancy
  C   C1        1.0  0.004975116536873522  0.0035541083771792113  0.9999911293680867  1.0000
  O   O1        1.0  0.004975116536873522  0.0035541083771792113  0.00010797974633538429  1.0000
  Ga  Ga1       1.0  0.0037499999559546787  0.004166666667638633  0.9997264002664024  1.0000
  Ga  Ga2       1.0  0.0037499999559546787  0.009166667067601825  0.9999253818471526  1.0000
  Ga  Ga3       1.0  0.00875000026427193  0.008333333538008478  0.9996269093886357  1.0000
  Ga  Ga4       1.0  0.00875000026427193  0.0033333336643126448  0.999825890969386  1.0000
  Ni  Ni1       1.0  0.0012499999853182262  0.003750000028391581  0.9995771641208836  1.0000
  Ni  Ni2       1.0  0.0012499999853182262  0.008750000428354774  0.9997761457016339  1.0000
  Ni  Ni3       1.0  0.0037499999559546787  0.0008333334185080772  0.9997264002664024  1.0000
  Ni  Ni4       1.0  0.0037499999559546787  0.0058333338184712695  0.9999253818471526  1.0000
  Ni  Ni5       1.0  0.00875000026427193  0.0016666665134800075  0.9996269093886357  1.0000
  Ni  Ni6       1.0  0.00875000026427193  0.0066666669134431995  0.999825890969386  1.0000
  Ni  Ni7       1.0  0.006250000293635477  0.0012499998742329555  0.9998756364046176  1.0000
  Ni  Ni8       1.0  0.006250000293635477  0.006250000274196149  0.9996766548238673  1.0000
  Ga  Ga5       1.0  0.0037499999559546787  0.004166666667638633  0.9993284368146998  1.0000
  Ga  Ga6       1.0  0.0037499999559546787  0.009166667067601825  0.999527418685652  1.0000
  Ga  Ga7       1.0  0.00875000026427193  0.008333333538008478  0.9992289459369331  1.0000
  Ga  Ga8       1.0  0.00875000026427193  0.0033333336643126448  0.9994279278078854  1.0000
  Ni  Ni9       1.0  0.0012499999853182262  0.003750000028391581  0.9991792006691811  1.0000
  Ni  Ni10      1.0  0.0012499999853182262  0.008750000428354774  0.9993781822499314  1.0000
  Ni  Ni11      1.0  0.0037499999559546787  0.0008333334185080772  0.9993284368146998  1.0000
  Ni  Ni12      1.0  0.0037499999559546787  0.0058333338184712695  0.999527418685652  1.0000
  Ni  Ni13      1.0  0.00875000026427193  0.0016666665134800075  0.9992289459369331  1.0000
  Ni  Ni14      1.0  0.00875000026427193  0.0066666669134431995  0.9994279278078854  1.0000
  Ni  Ni15      1.0  0.006250000293635477  0.0012499998742329555  0.999477673243117  1.0000
  Ni  Ni16      1.0  0.006250000293635477  0.006250000274196149  0.9992786913721647  1.0000
