data_image0
_chemical_formula_structural       CONa16Si16Se40
_chemical_formula_sum              "C1 O1 Na16 Si16 Se40"
_cell_length_a       13.55081558227539
_cell_length_b       11.206494331359863
_cell_length_c       111.10419464111328
_cell_angle_alpha    90.0
_cell_angle_beta     90.0
_cell_angle_gamma    90.0

_space_group_name_H-M_alt    "P 1"
_space_group_IT_number       1

loop_
  _space_group_symop_operation_xyz
  'x, y, z'

loop_
  _atom_site_type_symbol
  _atom_site_label
  _atom_site_symmetry_multiplicity
  _atom_site_fract_x
  _atom_site_fract_y
  _atom_site_fract_z
  _atom_site_occupancy
  C   C1        1.0  0.003419582624571928  0.006639786730308527  9.247276628723248e-05  1.0000
  O   O1        1.0  0.003419582624571928  0.006639786730308527  0.00020047917192126237  1.0000
  Na  Na1       1.0  0.002390980264088546  0.0028968498962544105  0.9995953979166153  1.0000
  Na  Na2       1.0  0.008968133711871159  0.007896849537238165  0.9989852080762401  1.0000
  Na  Na3       1.0  0.008968133711871159  0.0028968498962544105  0.9995953979166153  1.0000
  Na  Na4       1.0  0.002390980264088546  0.007896849537238165  0.9989852080762401  1.0000
  Na  Na5       1.0  0.004197192231576191  0.005396849550535062  0.9992903028623089  1.0000
  Na  Na6       1.0  0.00716192201929614  0.00039684978489288995  0.9992903028623089  1.0000
  Na  Na7       1.0  0.00716192201929614  0.005396849550535062  0.9992903028623089  1.0000
  Na  Na8       1.0  0.004197192231576191  0.00039684978489288995  0.9992903028623089  1.0000
  Na  Na9       1.0  0.007390980319071072  0.0028968498962544105  0.9989787966611535  1.0000
  Na  Na10      1.0  0.003968133656888633  0.007896849537238165  0.999601809331702  1.0000
  Na  Na11      1.0  0.003968133656888633  0.0028968498962544105  0.9989787966611535  1.0000
  Na  Na12      1.0  0.007390980319071072  0.007896849537238165  0.999601809331702  1.0000
  Na  Na13      1.0  0.008952585753385516  0.005382692343246167  0.9998731574137026  1.0000
  Na  Na14      1.0  0.0024066128956630487  0.00041098899981669427  0.9998731563407522  1.0000
  Na  Na15      1.0  0.0024066126207504227  0.005382718604619695  0.9998731563407522  1.0000
  Na  Na16      1.0  0.008952585753385516  0.000411014388581292  0.9998731574137026  1.0000
  Si  Si1       1.0  0.009320443039511411  0.0028968498962544105  0.99922567959648  1.0000
  Si  Si2       1.0  0.0020386707989919813  0.007896849537238165  0.999354926664613  1.0000
  Si  Si3       1.0  0.0020386707989919813  0.0028968498962544105  0.99922567959648  1.0000
  Si  Si4       1.0  0.009320443039511411  0.007896849537238165  0.999354926664613  1.0000
  Si  Si5       1.0  0.0006795569329973271  0.0012393348838970182  0.9989866149824459  1.0000
  Si  Si6       1.0  0.0006795569329973271  0.006239334691091997  0.9995939907421719  1.0000
  Si  Si7       1.0  0.0006795569329973271  0.004554364742400578  0.9989866149824459  1.0000
  Si  Si8       1.0  0.0006795569329973271  0.009554364383384332  0.9995939907421719  1.0000
  Si  Si9       1.0  0.004326671679900008  0.0028968502286768603  0.9998475922246358  1.0000
  Si  Si10      1.0  0.006926547327022336  0.00789685485599736  0.0  1.0000
  Si  Si11      1.0  0.007032388138272342  0.0028968502286768603  0.9998475959799622  1.0000
  Si  Si12      1.0  0.004432552628393434  0.00789685485599736  0.0  1.0000
  Si  Si13      1.0  0.005679556850523539  0.0012393348838970182  0.9996032165061453  1.0000
  Si  Si14      1.0  0.005679556850523539  0.006239334691091997  0.9989773894867101  1.0000
  Si  Si15      1.0  0.005679556850523539  0.004554364742400578  0.9996032165061453  1.0000
  Si  Si16      1.0  0.005679556850523539  0.009554364383384332  0.9989773894867101  1.0000
  Se  Se1       1.0  0.007960142925534834  0.007896849537238165  0.9992396966204432  1.0000
  Se  Se2       1.0  0.0033989710504248698  0.0028968498962544105  0.9993409096406498  1.0000
  Se  Se3       1.0  0.0033989710504248698  0.007896849537238165  0.9992396966204432  1.0000
  Se  Se4       1.0  0.007960142925534834  0.0028968498962544105  0.9993409096406498  1.0000
  Se  Se5       1.0  0.0006795569329973271  0.009592785105278667  0.9988701805514574  1.0000
  Se  Se6       1.0  0.000679572121919923  0.004637705709926276  0.9997156112788957  1.0000
  Se  Se7       1.0  0.0006795569329973271  0.006200913969197661  0.9988701805514574  1.0000
  Se  Se8       1.0  0.0006795703349878528  0.0011559945812162188  0.9997156112788957  1.0000
  Se  Se9       1.0  0.0006795569329973271  0.0028968498962544105  0.9988605918620129  1.0000
  Se  Se10      1.0  0.0006795671047644953  0.007896848207548365  0.9997187748731361  1.0000
  Se  Se11      1.0  0.0021133260717545706  0.009603150037261098  0.9994763926964799  1.0000
  Se  Se12      1.0  0.00924578776674882  0.004603150063854895  0.9991042130281379  1.0000
  Se  Se13      1.0  0.00924578776674882  0.00619054903721523  0.9994763926964799  1.0000
  Se  Se14      1.0  0.0021133260717545706  0.001190549396231476  0.9991042130281379  1.0000
  Se  Se15      1.0  0.00924578776674882  0.001190549396231476  0.9991042130281379  1.0000
  Se  Se16      1.0  0.0021133260717545706  0.00619054903721523  0.9994763926964799  1.0000
  Se  Se17      1.0  0.0021133260717545706  0.004603150063854895  0.9991042130281379  1.0000
  Se  Se18      1.0  0.00924578776674882  0.009603150037261098  0.9994763926964799  1.0000
  Se  Se19      1.0  0.0006795569329973271  0.0028968498962544105  0.9993516670413123  1.0000
  Se  Se20      1.0  0.0006795569329973271  0.007896849537238165  0.9992289386833055  1.0000
  Se  Se21      1.0  0.0030882661748912314  0.007896850866927964  0.9998772845173979  1.0000
  Se  Se22      1.0  0.008433309341891723  0.002896851890789109  0.9999517086486119  1.0000
  Se  Se23      1.0  0.008270834880175043  0.007896851531772863  0.9998772839809227  1.0000
  Se  Se24      1.0  0.002925773568941225  0.0028968512259442093  0.9999517097215623  1.0000
  Se  Se25      1.0  0.005679556850523539  0.009592785105278667  0.9994867820751568  1.0000
  Se  Se26      1.0  0.005679556850523539  0.0045927854642949135  0.999093823649461  1.0000
  Se  Se27      1.0  0.005679556850523539  0.006200913969197661  0.9994867820751568  1.0000
  Se  Se28      1.0  0.005679556850523539  0.0012009140788970696  0.999093823649461  1.0000
  Se  Se29      1.0  0.005679556850523539  0.0028968498962544105  0.9994771931174747  1.0000
  Se  Se30      1.0  0.005679556850523539  0.007896849537238165  0.9991034126071431  1.0000
  Se  Se31      1.0  0.007113326264193409  0.009603150037261098  0.998859791441018  1.0000
  Se  Se32      1.0  0.004264915857382544  0.004576889022749056  0.9997226085248981  1.0000
  Se  Se33      1.0  0.004245787986678922  0.00619054903721523  0.998859791441018  1.0000
  Se  Se34      1.0  0.007094024098884796  0.0012167973897561633  0.9997226176449765  1.0000
  Se  Se35      1.0  0.004264915582469917  0.0012168115177102767  0.9997226085248981  1.0000
  Se  Se36      1.0  0.007113326264193409  0.00619054903721523  0.998859791441018  1.0000
  Se  Se37      1.0  0.007094022999234292  0.004576903649336844  0.9997226176449765  1.0000
  Se  Se38      1.0  0.004245787986678922  0.009603150037261098  0.998859791441018  1.0000
  Se  Se39      1.0  0.005679537606639707  0.0028968502286768603  0.9999748489697856  1.0000
  Se  Se40      1.0  0.005679546953668997  0.007896851531772863  0.999854046021263  1.0000
