data_image0
_chemical_formula_structural       COSn32V16
_chemical_formula_sum              "C1 O1 Sn32 V16"
_cell_length_a       5.520762204356919
_cell_length_b       18.904949188232422
_cell_length_c       108.43807983398438
_cell_angle_alpha    90.0
_cell_angle_beta     89.51051768448136
_cell_angle_gamma    90.0

_space_group_name_H-M_alt    "P 1"
_space_group_IT_number       1

loop_
  _space_group_symop_operation_xyz
  'x, y, z'

loop_
  _atom_site_type_symbol
  _atom_site_label
  _atom_site_symmetry_multiplicity
  _atom_site_fract_x
  _atom_site_fract_y
  _atom_site_fract_z
  _atom_site_occupancy
  C   C1        1.0  0.00482909827494471  0.0006081725179878189  0.9999953986697752  1.0000
  O   O1        1.0  0.00482909827494471  0.0006081725179878189  0.00010606057685076174  1.0000
  Sn  Sn1       1.0  0.008568313642765184  0.002523427588986805  0.9994959009497002  1.0000
  Sn  Sn2       1.0  0.0040190966111507236  0.0025348961146734778  0.9999519212116874  1.0000
  Sn  Sn3       1.0  0.003561719266561606  0.002523427588986805  0.9993483997067777  1.0000
  Sn  Sn4       1.0  0.008830923981134022  0.00251804270236413  0.9998127704381877  1.0000
  Sn  Sn5       1.0  0.006658966311032952  0.005046323527074939  0.9999981998019641  1.0000
  Sn  Sn6       1.0  0.0010617193340418944  0.0050234274628724335  0.999569944041189  1.0000
  Sn  Sn7       1.0  0.006068313372844032  0.0050234274628724335  0.9997174452842583  1.0000
  Sn  Sn8       1.0  0.0010683135921549685  0.0050234274628724335  0.9992743570333706  1.0000
  Sn  Sn9       1.0  0.008565016555883829  0.0033629236692512376  0.9992006065434195  1.0000
  Sn  Sn10      1.0  0.003565016353442963  0.0033629236692512376  0.9996436943878911  1.0000
  Sn  Sn11      1.0  0.008565016555883829  0.0016839311146149606  0.9992006065434195  1.0000
  Sn  Sn12      1.0  0.003565016353442963  0.0016839311146149606  0.9996436943878911  1.0000
  Sn  Sn13      1.0  0.0012148544608087443  0.004044732644720277  0.9998840441100616  1.0000
  Sn  Sn14      1.0  0.006065016285962675  0.0041839309885005884  0.999422150603145  1.0000
  Sn  Sn15      1.0  0.0010260710160933469  0.005858664030228908  0.9998671624498671  1.0000
  Sn  Sn16      1.0  0.006065016285962675  0.005862923543136866  0.999422150603145  1.0000
  Sn  Sn17      1.0  0.006068313372844032  0.007523427730865473  0.9992743573740868  1.0000
  Sn  Sn18      1.0  0.0010683135921549685  0.007523427730865473  0.9997174449435423  1.0000
  Sn  Sn19      1.0  0.0017847058410073717  0.007505666886240195  0.9999992237654698  1.0000
  Sn  Sn20      1.0  0.006061719199081318  0.007523427730865473  0.9995699438322032  1.0000
  Sn  Sn21      1.0  0.0038139588968387267  0.009976572174548748  0.9998130759445426  1.0000
  Sn  Sn22      1.0  0.008561719469002471  2.342754883711262e-05  0.9993484000473103  1.0000
  Sn  Sn23      1.0  0.00897392888268622  8.371504637914351e-05  0.9999417559002522  1.0000
  Sn  Sn24      1.0  0.00356831344032432  2.342754883711262e-05  0.9994959011588329  1.0000
  Sn  Sn25      1.0  0.0010650164209232513  0.008362923811129906  0.9994221502624656  1.0000
  Sn  Sn26      1.0  0.0062465558060903715  0.008502143830817873  0.9998860765166737  1.0000
  Sn  Sn27      1.0  0.0010650164209232513  0.006683930862386217  0.9994221502624656  1.0000
  Sn  Sn28      1.0  0.0060192214631799475  0.006659149388325118  0.9998705901841485  1.0000
  Sn  Sn29      1.0  0.008565016555883829  0.009183930736271845  0.9996436941787584  1.0000
  Sn  Sn30      1.0  0.003565016353442963  0.009183930736271845  0.9992006064777195  1.0000
  Sn  Sn31      1.0  0.008565016555883829  0.0008629237953656096  0.9996436941787584  1.0000
  Sn  Sn32      1.0  0.003565016353442963  0.0008629237953656096  0.9992006064777195  1.0000
  V   V1        1.0  0.008565016555883829  0.00624758735324575  0.9992006065434195  1.0000
  V   V2        1.0  0.003565016353442963  0.00624758735324575  0.9996436943878911  1.0000
  V   V3        1.0  0.006327230515039791  0.0038124768706242094  0.9998530114934386  1.0000
  V   V4        1.0  0.0010650164209232513  0.003799267178391705  0.9994221502624656  1.0000
  V   V5        1.0  0.001792407535000136  0.001322116666980271  0.9998665125346057  1.0000
  V   V6        1.0  0.006065016285962675  0.0012992674030329295  0.999422150603145  1.0000
  V   V7        1.0  0.003565016353442963  0.003747587479360122  0.9992006064777195  1.0000
  V   V8        1.0  0.008565016555883829  0.003747587479360122  0.9996436941787584  1.0000
  V   V9        1.0  0.0010650164209232513  0.0012475876054744938  0.9994221502624656  1.0000
  V   V10       1.0  0.005897843993995226  0.0012397726525499619  0.9998582551698497  1.0000
  V   V11       1.0  0.008565016555883829  0.00879926692616296  0.9992006065434195  1.0000
  V   V12       1.0  0.003565016353442963  0.00879926692616296  0.9996436943878911  1.0000
  V   V13       1.0  0.008565016555883829  0.006299267446384745  0.9996436941787584  1.0000
  V   V14       1.0  0.003565016353442963  0.006299267446384745  0.9992006064777195  1.0000
  V   V15       1.0  0.0013095510675435577  0.008729106348264536  0.9998511714173419  1.0000
  V   V16       1.0  0.006065016285962675  0.00874758762123879  0.999422150603145  1.0000
