data_image0
_chemical_formula_structural       CONb2Co6Nb2Co6
_chemical_formula_sum              "C1 O1 Nb4 Co12"
_cell_length_a       5.218568801879883
_cell_length_b       5.218569076753771
_cell_length_c       99.22122192382812
_cell_angle_alpha    90.0
_cell_angle_beta     90.0
_cell_angle_gamma    119.99999825761529

_space_group_name_H-M_alt    "P 1"
_space_group_IT_number       1

loop_
  _space_group_symop_operation_xyz
  'x, y, z'

loop_
  _atom_site_type_symbol
  _atom_site_label
  _atom_site_symmetry_multiplicity
  _atom_site_fract_x
  _atom_site_fract_y
  _atom_site_fract_z
  _atom_site_occupancy
  C   C1        1.0  0.003334091342426748  0.00416717739441566  0.00017221757651061226  1.0000
  O   O1        1.0  0.003334091342426748  0.00416717739441566  0.0002931590896403602  1.0000
  Nb  Nb1       1.0  0.006666666590272238  0.0033333331519903625  0.9993738753951904  1.0000
  Nb  Nb2       1.0  0.0033333330956029136  0.006666666303980725  0.9995842365910929  1.0000
  Co  Co1       1.0  0.0031490950113164436  0.0015745474378440704  0.9995842365910929  1.0000
  Co  Co2       1.0  0.00842545230441853  0.006850904580282947  0.9995842365910929  1.0000
  Co  Co3       1.0  0.0015745473147892014  0.008425452430270134  0.9993738753951904  1.0000
  Co  Co4       1.0  0.006850904937017716  0.008425452430270134  0.9993738753951904  1.0000
  Co  Co5       1.0  0.0015745474348268689  0.0031490948756881408  0.9993738753951904  1.0000
  Co  Co6       1.0  0.008425452276618525  0.0015745474378440704  0.9995842365910929  1.0000
  Nb  Nb3       1.0  0.006666570264520771  0.0033333418069957928  0.9997934389889324  1.0000
  Nb  Nb4       1.0  0.0033340941776073187  0.006667299767949578  0.9999953059367216  1.0000
  Co  Co7       1.0  0.003334088633540842  0.001667055433024858  0.0  1.0000
  Co  Co8       1.0  0.008333155333602828  0.006665884468490215  0.999999997597101  1.0000
  Co  Co9       1.0  0.0015751623375562147  0.008424962804248664  0.9997957433691136  1.0000
  Co  Co10      1.0  0.00684923099913794  0.008424800419861073  0.9997957274499074  1.0000
  Co  Co11      1.0  0.001575362153455642  0.003150993412950679  0.9997957331567927  1.0000
  Co  Co12      1.0  0.008333188635512313  0.0016672549102928636  0.9999999981978257  1.0000
