data_image0
_chemical_formula_structural       COAl8Cu8Pt16
_chemical_formula_sum              "C1 O1 Al8 Cu8 Pt16"
_cell_length_a       6.710475240713471
_cell_length_b       5.36837219149478
_cell_length_c       108.71196746826172
_cell_angle_alpha    93.9756197992833
_cell_angle_beta     93.97623158957397
_cell_angle_gamma    84.26039168329748

_space_group_name_H-M_alt    "P 1"
_space_group_IT_number       1

loop_
  _space_group_symop_operation_xyz
  'x, y, z'

loop_
  _atom_site_type_symbol
  _atom_site_label
  _atom_site_symmetry_multiplicity
  _atom_site_fract_x
  _atom_site_fract_y
  _atom_site_fract_z
  _atom_site_occupancy
  C   C1        1.0  0.003496761296184586  0.0010375800634743757  0.00010117676221076446  1.0000
  O   O1        1.0  0.003496761296184586  0.0010375800634743757  0.00021155986899754636  1.0000
  Al  Al1       1.0  0.0016666667225715458  0.005937500030414209  0.999533123825174  1.0000
  Al  Al2       1.0  0.0016666667225715458  0.0021874998426003696  0.9999782443115827  1.0000
  Al  Al3       1.0  0.008333333333333333  0.006770833008716818  0.9998298708086903  1.0000
  Al  Al4       1.0  0.0049999998881902425  0.0013541666336625183  0.9996814973756647  1.0000
  Al  Al5       1.0  0.008333333333333333  0.004270833231311  0.9989396291308088  1.0000
  Al  Al6       1.0  0.008333333333333333  0.0005208332173988635  0.999384749891953  1.0000
  Al  Al7       1.0  0.0049999998881902425  0.005104166647574654  0.9992363763403802  1.0000
  Al  Al8       1.0  0.0016666667225715458  0.009687499696522937  0.9990880027886987  1.0000
  Cu  Cu1       1.0  0.0049999998881902425  0.0044791667032232  0.9999040575604885  1.0000
  Cu  Cu2       1.0  0.0016666667225715458  0.009062499752171481  0.999755684008807  1.0000
  Cu  Cu3       1.0  0.008333333333333333  0.003645833286959545  0.9996073106250573  1.0000
  Cu  Cu4       1.0  0.008333333333333333  0.00989583273047409  5.24309923233877e-05  1.0000
  Cu  Cu5       1.0  0.0016666667225715458  0.0028124999608535287  0.9993105630920697  1.0000
  Cu  Cu6       1.0  0.008333333333333333  0.007395832953068272  0.999162189588582  1.0000
  Cu  Cu7       1.0  0.0049999998881902425  0.0019791665780139727  0.9990138158814162  1.0000
  Cu  Cu8       1.0  0.0049999998881902425  0.008229166717135335  0.9994589365252041  1.0000
  Pt  Pt1       1.0  0.0049999998881902425  0.009479166605838245  0.9999040577753552  1.0000
  Pt  Pt2       1.0  0.0016666667225715458  0.004062499849556437  0.9997556837939404  1.0000
  Pt  Pt3       1.0  0.008333333333333333  0.00864583284177118  0.9996073102904527  1.0000
  Pt  Pt4       1.0  0.008333333333333333  0.004895833175662454  5.243132692795445e-05  1.0000
  Pt  Pt5       1.0  0.0016666667225715458  0.007187499919117118  0.9999782445270446  1.0000
  Pt  Pt6       1.0  0.008333333333333333  0.0017708332800034769  0.9998298705944191  1.0000
  Pt  Pt7       1.0  0.0049999998881902425  0.0063541661884741535  0.9996814970410601  1.0000
  Pt  Pt8       1.0  0.0016666667225715458  0.0009374999538974605  0.9995331236097119  1.0000
  Pt  Pt9       1.0  0.0016666667225715458  0.007812499863468573  0.9993105633069364  1.0000
  Pt  Pt10      1.0  0.008333333333333333  0.0023958330504532267  0.9991621896478556  1.0000
  Pt  Pt11      1.0  0.0049999998881902425  0.0069791661328256075  0.9990138160950921  1.0000
  Pt  Pt12      1.0  0.0049999998881902425  0.003229166466716881  0.9994589368574271  1.0000
  Pt  Pt13      1.0  0.008333333333333333  0.005520833120013909  0.9993847501068197  1.0000
  Pt  Pt14      1.0  0.0049999998881902425  0.00010416670148418314  0.9992363761253648  1.0000
  Pt  Pt15      1.0  0.0016666667225715458  0.004687499793907892  0.9990880028479723  1.0000
  Pt  Pt16      1.0  0.008333333333333333  0.009270832786122635  0.9989396290703444  1.0000
