data_image0
_chemical_formula_structural       HRe18
_chemical_formula_sum              "H1 Re18"
_cell_length_a       5.289994526007796
_cell_length_b       6.592925657734825
_cell_length_c       99.63656616210938
_cell_angle_alpha    84.93169983137489
_cell_angle_beta     85.10020563950515
_cell_angle_gamma    75.67237678218005

_space_group_name_H-M_alt    "P 1"
_space_group_IT_number       1

loop_
  _space_group_symop_operation_xyz
  'x, y, z'

loop_
  _atom_site_type_symbol
  _atom_site_label
  _atom_site_symmetry_multiplicity
  _atom_site_fract_x
  _atom_site_fract_y
  _atom_site_fract_z
  _atom_site_occupancy
  H   H1        1.0  0.005456856961482584  0.009141195734249858  0.9999900041877547  1.0000
  Re  Re1       1.0  0.006592813188311787  0.007717117087851255  0.9999414678772057  1.0000
  Re  Re2       1.0  0.0006065045510780356  0.004224443054850501  0.9998669882043673  1.0000
  Re  Re3       1.0  0.004766917387138978  0.0009437279472139545  0.9997891082701611  1.0000
  Re  Re4       1.0  0.0016219131482435303  0.008003186903164487  0.9998807806561631  1.0000
  Re  Re5       1.0  0.005642938694268827  0.0048024704942996824  0.9997978534794877  1.0000
  Re  Re6       1.0  0.008268439293436841  0.0011359352513907704  0.9999558636532037  1.0000
  Re  Re7       1.0  0.008597395108868056  0.007515315750755623  0.9996867856984265  1.0000
  Re  Re8       1.0  0.002536956874472781  0.0041921374198058406  0.9996003557785279  1.0000
  Re  Re9       1.0  0.006476351095343524  0.0008588042043670386  0.9995102201667583  1.0000
  Re  Re10      1.0  0.0035470577479376365  0.008081026524347537  0.9996153781277698  1.0000
  Re  Re11      1.0  0.007486452034841384  0.0047476930896833665  0.9995252428160925  1.0000
  Re  Re12      1.0  0.009584255311502289  0.0014085339600511562  0.9997012763039308  1.0000
  Re  Re13      1.0  0.0004157446075093574  0.0075254708544700115  0.9994200847234992  1.0000
  Re  Re14      1.0  0.004355138541014448  0.0041921374198058406  0.9993299494134245  1.0000
  Re  Re15      1.0  0.00829453276188519  0.0008588042043670386  0.9992398141007651  1.0000
  Re  Re16      1.0  0.005365239414479303  0.008081026524347537  0.9993449720617765  1.0000
  Re  Re17      1.0  0.009304633701383052  0.0047476930896833665  0.9992548367500993  1.0000
  Re  Re18      1.0  0.0014258455654720071  0.0014143596550191951  0.99943510722369  1.0000
