data_image0
_chemical_formula_structural       COAu10In10Pd20
_chemical_formula_sum              "C1 O1 Au10 In10 Pd20"
_cell_length_a       13.906817460245682
_cell_length_b       4.635605812072754
_cell_length_c       103.10484313964844
_cell_angle_alpha    90.0
_cell_angle_beta     81.95053305225137
_cell_angle_gamma    90.0

_space_group_name_H-M_alt    "P 1"
_space_group_IT_number       1

loop_
  _space_group_symop_operation_xyz
  'x, y, z'

loop_
  _atom_site_type_symbol
  _atom_site_label
  _atom_site_symmetry_multiplicity
  _atom_site_fract_x
  _atom_site_fract_y
  _atom_site_fract_z
  _atom_site_occupancy
  C   C1        1.0  0.004185712220082676  0.005000000160725068  0.9999587964261031  1.0000
  O   O1        1.0  0.004185712220082676  0.005000000160725068  7.518304726730657e-05  1.0000
  Au  Au1       1.0  0.009499999714309124  4.999999974161084e-11  0.9991043501345576  1.0000
  Au  Au2       1.0  0.004833333396820195  4.999999974161084e-11  0.9993184029645631  1.0000
  Au  Au3       1.0  0.004166666702738747  4.999999974161084e-11  0.998890297060641  1.0000
  Au  Au4       1.0  0.0001666666904291496  4.999999974161084e-11  0.9995324560909625  1.0000
  Au  Au5       1.0  0.005505756653844398  0.009999999517824796  0.9997542781668449  1.0000
  Au  Au6       1.0  0.002166666620494404  0.005000000160725068  0.9992113767217633  1.0000
  Au  Au7       1.0  0.007500000173145986  0.005000000160725068  0.9994254297854605  1.0000
  Au  Au8       1.0  0.0068333334790645385  0.005000000160725068  0.9989973235924896  1.0000
  Au  Au9       1.0  0.002765190088666674  0.004999999758912398  0.9996517167905973  1.0000
  Au  Au10      1.0  0.008213047807061074  0.004999999758912398  0.9998448799451686  1.0000
  In  In1       1.0  0.00183333327345368  4.999999974161084e-11  0.9989973236252778  1.0000
  In  In2       1.0  0.00716666655556466  4.999999974161084e-11  0.9992113766940848  1.0000
  In  In3       1.0  0.003225027139334661  0.009999999517824796  0.9998406503954042  1.0000
  In  In4       1.0  0.0024999999675351277  4.999999974161084e-11  0.9994254298182487  1.0000
  In  In5       1.0  0.007786037341494374  4.999999974161084e-11  0.9996510345484503  1.0000
  In  In6       1.0  0.009833332790809245  0.005000000160725068  0.9993184029471041  1.0000
  In  In7       1.0  0.005166666473320316  0.005000000160725068  0.9995324560661583  1.0000
  In  In8       1.0  0.004500000049779471  0.005000000160725068  0.9991043501571264  1.0000
  In  In9       1.0  0.000508742810675669  0.004999999758912398  0.9997548478756414  1.0000
  In  In10      1.0  0.009166666637809002  0.005000000160725068  0.9988902970329625  1.0000
  Pd  Pd1       1.0  0.009383826333052675  0.009999999517824796  0.9997915767509541  1.0000
  Pd  Pd2       1.0  0.007999999787896167  4.999999974161084e-11  0.9989438104623601  1.0000
  Pd  Pd3       1.0  0.003987455196744745  0.009999999517824796  0.999580362435566  1.0000
  Pd  Pd4       1.0  0.0033333331998666362  4.999999974161084e-11  0.9991578632974754  1.0000
  Pd  Pd5       1.0  0.008666666481977616  4.999999974161084e-11  0.9993719163662822  1.0000
  Pd  Pd6       1.0  0.008976241223835998  0.005000000160725068  0.9995833646815607  1.0000
  Pd  Pd7       1.0  0.004361848220505984  0.005000000160725068  0.9997891355016632  1.0000
  Pd  Pd8       1.0  0.00366666654690736  0.005000000160725068  0.9993719163939607  1.0000
  Pd  Pd9       1.0  0.0029999998528259125  0.005000000160725068  0.9989438104900387  1.0000
  Pd  Pd10      1.0  0.008333333405477494  0.005000000160725068  0.9991578632646871  1.0000
  Pd  Pd11      1.0  0.0013333332528925941  0.005000000160725068  0.999478942666994  1.0000
  Pd  Pd12      1.0  0.006633788682458089  0.005000000160725068  0.9996912933271175  1.0000
  Pd  Pd13      1.0  0.005999999705651825  0.005000000160725068  0.9992648901234824  1.0000
  Pd  Pd14      1.0  0.005333333011570377  0.005000000160725068  0.9988367839305116  1.0000
  Pd  Pd15      1.0  0.0006666666940814477  0.005000000160725068  0.9990508367605171  1.0000
  Pd  Pd16      1.0  0.000999999973487021  4.999999974161084e-11  0.9992648898582799  1.0000
  Pd  Pd17      1.0  0.006333333323233151  4.999999974161084e-11  0.9994789426367606  1.0000
  Pd  Pd18      1.0  0.005666666629151704  4.999999974161084e-11  0.9990508370218872  1.0000
  Pd  Pd19      1.0  0.0016051038683722054  0.009999999517824796  0.9996998909145559  1.0000
  Pd  Pd20      1.0  0.00033333331322314854  4.999999974161084e-11  0.9988367839537191  1.0000
