data_image0
_chemical_formula_structural       COAl8Ru4Al8Ru4Al8Ru4Al8Ru4Al8Ru4Al8Ru4
_chemical_formula_sum              "C1 O1 Al48 Ru24"
_cell_length_a       17.28805978059989
_cell_length_b       6.3396735191345215
_cell_length_c       101.69837188720703
_cell_angle_alpha    90.0
_cell_angle_beta     79.43481165465715
_cell_angle_gamma    90.0

_space_group_name_H-M_alt    "P 1"
_space_group_IT_number       1

loop_
  _space_group_symop_operation_xyz
  'x, y, z'

loop_
  _atom_site_type_symbol
  _atom_site_label
  _atom_site_symmetry_multiplicity
  _atom_site_fract_x
  _atom_site_fract_y
  _atom_site_fract_z
  _atom_site_occupancy
  C   C1        1.0  0.003665623280423548  0.0037500001057707865  0.9999041512407697  1.0000
  O   O1        1.0  0.003665623280423548  0.0037500001057707865  2.2146883092856258e-05  1.0000
  Al  Al1       1.0  0.0020579267052334383  0.0037500001057707865  0.9994918475141197  1.0000
  Al  Al2       1.0  0.007147487651456001  0.0037500001057707865  0.9996330933700799  1.0000
  Al  Al3       1.0  0.002915074892306746  0.001250000035256929  0.9996357888649754  1.0000
  Al  Al4       1.0  0.007985433521532085  0.001250000035256929  0.9994564557646324  1.0000
  Al  Al5       1.0  0.0045012324835378  0.001250000035256929  0.9995593779426813  1.0000
  Al  Al6       1.0  0.009534153587083476  0.001250000035256929  0.9997028299475117  1.0000
  Al  Al7       1.0  0.005364244257968426  0.0037500001057707865  0.9996815911879604  1.0000
  Al  Al8       1.0  0.0004864937874540095  0.0037500001057707865  0.9995354413205909  1.0000
  Ru  Ru1       1.0  0.0012516387268986845  0.001250000035256929  0.9996551060365706  1.0000
  Ru  Ru2       1.0  0.006256404747150505  0.001250000035256929  0.9995172813393224  1.0000
  Ru  Ru3       1.0  0.0038524895623147292  0.0037500001057707865  0.999730901300504  1.0000
  Ru  Ru4       1.0  0.008759437574275322  0.0037500001057707865  0.9995831658173883  1.0000
  Al  Al9       1.0  0.0020494607810871085  0.0037500001057707865  0.9991735077400234  1.0000
  Al  Al10      1.0  0.007049460746015184  0.0037500001057707865  0.9993293528333081  1.0000
  Al  Al11      1.0  0.002950539183840967  0.001250000035256929  0.9993012666370567  1.0000
  Al  Al12      1.0  0.007950538710369989  0.001250000035256929  0.9991454216416756  1.0000
  Al  Al13      1.0  0.004549460763551147  0.001250000035256929  0.9992514298470965  1.0000
  Al  Al14      1.0  0.009549460728479222  0.001250000035256929  0.9994072752334273  1.0000
  Al  Al15      1.0  0.005450539166305005  0.0037500001057707865  0.9993791896232682  1.0000
  Al  Al16      1.0  0.00045053920137692936  0.0037500001057707865  0.9992233445299836  1.0000
  Ru  Ru5       1.0  0.001249999991232019  0.001250000035256929  0.9993542707465992  1.0000
  Ru  Ru6       1.0  0.006249999736960567  0.001250000035256929  0.9991984257443861  1.0000
  Ru  Ru7       1.0  0.0037499997544965294  0.0037500001057707865  0.9994321937396431  1.0000
  Ru  Ru8       1.0  0.008749999719424605  0.0037500001057707865  0.9992763487305977  1.0000
  Al  Al17      1.0  0.0020494607810871085  0.0037500001057707865  0.9988618176376934  1.0000
  Al  Al18      1.0  0.007049460746015184  0.0037500001057707865  0.999017662730978  1.0000
  Al  Al19      1.0  0.002950539183840967  0.001250000035256929  0.9989895768277728  1.0000
  Al  Al20      1.0  0.007950538710369989  0.001250000035256929  0.9988337318323919  1.0000
  Al  Al21      1.0  0.004549460763551147  0.001250000035256929  0.9989397400378126  1.0000
  Al  Al22      1.0  0.009549460728479222  0.001250000035256929  0.999095584838051  1.0000
  Al  Al23      1.0  0.005450539166305005  0.0037500001057707865  0.9990674995209382  1.0000
  Al  Al24      1.0  0.00045053920137692936  0.0037500001057707865  0.9989116544276535  1.0000
  Ru  Ru9       1.0  0.001249999991232019  0.001250000035256929  0.9990425809373155  1.0000
  Ru  Ru10      1.0  0.006249999736960567  0.001250000035256929  0.9988867359351022  1.0000
  Ru  Ru11      1.0  0.0037499997544965294  0.0037500001057707865  0.9991205036373131  1.0000
  Ru  Ru12      1.0  0.008749999719424605  0.0037500001057707865  0.9989646586282677  1.0000
  Al  Al25      1.0  0.0020579267052334383  0.008749999952990762  0.9994918475141197  1.0000
  Al  Al26      1.0  0.007147487651456001  0.008749999952990762  0.9996330933700799  1.0000
  Al  Al27      1.0  0.002915074892306746  0.006249999882476904  0.9996357888649754  1.0000
  Al  Al28      1.0  0.007985433521532085  0.006249999882476904  0.9994564557646324  1.0000
  Al  Al29      1.0  0.0045012324835378  0.006249999882476904  0.9995593779426813  1.0000
  Al  Al30      1.0  0.009534153587083476  0.006249999882476904  0.9997028299475117  1.0000
  Al  Al31      1.0  0.005364244257968426  0.008749999952990762  0.9996815911879604  1.0000
  Al  Al32      1.0  0.0004864937874540095  0.008749999952990762  0.9995354413205909  1.0000
  Ru  Ru13      1.0  0.0012516387268986845  0.006249999882476904  0.9996551060365706  1.0000
  Ru  Ru14      1.0  0.006256404747150505  0.006249999882476904  0.9995172813393224  1.0000
  Ru  Ru15      1.0  0.0038524895623147292  0.008749999952990762  0.999730901300504  1.0000
  Ru  Ru16      1.0  0.008759437574275322  0.008749999952990762  0.9995831658173883  1.0000
  Al  Al33      1.0  0.0020494607810871085  0.008749999952990762  0.9991735077400234  1.0000
  Al  Al34      1.0  0.007049460746015184  0.008749999952990762  0.9993293528333081  1.0000
  Al  Al35      1.0  0.002950539183840967  0.006249999882476904  0.9993012666370567  1.0000
  Al  Al36      1.0  0.007950538710369989  0.006249999882476904  0.9991454216416756  1.0000
  Al  Al37      1.0  0.004549460763551147  0.006249999882476904  0.9992514298470965  1.0000
  Al  Al38      1.0  0.009549460728479222  0.006249999882476904  0.9994072752334273  1.0000
  Al  Al39      1.0  0.005450539166305005  0.008749999952990762  0.9993791896232682  1.0000
  Al  Al40      1.0  0.00045053920137692936  0.008749999952990762  0.9992233445299836  1.0000
  Ru  Ru17      1.0  0.001249999991232019  0.006249999882476904  0.9993542707465992  1.0000
  Ru  Ru18      1.0  0.006249999736960567  0.006249999882476904  0.9991984257443861  1.0000
  Ru  Ru19      1.0  0.0037499997544965294  0.008749999952990762  0.9994321937396431  1.0000
  Ru  Ru20      1.0  0.008749999719424605  0.008749999952990762  0.9992763487305977  1.0000
  Al  Al41      1.0  0.0020494607810871085  0.008749999952990762  0.9988618176376934  1.0000
  Al  Al42      1.0  0.007049460746015184  0.008749999952990762  0.999017662730978  1.0000
  Al  Al43      1.0  0.002950539183840967  0.006249999882476904  0.9989895768277728  1.0000
  Al  Al44      1.0  0.007950538710369989  0.006249999882476904  0.9988337318323919  1.0000
  Al  Al45      1.0  0.004549460763551147  0.006249999882476904  0.9989397400378126  1.0000
  Al  Al46      1.0  0.009549460728479222  0.006249999882476904  0.999095584838051  1.0000
  Al  Al47      1.0  0.005450539166305005  0.008749999952990762  0.9990674995209382  1.0000
  Al  Al48      1.0  0.00045053920137692936  0.008749999952990762  0.9989116544276535  1.0000
  Ru  Ru21      1.0  0.001249999991232019  0.006249999882476904  0.9990425809373155  1.0000
  Ru  Ru22      1.0  0.006249999736960567  0.006249999882476904  0.9988867359351022  1.0000
  Ru  Ru23      1.0  0.0037499997544965294  0.008749999952990762  0.9991205036373131  1.0000
  Ru  Ru24      1.0  0.008749999719424605  0.008749999952990762  0.9989646586282677  1.0000
