data_image0
_chemical_formula_structural       COAl12Re2
_chemical_formula_sum              "C1 O1 Al12 Re2"
_cell_length_a       5.08071756362915
_cell_length_b       5.080717396825088
_cell_length_c       33.58409118652344
_cell_angle_alpha    90.0
_cell_angle_beta     90.0
_cell_angle_gamma    98.13535312154563

_space_group_name_H-M_alt    "P 1"
_space_group_IT_number       1

loop_
  _space_group_symop_operation_xyz
  'x, y, z'

loop_
  _atom_site_type_symbol
  _atom_site_label
  _atom_site_symmetry_multiplicity
  _atom_site_fract_x
  _atom_site_fract_y
  _atom_site_fract_z
  _atom_site_occupancy
  C   C1        1.0  0.0049293490754433915  0.004929348930014857  0.0005157356686856277  1.0000
  O   O1        1.0  0.0049293490754433915  0.004929348930014857  0.0008730475414329247  1.0000
  Al  Al1       1.0  0.0067621337065683716  0.0030965643727228686  0.0  1.0000
  Al  Al2       1.0  0.003230577451671312  0.006740966104575263  0.9986860622654724  1.0000
  Al  Al3       1.0  0.003096564496725644  0.0067621338576443835  0.0  1.0000
  Al  Al4       1.0  0.006740966020508672  0.003230577307042884  0.9986860622654724  1.0000
  Al  Al5       1.0  0.008674460435575836  0.008674460622631618  0.9989583165320062  1.0000
  Al  Al6       1.0  0.0012970834032747908  0.0012970834370772228  0.9976029161983119  1.0000
  Al  Al7       1.0  0.008787753927494087  0.008787754282642559  0.9998180944266486  1.0000
  Al  Al8       1.0  0.0012970834032747908  0.0012970834370772228  0.9984138075552417  1.0000
  Al  Al9       1.0  0.006099072487549345  0.00969894091166792  0.9980083620986253  1.0000
  Al  Al10      1.0  0.0038726447050385906  0.00030105930590538463  0.9993326295434859  1.0000
  Al  Al11      1.0  0.009698940572451745  0.006099072639249285  0.9980083620986253  1.0000
  Al  Al12      1.0  0.00030105930948668704  0.0038726448310123147  0.9993326295434859  1.0000
  Re  Re1       1.0  0.004543833290720643  0.00454383347704405  0.9980083620986253  1.0000
  Re  Re2       1.0  0.005471395596051702  0.005471395691380486  0.9993611530501423  1.0000
