data_image0
_chemical_formula_structural       COAl4Ca2Ga4Al4Ca2Ga4
_chemical_formula_sum              "C1 O1 Al8 Ca4 Ga8"
_cell_length_a       8.680776596069336
_cell_length_b       6.375276067564667
_cell_length_c       98.33905029296875
_cell_angle_alpha    91.88168487111882
_cell_angle_beta     90.0
_cell_angle_gamma    70.09827432379385

_space_group_name_H-M_alt    "P 1"
_space_group_IT_number       1

loop_
  _space_group_symop_operation_xyz
  'x, y, z'

loop_
  _atom_site_type_symbol
  _atom_site_label
  _atom_site_symmetry_multiplicity
  _atom_site_fract_x
  _atom_site_fract_y
  _atom_site_fract_z
  _atom_site_occupancy
  C   C1        1.0  0.0037842648405679224  0.0036880100228633516  0.00019103164417582798  1.0000
  O   O1        1.0  0.0037842648405679224  0.0036880100228633516  0.00031305808919741764  1.0000
  Al  Al1       1.0  0.00035714295165905567  0.007396496823207994  1.574509369610004e-05  1.0000
  Al  Al2       1.0  0.003214285997624619  0.0059679253946365645  0.999809904480703  1.0000
  Al  Al3       1.0  0.0010714287436731993  0.004539353655151418  0.999604063867048  1.0000
  Al  Al4       1.0  0.003928571789638763  0.003110782226579989  0.999398222950998  1.0000
  Ca  Ca1       1.0  0.004642857469918289  0.0002536395054618835  0.9997069842177774  1.0000
  Ca  Ca2       1.0  0.00035714295165905567  0.007396496823207994  0.9992953029042769  1.0000
  Ga  Ga1       1.0  0.002269677266371472  0.009746360319649152  0.9999593140431197  1.0000
  Ga  Ga2       1.0  0.001301751838369061  0.0036180612763679707  0.9998663358330125  1.0000
  Ga  Ga3       1.0  0.0029839629806571867  0.006889217462506293  0.9995476325140765  1.0000
  Ga  Ga4       1.0  0.002016037533222668  0.0007609184969535431  0.9994546546071917  1.0000
  Al  Al5       1.0  0.005357143329304469  0.007396496823207994  1.574509369610004e-05  1.0000
  Al  Al6       1.0  0.008214285946127518  0.0059679253946365645  0.999809904480703  1.0000
  Al  Al7       1.0  0.006071429121318612  0.004539353655151418  0.999604063867048  1.0000
  Al  Al8       1.0  0.008928571738141662  0.003110782226579989  0.999398222950998  1.0000
  Ca  Ca3       1.0  0.009642857418421186  0.0002536395054618835  0.9997069842177774  1.0000
  Ca  Ca4       1.0  0.005357143329304469  0.007396496823207994  0.9992953029042769  1.0000
  Ga  Ga5       1.0  0.00726967721487437  0.009746360319649152  0.9999593140431197  1.0000
  Ga  Ga6       1.0  0.006301752216014474  0.0036180612763679707  0.9998663358330125  1.0000
  Ga  Ga7       1.0  0.007983962929160086  0.006889217462506293  0.9995476325140765  1.0000
  Ga  Ga8       1.0  0.007016037910868081  0.0007609184969535431  0.9994546546071917  1.0000
