data_image0
_chemical_formula_structural       HTi6Al2Ti6Al2
_chemical_formula_sum              "H1 Ti12 Al4"
_cell_length_a       5.779417871904169
_cell_length_b       4.678409576416016
_cell_length_c       104.67650604248047
_cell_angle_alpha    90.0
_cell_angle_beta     59.99999931467677
_cell_angle_gamma    90.0

_space_group_name_H-M_alt    "P 1"
_space_group_IT_number       1

loop_
  _space_group_symop_operation_xyz
  'x, y, z'

loop_
  _atom_site_type_symbol
  _atom_site_label
  _atom_site_symmetry_multiplicity
  _atom_site_fract_x
  _atom_site_fract_y
  _atom_site_fract_z
  _atom_site_occupancy
  H   H1        1.0  0.0042726380216820785  0.004166666241987839  1.0754062868190694e-05  1.0000
  Ti  Ti1       1.0  0.008158370399646436  0.002500000183142744  0.9993483361927386  1.0000
  Ti  Ti2       1.0  0.006461302963234518  0.007500000350360032  0.9989836119710586  1.0000
  Ti  Ti3       1.0  0.001552505618567679  0.007500000350360032  0.9992546372326255  1.0000
  Ti  Ti4       1.0  0.008158370399646436  0.002500000183142744  0.9990773104979926  1.0000
  Ti  Ti5       1.0  0.003249573334090411  0.002500000183142744  0.9993483360365633  1.0000
  Ti  Ti6       1.0  0.001552505618567679  0.007500000350360032  0.9989836118225884  1.0000
  Al  Al1       1.0  0.003188771090000165  0.002500000183142744  0.9990739537788884  1.0000
  Al  Al2       1.0  0.006522104463029259  0.007500000350360032  0.9992579942492805  1.0000
  Ti  Ti7       1.0  0.008447494221408787  0.0024999991878017426  0.999889560166844  1.0000
  Ti  Ti8       1.0  0.006461302963234518  0.007500000350360032  0.9995357337955032  1.0000
  Ti  Ti9       1.0  0.0016333942584854213  0.007500000350360032  0.9997978265552712  1.0000
  Ti  Ti10      1.0  0.0080835917745653  0.0024999997850063435  0.9996375060164894  1.0000
  Ti  Ti11      1.0  0.0031571668142713815  0.002499999386869943  0.999889598774493  1.0000
  Ti  Ti12      1.0  0.001552505618567679  0.007500000350360032  0.999535733647033  1.0000
  Al  Al3       1.0  0.0032075783209655636  0.0024999989887335423  0.999624111796782  1.0000
  Al  Al4       1.0  0.006404086734886847  0.007500000350360032  0.9998232082083415  1.0000
