data_image0
_chemical_formula_structural       COAs24Rh12
_chemical_formula_sum              "C1 O1 As24 Rh12"
_cell_length_a       8.803737195962016
_cell_length_b       9.154830109957448
_cell_length_c       103.24593353271484
_cell_angle_alpha    83.50464943185129
_cell_angle_beta     89.4314232394247
_cell_angle_gamma    79.31960761364769

_space_group_name_H-M_alt    "P 1"
_space_group_IT_number       1

loop_
  _space_group_symop_operation_xyz
  'x, y, z'

loop_
  _atom_site_type_symbol
  _atom_site_label
  _atom_site_symmetry_multiplicity
  _atom_site_fract_x
  _atom_site_fract_y
  _atom_site_fract_z
  _atom_site_occupancy
  C   C1        1.0  0.0097557986076278  0.0022751292878423856  4.6682231673231385e-05  1.0000
  O   O1        1.0  0.0097557986076278  0.0022751292878423856  0.00016290980508068862  1.0000
  As  As1       1.0  0.00781411981331012  0.006547158367507612  0.999234688259551  1.0000
  As  As2       1.0  0.009438742054911136  0.00829575149591157  0.9997577974058891  1.0000
  As  As3       1.0  0.0036474530417825238  0.0023804916591633695  0.9995030274227572  1.0000
  As  As4       1.0  0.002446950639164242  0.008774034191189887  0.9995341074237655  1.0000
  As  As5       1.0  0.006613617080459588  0.002940700591120065  0.9992657681946553  1.0000
  As  As6       1.0  0.008080043146259859  0.004929943378645461  0.9998127089566412  1.0000
  As  As7       1.0  0.00637482227521585  0.007701906050927891  0.9996031539130943  1.0000
  As  As8       1.0  0.0005414891312173792  0.00186857245085807  0.9993348147074472  1.0000
  As  As9       1.0  0.0021983405742062785  0.003499338486842316  0.9998742316238998  1.0000
  As  As10      1.0  0.001741991652483122  0.005475030227245617  0.9993037347725219  1.0000
  As  As11      1.0  0.003601593342649847  0.0071336531383788355  0.9998405265686419  1.0000
  As  As12      1.0  0.007575325101003706  0.0013083635189013742  0.9995720739117281  1.0000
  As  As13      1.0  0.004217521527672726  0.006073194719449763  0.9993826441107179  1.0000
  As  As14      1.0  0.0062367871726831375  0.0073016787874394  0.9999214824911814  1.0000
  As  As15      1.0  7.299028934015843e-05  0.001880589554788528  0.9996598886630994  1.0000
  As  As16      1.0  0.0018800577053906388  0.005081114199119429  0.9996621441666648  1.0000
  As  As17      1.0  0.006052279496323282  0.009256728874683571  0.9993855892772815  1.0000
  As  As18      1.0  0.007587860148100341  0.001201098670421303  0.9999106637573932  1.0000
  As  As19      1.0  0.0099714209041799  0.008175870115761501  0.9994551983461101  1.0000
  As  As20      1.0  0.004138087548596641  0.002342536515691681  0.9991868588519883  1.0000
  As  As21      1.0  0.005767935180108231  0.004053537720700437  0.9997265009244277  1.0000
  As  As22      1.0  0.002303329526930217  0.009159002460484057  0.9991839137537432  1.0000
  As  As23      1.0  0.003950373122328593  0.0007377819238797281  0.9997181031577936  1.0000
  As  As24      1.0  0.008136663358698918  0.004992335960527694  0.9994522528905347  1.0000
  Rh  Rh1       1.0  2.8579347577940976e-05  0.007952516650758502  0.9992188590650696  1.0000
  Rh  Rh2       1.0  0.001707290358214914  0.009483269840713505  0.9997491788647245  1.0000
  Rh  Rh3       1.0  0.005861913047604773  0.0037858497340263787  0.9994871984948068  1.0000
  Rh  Rh4       1.0  0.009164268521758749  0.0063004529565659105  0.9996187316579042  1.0000
  Rh  Rh5       1.0  0.00333093471306482  0.00046711951278700047  0.9993503924512518  1.0000
  Rh  Rh6       1.0  0.004854846967521518  0.0021469128092302774  0.9998681291708953  1.0000
  Rh  Rh7       1.0  0.004160362652641716  0.006296548184452763  0.9996189834159376  1.0000
  Rh  Rh8       1.0  0.008327029567008462  0.00046321432389809025  0.9993506439003862  1.0000
  Rh  Rh9       1.0  0.009733155172073916  0.002494583815592903  0.9998778280128343  1.0000
  Rh  Rh10      1.0  0.005024674413106371  0.007948611461869592  0.999219110514025  1.0000
  Rh  Rh11      1.0  0.006707331335048264  0.009536786349194765  0.9997617633477357  1.0000
  Rh  Rh12      1.0  0.0008580075757078416  0.0037819445451374688  0.9994874496793772  1.0000
