data_image0
_chemical_formula_structural       V9Si18CO
_chemical_formula_sum              "V9 Si18 C1 O1"
_cell_length_a       4.582764298404972
_cell_length_b       11.17712570408803
_cell_length_c       101.47645568847656
_cell_angle_alpha    90.70501438600607
_cell_angle_beta     106.92902134910824
_cell_angle_gamma    65.79436345476964

_space_group_name_H-M_alt    "P 1"
_space_group_IT_number       1

loop_
  _space_group_symop_operation_xyz
  'x, y, z'

loop_
  _atom_site_type_symbol
  _atom_site_label
  _atom_site_symmetry_multiplicity
  _atom_site_fract_x
  _atom_site_fract_y
  _atom_site_fract_z
  _atom_site_occupancy
  V   V1        1.0  0.0050920663175181916  0.0072285869234176405  0.9994343520147242  1.0000
  V   V2        1.0  0.005104048004638624  0.000507932209791549  0.9999440264214635  1.0000
  V   V3        1.0  0.005092065752458771  0.003895253850284296  0.9996928393950383  1.0000
  V   V4        1.0  0.005143559022364346  0.007819215368956436  0.9999044927981682  1.0000
  V   V5        1.0  0.005092066180388175  0.001117475982500233  0.9996497582574178  1.0000
  V   V6        1.0  0.005092066320591192  0.004450809055633578  0.9993912708715167  1.0000
  V   V7        1.0  9.20658513513071e-05  0.006673031718068359  0.9997359208450212  1.0000
  V   V8        1.0  9.206624534479553e-05  6.364900110587891e-06  0.9994774334332365  1.0000
  V   V9        1.0  0.009907933425215211  0.003347754657513031  0.9999770467194413  1.0000
  Si  Si1       1.0  0.006853105574907138  0.005544869616593804  0.9998314709987254  1.0000
  Si  Si2       1.0  0.0068351128694058745  0.008882523605107332  0.9995645830717493  1.0000
  Si  Si3       1.0  0.006835111938689266  0.0022158572747368772  0.9993060956432052  1.0000
  Si  Si4       1.0  0.008512618852817018  0.00890229708595493  0.9998208514422204  1.0000
  Si  Si5       1.0  0.008463588624675233  0.0022413169844908393  0.9995626086213023  1.0000
  Si  Si6       1.0  0.008463588990332421  0.00557465024172795  0.9993041212386156  1.0000
  Si  Si7       1.0  0.008463588852254844  0.004980904919436428  0.9996086512387483  1.0000
  Si  Si8       1.0  0.008463588619705347  0.008314238728984834  0.9993501638489436  1.0000
  Si  Si9       1.0  0.008489331756828093  0.0016067055970231203  0.9998738408849827  1.0000
  Si  Si10      1.0  0.003349020442942351  0.0077968725359552  0.9996487709340344  1.0000
  Si  Si11      1.0  0.003349020335886603  0.0011302058373772142  0.9993902838095097  1.0000
  Si  Si12      1.0  0.003424745784764752  0.0044721312173579605  0.9999181498111323  1.0000
  Si  Si13      1.0  0.0017334315944350417  0.006883007954131027  0.9999959717583299  1.0000
  Si  Si14      1.0  0.0017205439833598817  0.009993634752220957  0.999736907925844  1.0000
  Si  Si15      1.0  0.0017205436769019045  0.0033269682377467364  0.9994784205052596  1.0000
  Si  Si16      1.0  0.001720543616526579  0.006142935486057977  0.9995185401757595  1.0000
  Si  Si17      1.0  0.001523571488416414  0.009431258134146216  3.7931022251785104e-05  1.0000
  Si  Si18      1.0  0.0018545711944861118  0.002791975029673403  0.9997800222687998  1.0000
  C   C1        1.0  0.00010493753630082504  0.0008001703808182563  2.464409955699263e-06  1.0000
  O   O1        1.0  0.00010493753630082504  0.0008001703808182563  0.00012071868122758962  1.0000
