data_image0
_chemical_formula_structural       COAu6Sn24
_chemical_formula_sum              "C1 O1 Au6 Sn24"
_cell_length_a       9.60093008841712
_cell_length_b       9.60092958040973
_cell_length_c       106.01868438720703
_cell_angle_alpha    86.1287397977976
_cell_angle_beta     86.1287400029472
_cell_angle_gamma    78.18175876731222

_space_group_name_H-M_alt    "P 1"
_space_group_IT_number       1

loop_
  _space_group_symop_operation_xyz
  'x, y, z'

loop_
  _atom_site_type_symbol
  _atom_site_label
  _atom_site_symmetry_multiplicity
  _atom_site_fract_x
  _atom_site_fract_y
  _atom_site_fract_z
  _atom_site_occupancy
  C   C1        1.0  0.009597437898431082  0.0020541162131042204  9.075537003263208e-05  1.0000
  O   O1        1.0  0.009597437898431082  0.0020541162131042204  0.0002039431952547217  1.0000
  Au  Au1       1.0  0.0039684795681165395  0.0033497130818097532  0.999897033175214  1.0000
  Au  Au2       1.0  0.00213577053507327  0.0018883478959823958  0.9993669119924424  1.0000
  Au  Au3       1.0  0.007969103691431174  0.007721681554869713  0.9996500280540396  1.0000
  Au  Au4       1.0  0.005052437075926876  0.004805014427663264  0.9995084700252898  1.0000
  Au  Au5       1.0  0.0009428119267422728  0.0005451104199869996  0.9997873027378488  1.0000
  Au  Au6       1.0  0.009219103158079573  0.008971681808960628  0.9992253539170118  1.0000
  Sn  Sn1       1.0  0.008034225393246995  0.0051379302991524135  0.9995076297086055  1.0000
  Sn  Sn2       1.0  0.003910226180010034  0.0007355472428760022  0.9997874321133969  1.0000
  Sn  Sn3       1.0  0.0022008923486239065  0.009304597283432723  0.999224514041561  1.0000
  Sn  Sn4       1.0  0.0006703557427612121  0.003071806106742272  0.9996044566530213  1.0000
  Sn  Sn5       1.0  0.006643651093186885  0.008850621780795157  0.9998883068399194  1.0000
  Sn  Sn6       1.0  0.004837022236389275  0.007238472892514054  0.9993213408269732  1.0000
  Sn  Sn7       1.0  0.0065178517710137215  0.0036215562169033878  0.9992709250842008  1.0000
  Sn  Sn8       1.0  0.0023511851773113275  0.009454889677282178  0.9995540413085241  1.0000
  Sn  Sn9       1.0  0.008226445168318067  0.005532706985889213  0.9998676471115703  1.0000
  Sn  Sn10      1.0  0.004719521224110871  0.0018232259826534165  0.9995093097804256  1.0000
  Sn  Sn11      1.0  0.00048483183577525865  0.007729742589133568  0.9997850899552733  1.0000
  Sn  Sn12      1.0  0.008886188203864994  0.0059898927684251995  0.9992261939514052  1.0000
  Sn  Sn13      1.0  0.008302019127245519  0.0007034699026103827  0.9996491876217692  1.0000
  Sn  Sn14      1.0  0.00493427436344492  0.005993511181855103  0.9999277457418232  1.0000
  Sn  Sn15      1.0  0.002468686112572364  0.0048701367380092975  0.9993660722365564  1.0000
  Sn  Sn16      1.0  0.006785645103278969  0.009187096116139062  0.9994124833971806  1.0000
  Sn  Sn17      1.0  0.0026189788613932984  0.005020429528875806  0.9996955992204759  1.0000
  Sn  Sn18      1.0  0.008360741726516631  0.0012574169296761723  0.9999411939443458  1.0000
  Sn  Sn19      1.0  0.006535403455421145  0.003526790231205454  0.9997535865781739  1.0000
  Sn  Sn20      1.0  0.0045692284752899374  0.0016729331917869075  0.999179782796506  1.0000
  Sn  Sn21      1.0  0.0004025621159712098  0.007506266453657171  0.9994628987395056  1.0000
  Sn  Sn22      1.0  0.00915398196781345  0.0015554322230017731  0.9993677518652961  1.0000
  Sn  Sn23      1.0  0.004987314905343723  0.007388766080397617  0.9996508678089537  1.0000
  Sn  Sn24      1.0  0.0010370921588652106  0.003053774386184955  0.9999123294316443  1.0000
