data_image0
_chemical_formula_structural       COAl6Ir2Al6Ir2Al6Ir2Al6Ir2Al6Ir2Al6Ir2
_chemical_formula_sum              "C1 O1 Al36 Ir12"
_cell_length_a       8.941001548856326
_cell_length_b       8.637086418182871
_cell_length_c       108.86688995361328
_cell_angle_alpha    59.999998276120515
_cell_angle_beta     61.11819229907032
_cell_angle_gamma    76.02478130061797

_space_group_name_H-M_alt    "P 1"
_space_group_IT_number       1

loop_
  _space_group_symop_operation_xyz
  'x, y, z'

loop_
  _atom_site_type_symbol
  _atom_site_label
  _atom_site_symmetry_multiplicity
  _atom_site_fract_x
  _atom_site_fract_y
  _atom_site_fract_z
  _atom_site_occupancy
  C   C1        1.0  0.005691780979244257  0.002288621757041361  0.999683432555672  1.0000
  O   O1        1.0  0.005691780979244257  0.002288621757041361  0.9997936585823286  1.0000
  Al  Al1       1.0  0.002499999895315596  0.0008333333897776077  0.9992475965103153  1.0000
  Al  Al2       1.0  0.0074999999238658886  0.0008333333897776077  0.9994459368687395  1.0000
  Al  Al3       1.0  0.005790868574341854  0.004166666699869181  0.9993815078441711  1.0000
  Al  Al4       1.0  0.0007908689026702121  0.002500000169332823  0.9994476211402324  1.0000
  Al  Al5       1.0  0.00420913100692053  0.002500000169332823  0.9993120251684652  1.0000
  Al  Al6       1.0  0.009209130797551722  0.004166666699869181  0.999245911867685  1.0000
  Ir  Ir1       1.0  0.002499999895315596  0.004166666699869181  0.9995120503604796  1.0000
  Ir  Ir2       1.0  0.0074999999238658886  0.002500000169332823  0.9995781640626328  1.0000
  Al  Al7       1.0  0.002499999895315596  0.0008333333897776077  0.9988509150904015  1.0000
  Al  Al8       1.0  0.0074999999238658886  0.0008333333897776077  0.9990492559963259  1.0000
  Al  Al9       1.0  0.005790868574341854  0.004166666699869181  0.9989848269717575  1.0000
  Al  Al10      1.0  0.0007908689026702121  0.002500000169332823  0.9990509402678188  1.0000
  Al  Al11      1.0  0.00420913100692053  0.002500000169332823  0.9989153442960516  1.0000
  Al  Al12      1.0  0.009209130797551722  0.004166666699869181  0.9988492309952713  1.0000
  Ir  Ir3       1.0  0.002499999895315596  0.004166666699869181  0.999115369488066  1.0000
  Ir  Ir4       1.0  0.0074999999238658886  0.002500000169332823  0.9991814826427189  1.0000
  Al  Al13      1.0  0.002499999895315596  0.0008333333897776077  0.9984542342179877  1.0000
  Al  Al14      1.0  0.0074999999238658886  0.0008333333897776077  0.998652574576412  1.0000
  Al  Al15      1.0  0.005790868574341854  0.004166666699869181  0.9985881455518436  1.0000
  Al  Al16      1.0  0.0007908689026702121  0.002500000169332823  0.9986542593954052  1.0000
  Al  Al17      1.0  0.00420913100692053  0.002500000169332823  0.9985186634236379  1.0000
  Al  Al18      1.0  0.009209130797551722  0.004166666699869181  0.9984525495753575  1.0000
  Ir  Ir5       1.0  0.002499999895315596  0.004166666699869181  0.9987186880681521  1.0000
  Ir  Ir6       1.0  0.0074999999238658886  0.002500000169332823  0.9987848017703053  1.0000
  Al  Al19      1.0  0.002499999895315596  0.0058333334794243965  0.999247596134459  1.0000
  Al  Al20      1.0  0.0074999999238658886  0.0058333334794243965  0.9994459370403834  1.0000
  Al  Al21      1.0  0.005790868574341854  0.009166667038534826  0.999381508005937  1.0000
  Al  Al22      1.0  0.0007908689026702121  0.007500000258979612  0.9994476213118764  1.0000
  Al  Al23      1.0  0.00420913100692053  0.007500000258979612  0.9993120253401092  1.0000
  Al  Al24      1.0  0.009209130797551722  0.009166667038534826  0.9992459120294508  1.0000
  Ir  Ir7       1.0  0.002499999895315596  0.009166667038534826  0.9995120505222455  1.0000
  Ir  Ir8       1.0  0.0074999999238658886  0.007500000258979612  0.9995781636867764  1.0000
  Al  Al25      1.0  0.002499999895315596  0.0058333334794243965  0.9988509152620454  1.0000
  Al  Al26      1.0  0.0074999999238658886  0.0058333334794243965  0.9990492556204696  1.0000
  Al  Al27      1.0  0.005790868574341854  0.009166667038534826  0.9989848265860231  1.0000
  Al  Al28      1.0  0.0007908689026702121  0.007500000258979612  0.9990509404394627  1.0000
  Al  Al29      1.0  0.00420913100692053  0.007500000258979612  0.9989153444676956  1.0000
  Al  Al30      1.0  0.009209130797551722  0.009166667038534826  0.998849230609537  1.0000
  Ir  Ir9       1.0  0.002499999895315596  0.009166667038534826  0.9991153691023317  1.0000
  Ir  Ir10      1.0  0.0074999999238658886  0.007500000258979612  0.9991814828143628  1.0000
  Al  Al31      1.0  0.002499999895315596  0.0058333334794243965  0.9984542343896318  1.0000
  Al  Al32      1.0  0.0074999999238658886  0.0058333334794243965  0.998652574748056  1.0000
  Al  Al33      1.0  0.005790868574341854  0.009166667038534826  0.9985881457136094  1.0000
  Al  Al34      1.0  0.0007908689026702121  0.007500000258979612  0.998654259019549  1.0000
  Al  Al35      1.0  0.00420913100692053  0.007500000258979612  0.9985186630477817  1.0000
  Al  Al36      1.0  0.009209130797551722  0.009166667038534826  0.9984525497371234  1.0000
  Ir  Ir11      1.0  0.002499999895315596  0.009166667038534826  0.9987186882299179  1.0000
  Ir  Ir12      1.0  0.0074999999238658886  0.007500000258979612  0.9987848019419492  1.0000
