data_image0
_chemical_formula_structural       CONaPb3NaPb3
_chemical_formula_sum              "C1 O1 Na2 Pb6"
_cell_length_a       5.011319637298584
_cell_length_b       5.011319637298584
_cell_length_c       100.06791687011719
_cell_angle_alpha    90.0
_cell_angle_beta     90.0
_cell_angle_gamma    90.0

_space_group_name_H-M_alt    "P 1"
_space_group_IT_number       1

loop_
  _space_group_symop_operation_xyz
  'x, y, z'

loop_
  _atom_site_type_symbol
  _atom_site_label
  _atom_site_symmetry_multiplicity
  _atom_site_fract_x
  _atom_site_fract_y
  _atom_site_fract_z
  _atom_site_occupancy
  C   C1        1.0  0.005833332897219934  0.0025000000520362577  0.00016303374184647236  1.0000
  O   O1        1.0  0.005833332897219934  0.0025000000520362577  0.0002829525399390764  1.0000
  Na  Na1       1.0  0.0024999998661924794  0.0024999998661924794  0.9994785455908508  1.0000
  Pb  Pb1       1.0  0.007499999970264995  0.007499999970264995  0.9994785455908508  1.0000
  Pb  Pb2       1.0  0.007499999970264995  0.0024999998661924794  0.9992281496462325  1.0000
  Pb  Pb3       1.0  0.0024999998661924794  0.007499999970264995  0.9992281496462325  1.0000
  Na  Na2       1.0  0.002500002468005373  0.0025000002378800356  0.0  1.0000
  Pb  Pb4       1.0  0.007499997740139658  0.007499999970264995  0.9999849195382134  1.0000
  Pb  Pb5       1.0  0.007499998483514771  0.0025000002378800356  0.9997568881602552  1.0000
  Pb  Pb6       1.0  0.0025000022821615947  0.007499999970264995  0.9997568881602552  1.0000
