data_image0
_chemical_formula_structural       COPd24V8
_chemical_formula_sum              "C1 O1 Pd24 V8"
_cell_length_a       6.780516147613525
_cell_length_b       5.53626823425293
_cell_length_c       108.35639190673828
_cell_angle_alpha    90.0
_cell_angle_beta     90.0
_cell_angle_gamma    90.0

_space_group_name_H-M_alt    "P 1"
_space_group_IT_number       1

loop_
  _space_group_symop_operation_xyz
  'x, y, z'

loop_
  _atom_site_type_symbol
  _atom_site_label
  _atom_site_symmetry_multiplicity
  _atom_site_fract_x
  _atom_site_fract_y
  _atom_site_fract_z
  _atom_site_occupancy
  C   C1        1.0  0.00333333325275305  0.009374999865422335  4.9227726914627424e-05  1.0000
  O   O1        1.0  0.00333333325275305  0.009374999865422335  0.00015997361008341564  1.0000
  Pd  Pd1       1.0  0.001666666626376525  0.0006250000050466625  0.9999262535734054  1.0000
  Pd  Pd2       1.0  0.008333332857177116  0.0056249999192534  0.9997787601701363  1.0000
  Pd  Pd3       1.0  0.004999999604424065  0.0006250000050466625  0.9996312673169471  1.0000
  Pd  Pd4       1.0  0.001666666626376525  0.0056249999192534  0.999483773913678  1.0000
  Pd  Pd5       1.0  0.004999999604424065  0.0031250000672888335  0.9998525071468106  1.0000
  Pd  Pd6       1.0  0.001666666626376525  0.008125000107662133  0.9997050137435417  1.0000
  Pd  Pd7       1.0  0.008333332857177116  0.0031250000672888335  0.9995575208903524  1.0000
  Pd  Pd8       1.0  0.008333332857177116  0.008125000107662133  0.0  1.0000
  Pd  Pd9       1.0  0.004999999604424065  0.008125000107662133  0.9998525071468106  1.0000
  Pd  Pd10      1.0  0.001666666626376525  0.0031250000672888335  0.9997050137435417  1.0000
  Pd  Pd11      1.0  0.008333332857177116  0.008125000107662133  0.9995575208903524  1.0000
  Pd  Pd12      1.0  0.008333332857177116  0.0031250000672888335  0.0  1.0000
  Pd  Pd13      1.0  0.008333332857177116  0.0006250000050466625  0.9993362810604888  1.0000
  Pd  Pd14      1.0  0.004999999604424065  0.0056249999192534  0.9991887876572199  1.0000
  Pd  Pd15      1.0  0.001666666626376525  0.0006250000050466625  0.9990412945289907  1.0000
  Pd  Pd16      1.0  0.008333332857177116  0.0056249999192534  0.9988938014007616  1.0000
  Pd  Pd17      1.0  0.001666666626376525  0.0031250000672888335  0.9992625340838145  1.0000
  Pd  Pd18      1.0  0.008333332857177116  0.008125000107662133  0.9991150409555853  1.0000
  Pd  Pd19      1.0  0.004999999604424065  0.0031250000672888335  0.9989675478273562  1.0000
  Pd  Pd20      1.0  0.004999999604424065  0.008125000107662133  0.9994100274870834  1.0000
  Pd  Pd21      1.0  0.001666666626376525  0.008125000107662133  0.9992625340838145  1.0000
  Pd  Pd22      1.0  0.008333332857177116  0.0031250000672888335  0.9991150409555853  1.0000
  Pd  Pd23      1.0  0.004999999604424065  0.008125000107662133  0.9989675478273562  1.0000
  Pd  Pd24      1.0  0.004999999604424065  0.0031250000672888335  0.9994100274870834  1.0000
  V   V1        1.0  0.001666666626376525  0.0006250000050466625  0.999483773913678  1.0000
  V   V2        1.0  0.001666666626376525  0.0056249999192534  0.9999262535734054  1.0000
  V   V3        1.0  0.008333332857177116  0.0006250000050466625  0.9997787601701363  1.0000
  V   V4        1.0  0.004999999604424065  0.0056249999192534  0.9996312673169471  1.0000
  V   V5        1.0  0.008333332857177116  0.0006250000050466625  0.9988938014007616  1.0000
  V   V6        1.0  0.008333332857177116  0.0056249999192534  0.9993362810604888  1.0000
  V   V7        1.0  0.004999999604424065  0.0006250000050466625  0.9991887876572199  1.0000
  V   V8        1.0  0.001666666626376525  0.0056249999192534  0.9990412945289907  1.0000
