data_image0
_chemical_formula_structural       COGa10Rh6Ga10Rh6
_chemical_formula_sum              "C1 O1 Ga20 Rh12"
_cell_length_a       6.758127895627454
_cell_length_b       8.02086185871463
_cell_length_c       105.33740234375
_cell_angle_alpha    104.73406104752372
_cell_angle_beta     101.40113126028757
_cell_angle_gamma    100.93681060051426

_space_group_name_H-M_alt    "P 1"
_space_group_IT_number       1

loop_
  _space_group_symop_operation_xyz
  'x, y, z'

loop_
  _atom_site_type_symbol
  _atom_site_label
  _atom_site_symmetry_multiplicity
  _atom_site_fract_x
  _atom_site_fract_y
  _atom_site_fract_z
  _atom_site_occupancy
  C   C1        1.0  0.0034524545917575117  0.008122947075320597  0.0002508793178091831  1.0000
  O   O1        1.0  0.0034524545917575117  0.008122947075320597  0.000364798632763339  1.0000
  Ga  Ga1       1.0  0.005469954335810629  0.005395996200385654  0.999473854993419  1.0000
  Ga  Ga2       1.0  0.004530046189518722  0.00460400397832292  0.9992083909600753  1.0000
  Ga  Ga3       1.0  0.001780057325159372  0.0004556916006350397  0.9995393230102094  1.0000
  Ga  Ga4       1.0  0.008219943096375899  0.00954430870217671  0.9996221639713735  1.0000
  Ga  Ga5       1.0  0.0014285636396427774  0.0027413629768604005  0.9993657305572186  1.0000
  Ga  Ga6       1.0  0.008571436741820138  0.00725863695364182  0.9993165153896444  1.0000
  Ga  Ga7       1.0  0.004735986630600978  0.008721216720412674  0.9994276827185572  1.0000
  Ga  Ga8       1.0  0.005264013931516135  0.0012787835823990766  0.999254563237807  1.0000
  Ga  Ga9       1.0  0.009062342193352236  0.0034644625469876468  0.9996004626884438  1.0000
  Ga  Ga10      1.0  0.0009376579069470018  0.0065355373835145735  0.999561024281855  1.0000
  Rh  Rh1       1.0  0.005137754656041701  0.00224383557479953  0.9995078343649885  1.0000
  Rh  Rh2       1.0  0.0048622455881239725  0.007756164603909044  0.9996536526119417  1.0000
  Rh  Rh3       1.0  0.008269839608666271  0.0004978329130564357  0.9994059139409152  1.0000
  Rh  Rh4       1.0  0.0017301605560115436  0.009502167234626343  0.9992763320074044  1.0000
  Rh  Rh5       1.0  0.00804806395188636  0.004217887224786412  0.9993623756721444  1.0000
  Rh  Rh6       1.0  0.001951936257133853  0.005782112953922162  0.9993198702773385  1.0000
  Ga  Ga11      1.0  0.005154522439451237  0.005391067815027316  0.9999926610484479  1.0000
  Ga  Ga12      1.0  0.004530046189518722  0.00460400397832292  0.9996876317041545  1.0000
  Ga  Ga13      1.0  0.002153752974914313  0.0004833210942283929  3.6674639639152735e-05  1.0000
  Ga  Ga14      1.0  0.00833116256353679  0.008930183635212623  8.858795183098062e-05  1.0000
  Ga  Ga15      1.0  0.0014285636396427774  0.0027413629768604005  0.9998449713012977  1.0000
  Ga  Ga16      1.0  0.008571436741820138  0.00725863695364182  0.9997957566995685  1.0000
  Ga  Ga17      1.0  0.004843862966152556  0.00883344272680882  0.9998945839544772  1.0000
  Ga  Ga18      1.0  0.005264013931516135  0.0012787835823990766  0.9997338045477312  1.0000
  Ga  Ga19      1.0  0.008900149569826507  0.0034926103885248314  7.332586219480146e-05  1.0000
  Ga  Ga20      1.0  0.0009444253101698569  0.00651137499139816  4.784294722099318e-05  1.0000
  Rh  Rh7       1.0  0.005116000329410602  0.0022616356934524926  0.9999743241465063  1.0000
  Rh  Rh8       1.0  0.004560586574788539  0.00833483388966504  0.00010186374326462335  1.0000
  Rh  Rh9       1.0  0.008479938170557401  0.0005057742132903041  0.9998896442405392  1.0000
  Rh  Rh10      1.0  0.0017301605560115436  0.009502167234626343  0.9997555730344061  1.0000
  Rh  Rh11      1.0  0.00804806395188636  0.004217887224786412  0.999841616699146  1.0000
  Rh  Rh12      1.0  0.001951936257133853  0.005782112953922162  0.9997991113043401  1.0000
