data_image0
_chemical_formula_structural       HCu24Ru8Cu24Ru8
_chemical_formula_sum              "H1 Cu48 Ru16"
_cell_length_a       9.181632995605469
_cell_length_b       10.010832315047354
_cell_length_c       101.80611419677734
_cell_angle_alpha    105.35293671500465
_cell_angle_beta     90.0
_cell_angle_gamma    117.29583107479239

_space_group_name_H-M_alt    "P 1"
_space_group_IT_number       1

loop_
  _space_group_symop_operation_xyz
  'x, y, z'

loop_
  _atom_site_type_symbol
  _atom_site_label
  _atom_site_symmetry_multiplicity
  _atom_site_fract_x
  _atom_site_fract_y
  _atom_site_fract_z
  _atom_site_occupancy
  H   H1        1.0  0.005119840375670526  0.006951685482965313  0.00019099956970426802  1.0000
  Cu  Cu1       1.0  0.002696998817093935  0.00375  0.9998408233622976  1.0000
  Cu  Cu2       1.0  0.005196998817093935  0.008749999999999999  0.999970997720682  1.0000
  Cu  Cu3       1.0  0.00019699864465746493  0.008749999999999999  0.9997106490858794  1.0000
  Cu  Cu4       1.0  0.007696998888097186  0.00375  0.999580474727495  1.0000
  Cu  Cu5       1.0  0.002696998817093935  0.00375  0.9995769334991831  1.0000
  Cu  Cu6       1.0  0.005196998817093935  0.008749999999999999  0.9997071078575674  1.0000
  Cu  Cu7       1.0  0.00019699864465746493  0.008749999999999999  0.9999674567851061  1.0000
  Cu  Cu8       1.0  0.007696998888097186  0.00375  0.9998372824267218  1.0000
  Cu  Cu9       1.0  0.005231002588965208  0.00375  0.9997088784307403  1.0000
  Cu  Cu10      1.0  0.007731002588965207  0.008749999999999999  0.9998390527891247  1.0000
  Cu  Cu11      1.0  0.002731002467245347  0.008749999999999999  0.9995787041543222  1.0000
  Cu  Cu12      1.0  0.00023100246724534784  0.00375  0.999969227358279  1.0000
  Cu  Cu13      1.0  0.00980300127419596  0.00125  3.2543589596086787e-05  1.0000
  Cu  Cu14      1.0  0.002303001182906065  0.00625  0.9996420206783753  1.0000
  Cu  Cu15      1.0  0.007303001355342535  0.00625  0.9999023696059139  1.0000
  Cu  Cu16      1.0  0.004803001355342534  0.00125  0.9997721952475296  1.0000
  Cu  Cu17      1.0  0.00980300127419596  0.00125  0.9997757361831054  1.0000
  Cu  Cu18      1.0  0.002303001182906065  0.00625  0.9999059105414898  1.0000
  Cu  Cu19      1.0  0.007303001355342535  0.00625  0.9996455619066872  1.0000
  Cu  Cu20      1.0  0.004803001355342534  0.00125  3.6085110644119786e-05  1.0000
  Cu  Cu21      1.0  0.007268997857340947  0.00125  0.9996437912515482  1.0000
  Cu  Cu22      1.0  0.009768997857340948  0.00625  0.9997739656099325  1.0000
  Cu  Cu23      1.0  0.0047689975327546525  0.00625  3.431453747119194e-05  1.0000
  Cu  Cu24      1.0  0.0022689975327546525  0.00125  0.9999041401790868  1.0000
  Ru  Ru1       1.0  0.002291666741051026  0.00125  0.9996437912515482  1.0000
  Ru  Ru2       1.0  0.004791666741051026  0.00625  0.9997739656099325  1.0000
  Ru  Ru3       1.0  0.009791666964204103  0.00625  3.431453747119194e-05  1.0000
  Ru  Ru4       1.0  0.007291666964204103  0.00125  0.9999041401790868  1.0000
  Ru  Ru5       1.0  0.00020833325894897408  0.00375  0.9997088784307403  1.0000
  Ru  Ru6       1.0  0.0027083332589489736  0.008749999999999999  0.9998390527891247  1.0000
  Ru  Ru7       1.0  0.0077083334821020505  0.008749999999999999  0.9995787041543222  1.0000
  Ru  Ru8       1.0  0.005208333482102052  0.00375  0.999969227358279  1.0000
  Cu  Cu25      1.0  0.002696998817093935  0.00375  0.9993201257999563  1.0000
  Cu  Cu26      1.0  0.005196998817093935  0.008749999999999999  0.9994503001583407  1.0000
  Cu  Cu27      1.0  0.00019699864465746493  0.008749999999999999  0.9991899515235381  1.0000
  Cu  Cu28      1.0  0.007696998888097186  0.00375  0.9990597771651538  1.0000
  Cu  Cu29      1.0  0.002696998817093935  0.00375  0.9990562359368418  1.0000
  Cu  Cu30      1.0  0.005196998817093935  0.008749999999999999  0.9991864102952261  1.0000
  Cu  Cu31      1.0  0.00019699864465746493  0.008749999999999999  0.9994467592227648  1.0000
  Cu  Cu32      1.0  0.007696998888097186  0.00375  0.9993165848643805  1.0000
  Cu  Cu33      1.0  0.005231002588965208  0.00375  0.9991881808683991  1.0000
  Cu  Cu34      1.0  0.007731002588965207  0.008749999999999999  0.9993183552267835  1.0000
  Cu  Cu35      1.0  0.002731002467245347  0.008749999999999999  0.9990580065919809  1.0000
  Cu  Cu36      1.0  0.00023100246724534784  0.00375  0.9994485297959378  1.0000
  Cu  Cu37      1.0  0.00980300127419596  0.00125  0.9995118463199909  1.0000
  Cu  Cu38      1.0  0.002303001182906065  0.00625  0.999121323116034  1.0000
  Cu  Cu39      1.0  0.007303001355342535  0.00625  0.9993816720435726  1.0000
  Cu  Cu40      1.0  0.004803001355342534  0.00125  0.9992514976851883  1.0000
  Cu  Cu41      1.0  0.00980300127419596  0.00125  0.9992550386207641  1.0000
  Cu  Cu42      1.0  0.002303001182906065  0.00625  0.9993852129791485  1.0000
  Cu  Cu43      1.0  0.007303001355342535  0.00625  0.999124864344346  1.0000
  Cu  Cu44      1.0  0.004803001355342534  0.00125  0.9995153875483028  1.0000
  Cu  Cu45      1.0  0.007268997857340947  0.00125  0.9991230936892069  1.0000
  Cu  Cu46      1.0  0.009768997857340948  0.00625  0.9992532680475913  1.0000
  Cu  Cu47      1.0  0.0047689975327546525  0.00625  0.99951361697513  1.0000
  Cu  Cu48      1.0  0.0022689975327546525  0.00125  0.9993834426167456  1.0000
  Ru  Ru9       1.0  0.002291666741051026  0.00125  0.9991230936892069  1.0000
  Ru  Ru10      1.0  0.004791666741051026  0.00625  0.9992532680475913  1.0000
  Ru  Ru11      1.0  0.009791666964204103  0.00625  0.99951361697513  1.0000
  Ru  Ru12      1.0  0.007291666964204103  0.00125  0.9993834426167456  1.0000
  Ru  Ru13      1.0  0.00020833325894897408  0.00375  0.9991881808683991  1.0000
  Ru  Ru14      1.0  0.0027083332589489736  0.008749999999999999  0.9993183552267835  1.0000
  Ru  Ru15      1.0  0.0077083334821020505  0.008749999999999999  0.9990580065919809  1.0000
  Ru  Ru16      1.0  0.005208333482102052  0.00375  0.9994485297959378  1.0000
