data_image0
_chemical_formula_structural       COAu10Sn2
_chemical_formula_sum              "C1 O1 Au10 Sn2"
_cell_length_a       5.2358623771834285
_cell_length_b       5.76880378655518
_cell_length_c       39.5347785949707
_cell_angle_alpha    93.82685270410576
_cell_angle_beta     94.92960895381273
_cell_angle_gamma    63.011714134324784

_space_group_name_H-M_alt    "P 1"
_space_group_IT_number       1

loop_
  _space_group_symop_operation_xyz
  'x, y, z'

loop_
  _atom_site_type_symbol
  _atom_site_label
  _atom_site_symmetry_multiplicity
  _atom_site_fract_x
  _atom_site_fract_y
  _atom_site_fract_z
  _atom_site_occupancy
  C   C1        1.0  0.008861590636625595  0.0048429493991864365  0.0004216076670807258  1.0000
  O   O1        1.0  0.008861590636625595  0.0048429493991864365  0.0007251377472491581  1.0000
  Au  Au1       1.0  0.0070776028729324985  0.00960513905591173  0.9990143404515239  1.0000
  Au  Au2       1.0  0.0013784196520323447  0.0040538397036009935  0.998840971108469  1.0000
  Au  Au3       1.0  0.006624803407833809  0.0030683061344151156  0.9984612486545023  1.0000
  Au  Au4       1.0  0.0019457804673207893  0.0021325016126572185  0.9981006862744218  1.0000
  Au  Au5       1.0  0.007650304570305736  0.0075170066515976445  0.9982878794957651  1.0000
  Au  Au6       1.0  0.0013432898758551624  0.002430342813466272  3.895583040975079e-05  1.0000
  Au  Au7       1.0  0.0059143165127589735  0.007044859387287935  0.9999243602989663  1.0000
  Au  Au8       1.0  0.0011384095234250704  0.006242962206827352  0.9995963340035707  1.0000
  Au  Au9       1.0  0.0062314951007193045  0.004989644406618244  0.9992015332482586  1.0000
  Au  Au10      1.0  0.0019061150900781356  0.0003948609495260506  0.9993365340601724  1.0000
  Sn  Sn1       1.0  0.002363953807315515  0.008561072853754688  0.9986511099859272  1.0000
  Sn  Sn2       1.0  0.006768279857786521  0.001468106055845421  0.9997900043023704  1.0000
