data_image0
_chemical_formula_structural       Sn14Sb11Pt8H
_chemical_formula_sum              "Sn14 Sb11 Pt8 H1"
_cell_length_a       9.52146019291268
_cell_length_b       9.580672743756809
_cell_length_c       31.99469757080078
_cell_angle_alpha    89.70550454993231
_cell_angle_beta     89.77403664617026
_cell_angle_gamma    90.26914534185829

_space_group_name_H-M_alt    "P 1"
_space_group_IT_number       1

loop_
  _space_group_symop_operation_xyz
  'x, y, z'

loop_
  _atom_site_type_symbol
  _atom_site_label
  _atom_site_symmetry_multiplicity
  _atom_site_fract_x
  _atom_site_fract_y
  _atom_site_fract_z
  _atom_site_occupancy
  Sn  Sn1       1.0  0.0027309461315469232  0.009230418084876903  0.9999508131030879  1.0000
  Sn  Sn2       1.0  0.0008929300861342303  0.004204347039798348  0.9985173536500177  1.0000
  Sn  Sn3       1.0  0.007623214410728418  0.004233804646116957  0.9995417935730982  1.0000
  Sn  Sn4       1.0  0.009189403191831608  0.007725645614359566  0.9994675277560982  1.0000
  Sn  Sn5       1.0  0.009251562405548546  0.0007695815204470885  0.9984808962018024  1.0000
  Sn  Sn6       1.0  0.005920070705689835  0.00784055660369752  0.9989768377856822  1.0000
  Sn  Sn7       1.0  0.0058019662064742634  0.0009164718138896889  0.9989655005628582  1.0000
  Sn  Sn8       1.0  0.004162065938756655  0.005665180988478889  0.9999117956696589  1.0000
  Sn  Sn9       1.0  0.0077898198025128955  0.004165808385682641  0.9984769425995486  1.0000
  Sn  Sn10      1.0  0.004229382088538782  0.0057887966252428  0.9979564988631245  1.0000
  Sn  Sn11      1.0  0.004958339731488074  0.004837641441927234  0.99890611970008  1.0000
  Sn  Sn12      1.0  0.0026492876383822253  0.009225051268841296  0.9979369923746697  1.0000
  Sn  Sn13      1.0  0.007757690023105098  0.0026117309661362604  0.997480252607118  1.0000
  Sn  Sn14      1.0  0.0008151309140787709  0.002605495085194149  0.9974862914847155  1.0000
  Sb  Sb1       1.0  0.007735178309967238  0.005736966916286268  0.9974890796605586  1.0000
  Sb  Sb2       1.0  0.005798452481713701  0.009201107072504492  5.4789120450791065e-05  1.0000
  Sb  Sb3       1.0  0.004262860018366917  0.0026917733993987946  0.9979377157797056  1.0000
  Sb  Sb4       1.0  0.00271554885891204  0.007671909795259103  0.9989715934153335  1.0000
  Sb  Sb5       1.0  0.005780455000611196  0.009196626819326528  0.9979414874232173  1.0000
  Sb  Sb6       1.0  0.009246197679512572  0.0076995814440315915  0.9985158778451279  1.0000
  Sb  Sb7       1.0  0.009202665890558672  0.0008212163702755346  0.9994446192619012  1.0000
  Sb  Sb8       1.0  0.0027310343892644777  0.0007895924203952411  0.9989655443393908  1.0000
  Sb  Sb9       1.0  0.0041906749214936515  0.002662739243497718  0.9999960510299394  1.0000
  Sb  Sb10      1.0  0.0007484374987724205  0.004257826999968843  0.9994862886974871  1.0000
  Sb  Sb11      1.0  0.0008417690264992622  0.005749620656862323  0.9974914469910082  1.0000
  Pt  Pt1       1.0  0.0017833062941557175  0.0017359256544314606  0.9996850040385802  1.0000
  Pt  Pt2       1.0  0.006636628677000644  0.006805083071126406  0.9997160006769819  1.0000
  Pt  Pt3       1.0  0.0017248326150177784  0.006768638338496841  0.9996973185489342  1.0000
  Pt  Pt4       1.0  0.006650182650111029  0.0016544061996712264  0.9997223180483126  1.0000
  Pt  Pt5       1.0  0.0017254622980902704  0.006742626273178922  0.998234587446746  1.0000
  Pt  Pt6       1.0  0.006733084052435985  0.0016903277435617744  0.9982098148766722  1.0000
  Pt  Pt7       1.0  0.001796754411837473  0.0017186376787074304  0.998229343250204  1.0000
  Pt  Pt8       1.0  0.006765356070363679  0.006716356015870882  0.9982285958917948  1.0000
  H   H1        1.0  0.004257000766280737  0.008436508045038439  0.9999820189721828  1.0000
