data_image0
_chemical_formula_structural       V20Si12H
_chemical_formula_sum              "V20 Si12 H1"
_cell_length_a       7.1411804935149075
_cell_length_b       8.63596767309204
_cell_length_c       35.45613098144531
_cell_angle_alpha    88.52883127049
_cell_angle_beta     114.42210490909969
_cell_angle_gamma    65.57789467817751

_space_group_name_H-M_alt    "P 1"
_space_group_IT_number       1

loop_
  _space_group_symop_operation_xyz
  'x, y, z'

loop_
  _atom_site_type_symbol
  _atom_site_label
  _atom_site_symmetry_multiplicity
  _atom_site_fract_x
  _atom_site_fract_y
  _atom_site_fract_z
  _atom_site_occupancy
  V   V1        1.0  0.0025697092159512797  0.00737051089065098  0.999517296344623  1.0000
  V   V2        1.0  0.007569709230355425  0.002370511163747468  0.9982994578996146  1.0000
  V   V3        1.0  0.0003921259447389184  0.0015202362215175189  0.0002915970158472293  1.0000
  V   V4        1.0  0.006241472357648061  0.006146589966659757  0.9992191887369976  1.0000
  V   V5        1.0  0.002517551459953892  0.009870510754102736  0.9989083771195132  1.0000
  V   V6        1.0  0.006703432542139103  0.004986103992395995  0.9999256352586716  1.0000
  V   V7        1.0  0.0024956914033502212  0.0006696598978063579  0.9997378252241996  1.0000
  V   V8        1.0  0.007543629982223827  0.005729923241472414  0.9985087827249833  1.0000
  V   V9        1.0  0.007269942233156539  0.0001294887911428442  9.976970510173106e-05  1.0000
  V   V10       1.0  0.002569709047395448  0.004922668554996233  0.9989210811290599  1.0000
  V   V11       1.0  0.007543630570959602  0.009063256067626556  0.9993206750567036  1.0000
  V   V12       1.0  0.002543630388697329  0.004063256584559193  0.9981028366442257  1.0000
  V   V13       1.0  0.003926225228271471  0.003611467456511647  0.9998392017072386  1.0000
  V   V14       1.0  0.00884578789387071  0.008646589830111512  0.9986102694367895  1.0000
  V   V15       1.0  0.0052927645866007785  0.008230447352646343  0.00032104717118463307  1.0000
  V   V16       1.0  4.363023765566601e-05  0.003229923134184508  0.9991177020322156  1.0000
  V   V17       1.0  0.007517552029560638  0.0024226684477083272  0.9995300000146825  1.0000
  V   V18       1.0  0.0025175512913980604  0.007422668418447989  0.9983121619039499  1.0000
  V   V19       1.0  0.009956370029298604  0.0065162192355245905  0.9999525796356168  1.0000
  V   V20       1.0  0.005043630471315567  0.0015632565991893623  0.9987117558858724  1.0000
  Si  Si1       1.0  0.009317206449808376  0.0006230136765862801  0.9990916621064332  1.0000
  Si  Si2       1.0  0.004246454515597089  0.005764726950484767  0.0003046268420805407  1.0000
  Si  Si3       1.0  0.004317206731975634  0.0016701660714177591  0.999346714821396  1.0000
  Si  Si4       1.0  0.009317206537157084  0.006670166164075496  0.9981288764945797  1.0000
  Si  Si5       1.0  0.005718859215661847  0.008194504928814201  0.9996829332329765  1.0000
  Si  Si6       1.0  0.0007700541202271246  0.003123013661956111  0.9984827431086193  1.0000
  Si  Si7       1.0  0.0003505534693778308  0.003686883051625723  0.9998338408323191  1.0000
  Si  Si8       1.0  0.005246478184575431  0.008646589830111512  0.9986102692937009  1.0000
  Si  Si9       1.0  0.0010032747050865484  0.008905647207777239  2.7856356867781463e-05  1.0000
  Si  Si10      1.0  0.0057700543125977465  0.0041701658129514405  0.9987377957671968  1.0000
  Si  Si11      1.0  0.004616307050702283  0.0012240844161296965  0.00044479263601853954  1.0000
  Si  Si12      1.0  0.009840783212795549  0.006146589966659757  0.9992191885552352  1.0000
  H   H1        1.0  0.00715917582806993  0.002565851717096508  0.000488457588078485  1.0000
