data_image0
_chemical_formula_structural       COCa16Ge16Ca16Ge16
_chemical_formula_sum              "C1 O1 Ca32 Ge32"
_cell_length_a       22.532242720391686
_cell_length_b       6.1773336095418205
_cell_length_c       107.06400299072266
_cell_angle_alpha    97.55487898014306
_cell_angle_beta     98.92259753270294
_cell_angle_gamma    81.07740279967948

_space_group_name_H-M_alt    "P 1"
_space_group_IT_number       1

loop_
  _space_group_symop_operation_xyz
  'x, y, z'

loop_
  _atom_site_type_symbol
  _atom_site_label
  _atom_site_symmetry_multiplicity
  _atom_site_fract_x
  _atom_site_fract_y
  _atom_site_fract_z
  _atom_site_occupancy
  C   C1        1.0  0.00422695773935216  0.008446769573607623  0.00023843752830524347  1.0000
  O   O1        1.0  0.00422695773935216  0.008446769573607623  0.00035052024503062963  1.0000
  Ca  Ca1       1.0  0.006839296263271703  0.007772156569836244  0.9995062967321242  1.0000
  Ca  Ca2       1.0  0.0018392960091342622  0.0002721567402702999  0.9993620528165553  1.0000
  Ca  Ca3       1.0  0.0018392960827131328  0.005272156741805742  0.9990735646678044  1.0000
  Ca  Ca4       1.0  0.006839296355597014  0.00277215660668685  0.9992178086120891  1.0000
  Ca  Ca5       1.0  0.005706711218287255  0.008338449057406681  0.9991851350287531  1.0000
  Ca  Ca6       1.0  0.0007067108761137057  0.000838449342998884  0.9990408911111842  1.0000
  Ca  Ca7       1.0  0.000706710870371926  0.005838449229376179  0.9993293789551033  1.0000
  Ca  Ca8       1.0  0.005706710641185533  0.003338449094257288  0.9994736228829996  1.0000
  Ca  Ca9       1.0  0.009339296448849978  0.009022156176763104  0.9994341747669989  1.0000
  Ca  Ca10      1.0  0.0043392961816393506  0.0015221566926715995  0.9992899305752642  1.0000
  Ca  Ca11      1.0  0.004339296100934649  0.006522156348732603  0.9990014426972162  1.0000
  Ca  Ca12      1.0  0.009339296529554678  0.004022156520702101  0.9991456869272738  1.0000
  Ca  Ca13      1.0  0.008206710803522586  0.004588449315360929  0.9994015009217746  1.0000
  Ca  Ca14      1.0  0.0032067110559502007  0.0070884488363030405  0.999257256989978  1.0000
  Ca  Ca15      1.0  0.00320671079613108  0.002088449333786232  0.9995457448580753  1.0000
  Ca  Ca16      1.0  0.008206710711197275  0.009588449278510323  0.9991130130456769  1.0000
  Ge  Ge1       1.0  0.005407133078945881  0.008488238175632783  0.9994649805611722  1.0000
  Ge  Ge2       1.0  0.0004071327396774842  0.0009882383844528882  0.9993207363647558  1.0000
  Ge  Ge3       1.0  0.00040713277286974156  0.005988238347602282  0.9990322484927552  1.0000
  Ge  Ge4       1.0  0.005407132836557676  0.0034882382124833897  0.9991764924302113  1.0000
  Ge  Ge5       1.0  0.007138874402613078  0.007622367451610142  0.9992264511997052  1.0000
  Ge  Ge6       1.0  0.002138874147749348  0.00012236764123722246  0.9990822072842582  1.0000
  Ge  Ge7       1.0  0.0021388742336751173  0.00512236731649125  0.999370695129568  1.0000
  Ge  Ge8       1.0  0.00713887449493839  0.0026223674884607484  0.9995149390758029  1.0000
  Ge  Ge9       1.0  0.007907132571855902  0.009738238396736425  0.999392858578096  1.0000
  Ge  Ge10      1.0  0.002907132662600011  0.002238238298468139  0.9992486143933864  1.0000
  Ge  Ge11      1.0  0.0029071329166088272  0.007238237954529142  0.9995371022440371  1.0000
  Ge  Ge12      1.0  0.007907132675801823  0.004738238126498641  0.9991043704561106  1.0000
  Ge  Ge13      1.0  0.00963887399946902  0.0038723674024759994  0.9994428170907765  1.0000
  Ge  Ge14      1.0  0.004638874240276023  0.0063723672305065005  0.9992985731609301  1.0000
  Ge  Ge15      1.0  0.004638874320980725  0.0013723675744454977  0.9990100853212049  1.0000
  Ge  Ge16      1.0  0.009638874588191352  0.008872367058537002  0.9991543292345799  1.0000
  Ca  Ca17      1.0  0.006812559691988178  0.008060518709927668  8.248612927488535e-05  1.0000
  Ca  Ca18      1.0  0.0018233107629694169  0.00027095374069502527  0.9999398401525799  1.0000
  Ca  Ca19      1.0  0.0018392960827131328  0.005272156741805742  0.9996505403855773  1.0000
  Ca  Ca20      1.0  0.006839296355597014  0.00277215660668685  0.999794784329862  1.0000
  Ca  Ca21      1.0  0.005706711218287255  0.008338449057406681  0.999762111024886  1.0000
  Ca  Ca22      1.0  0.0007067108761137057  0.000838449342998884  0.9996178668289571  1.0000
  Ca  Ca23      1.0  0.0006848485733777828  0.005857974523396853  0.9999113466207561  1.0000
  Ca  Ca24      1.0  0.005720919713125593  0.0036287004421247365  5.171402110543142e-05  1.0000
  Ca  Ca25      1.0  0.009327855884136465  0.00925565329089873  1.2466477482637529e-05  1.0000
  Ca  Ca26      1.0  0.004371101498855603  0.001611922160620455  0.9998688675916847  1.0000
  Ca  Ca27      1.0  0.004339296100934649  0.006522156348732603  0.9995784184149893  1.0000
  Ca  Ca28      1.0  0.009339296529554678  0.004022156520702101  0.9997226623666869  1.0000
  Ca  Ca29      1.0  0.008204423415213043  0.004654787163571648  0.9999835290389802  1.0000
  Ca  Ca30      1.0  0.0032067110559502007  0.0070884488363030405  0.9998342329861108  1.0000
  Ca  Ca31      1.0  0.0031175841105544836  0.0023949666930458053  0.00011993107310871712  1.0000
  Ca  Ca32      1.0  0.008206710711197275  0.009588449278510323  0.9996899890418098  1.0000
  Ge  Ge17      1.0  0.005377762440328273  0.008840989995187998  3.867637108193405e-05  1.0000
  Ge  Ge18      1.0  0.00036112585047126493  0.0010706649772825344  0.9999026577887533  1.0000
  Ge  Ge19      1.0  0.00040713277286974156  0.005988238347602282  0.9996092242105282  1.0000
  Ge  Ge20      1.0  0.005407132836557676  0.0034882382124833897  0.9997534681479843  1.0000
  Ge  Ge21      1.0  0.007138874402613078  0.007622367451610142  0.999803427195838  1.0000
  Ge  Ge22      1.0  0.002138874147749348  0.00012236764123722246  0.9996591830020312  1.0000
  Ge  Ge23      1.0  0.0021388376716182642  0.00517246418101364  0.9999488299230516  1.0000
  Ge  Ge24      1.0  0.007136866419614467  0.002943849725603503  8.796556921370708e-05  1.0000
  Ge  Ge25      1.0  0.007860191936343007  0.00987763195878015  0.9999739719129067  1.0000
  Ge  Ge26      1.0  0.002907132662600011  0.002238238298468139  0.9998255901111595  1.0000
  Ge  Ge27      1.0  0.0028600356350630108  0.007423936146565654  0.00010867911422104443  1.0000
  Ge  Ge28      1.0  0.007907132675801823  0.004738238126498641  0.9996813461738836  1.0000
  Ge  Ge29      1.0  0.009628929276216105  0.004122802898033919  1.6296519058672957e-05  1.0000
  Ge  Ge30      1.0  0.0046778388528157504  0.006483199115561852  0.9998788091799321  1.0000
  Ge  Ge31      1.0  0.004638874320980725  0.0013723675744454977  0.999587061038978  1.0000
  Ge  Ge32      1.0  0.009638874588191352  0.008872367058537002  0.9997313052307127  1.0000
