data_image0
_chemical_formula_structural       HV6Si2V6Si2
_chemical_formula_sum              "H1 V12 Si4"
_cell_length_a       4.712306976318359
_cell_length_b       4.712306976318359
_cell_length_c       102.98615264892578
_cell_angle_alpha    90.0
_cell_angle_beta     90.0
_cell_angle_gamma    90.0

_space_group_name_H-M_alt    "P 1"
_space_group_IT_number       1

loop_
  _space_group_symop_operation_xyz
  'x, y, z'

loop_
  _atom_site_type_symbol
  _atom_site_label
  _atom_site_symmetry_multiplicity
  _atom_site_fract_x
  _atom_site_fract_y
  _atom_site_fract_z
  _atom_site_occupancy
  H   H1        1.0  0.008750000094865389  0.001250000027669072  0.00023402425184654323  1.0000
  V   V1        1.0  0.008750000094865389  0.001250000027669072  0.00011439148397674694  1.0000
  V   V2        1.0  0.008750000094865389  0.001250000027669072  0.9998856079372596  1.0000
  V   V3        1.0  0.006250000237163473  0.006250000237163473  0.9997712164532828  1.0000
  V   V4        1.0  0.001250000027669072  0.006250000237163473  0.9997712164532828  1.0000
  V   V5        1.0  0.0037499999841891017  0.008750000094865389  0.0  1.0000
  V   V6        1.0  0.0037499999841891017  0.0037499999841891017  0.0  1.0000
  Si  Si1       1.0  0.0037499999841891017  0.001250000027669072  0.9997712164532828  1.0000
  Si  Si2       1.0  0.008750000094865389  0.006250000237163473  0.0  1.0000
  V   V7        1.0  0.008750000094865389  0.001250000027669072  0.9996568243905424  1.0000
  V   V8        1.0  0.008750000094865389  0.001250000027669072  0.999428041133207  1.0000
  V   V9        1.0  0.006250000237163473  0.006250000237163473  0.9993136493598485  1.0000
  V   V10       1.0  0.001250000027669072  0.006250000237163473  0.9993136493598485  1.0000
  V   V11       1.0  0.0037499999841891017  0.008750000094865389  0.9995424329065656  1.0000
  V   V12       1.0  0.0037499999841891017  0.0037499999841891017  0.9995424329065656  1.0000
  Si  Si3       1.0  0.0037499999841891017  0.001250000027669072  0.9993136493598485  1.0000
  Si  Si4       1.0  0.008750000094865389  0.006250000237163473  0.9995424329065656  1.0000
