data_image0
_chemical_formula_structural       Ir24Si8H
_chemical_formula_sum              "Ir24 Si8 H1"
_cell_length_a       5.507897189690508
_cell_length_b       7.492395401000977
_cell_length_c       103.0473861694336
_cell_angle_alpha    90.0
_cell_angle_beta     94.2892277720763
_cell_angle_gamma    90.0

_space_group_name_H-M_alt    "P 1"
_space_group_IT_number       1

loop_
  _space_group_symop_operation_xyz
  'x, y, z'

loop_
  _atom_site_type_symbol
  _atom_site_label
  _atom_site_symmetry_multiplicity
  _atom_site_fract_x
  _atom_site_fract_y
  _atom_site_fract_z
  _atom_site_occupancy
  Ir  Ir1       1.0  0.00282575524696216  0.005000001054084176  0.9993638308041878  1.0000
  Ir  Ir2       1.0  0.007825755118093898  8.000000204829684e-10  0.9996310814073022  1.0000
  Ir  Ir3       1.0  0.007825755118093898  8.000000204829684e-10  0.9990965801884746  1.0000
  Ir  Ir4       1.0  0.002928535655129562  0.005042312589561356  0.9999054924784501  1.0000
  Ir  Ir5       1.0  0.007825755118093898  0.005000001054084176  0.9996310814073022  1.0000
  Ir  Ir6       1.0  0.0029285112379852456  0.009957688583853104  0.9999054912240004  1.0000
  Ir  Ir7       1.0  0.00282575524696216  8.000000204829684e-10  0.9993638308041878  1.0000
  Ir  Ir8       1.0  0.007825755118093898  0.005000001054084176  0.9990965801884746  1.0000
  Ir  Ir9       1.0  0.009674244854775941  0.007500000835311989  0.9994626330614201  1.0000
  Ir  Ir10      1.0  0.0046742448140807006  0.0025000007756468463  0.9997298836764554  1.0000
  Ir  Ir11      1.0  0.0046742448140807006  0.0025000007756468463  0.999195382168418  1.0000
  Ir  Ir12      1.0  0.009596249713288464  0.007500005807407158  0.9999906510370095  1.0000
  Ir  Ir13      1.0  0.007950857035254276  0.0043598970023723494  0.9999018313755255  1.0000
  Ir  Ir14      1.0  0.00282575524696216  0.009348490578508126  0.9990965803393789  1.0000
  Ir  Ir15      1.0  0.00282575524696216  0.009348490578508126  0.9996310818474163  1.0000
  Ir  Ir16      1.0  0.007825755118093898  0.004348490518842983  0.9993638309424934  1.0000
  Ir  Ir17      1.0  0.00282575524696216  0.005651511589325369  0.9996310818474163  1.0000
  Ir  Ir18      1.0  0.007950830583347933  0.0006400919322298496  0.9999018312697812  1.0000
  Ir  Ir19      1.0  0.007825755118093898  0.0006515112810554678  0.9993638309424934  1.0000
  Ir  Ir20      1.0  0.00282575524696216  0.005651511589325369  0.9990965803393789  1.0000
  Ir  Ir21      1.0  0.0009772657646253701  0.0025000007756468463  0.9995322794402964  1.0000
  Ir  Ir22      1.0  0.0060113184804314705  0.007499995863216819  0.9997934212641651  1.0000
  Ir  Ir23      1.0  0.005977266059665864  0.007500000835311989  0.9992650288262779  1.0000
  Ir  Ir24      1.0  0.001172721359264876  0.0024999913286660237  5.357437694565176e-05  1.0000
  Si  Si1       1.0  0.00532575526730978  0.007500000835311989  0.9994974565398987  1.0000
  Si  Si2       1.0  0.00032575524780997745  0.0025000007756468463  0.9997647071550188  1.0000
  Si  Si3       1.0  0.00032575524780997745  0.0025000007756468463  0.9992302056469813  1.0000
  Si  Si4       1.0  0.00504098184354171  0.007500006304616676  1.5024150091871314e-05  1.0000
  Si  Si5       1.0  0.00532575526730978  0.0025000007756468463  0.9994974565398987  1.0000
  Si  Si6       1.0  0.00032575524780997745  0.007500000835311989  0.9997647071550188  1.0000
  Si  Si7       1.0  0.00032575524780997745  0.007500000835311989  0.9992302056469813  1.0000
  Si  Si8       1.0  0.005344079655865419  0.002500002515880156  2.136350585151677e-05  1.0000
  H   H1        1.0  0.005677699237711947  0.00999999912491125  5.295663583168644e-05  1.0000
