data_image0
_chemical_formula_structural       HSi12Pd12Si12Pd12
_chemical_formula_sum              "H1 Si24 Pd24"
_cell_length_a       6.9846696853637695
_cell_length_b       13.641136113050486
_cell_length_c       103.5851821899414
_cell_angle_alpha    66.81910721134221
_cell_angle_beta     90.0
_cell_angle_gamma    90.0

_space_group_name_H-M_alt    "P 1"
_space_group_IT_number       1

loop_
  _space_group_symop_operation_xyz
  'x, y, z'

loop_
  _atom_site_type_symbol
  _atom_site_label
  _atom_site_symmetry_multiplicity
  _atom_site_fract_x
  _atom_site_fract_y
  _atom_site_fract_z
  _atom_site_occupancy
  H   H1        1.0  0.003749999882662473  0.0033741681482141158  0.9998250903601321  1.0000
  Si  Si1       1.0  0.003749999882662473  0.008680580840053184  0.9989476262125281  1.0000
  Si  Si2       1.0  0.003749999882662473  0.005320265955861053  0.9994845391326798  1.0000
  Si  Si3       1.0  0.003749999882662473  0.0020139143952035204  0.9992178162016019  1.0000
  Si  Si4       1.0  0.0012500001386716224  0.004673309138421947  0.9997059604753415  1.0000
  Si  Si5       1.0  0.0012499996053192285  0.001222755235540377  0.9994685877260587  1.0000
  Si  Si6       1.0  0.0012499998719954254  0.007986085272070976  0.9991787782242748  1.0000
  Si  Si7       1.0  0.003749999882662473  0.005834824165408457  0.9991222428095027  1.0000
  Si  Si8       1.0  0.003749999882662473  0.0024069991279074407  0.9996624723286918  1.0000
  Si  Si9       1.0  0.003749999882662473  0.00916815738783329  0.9993924322173909  1.0000
  Si  Si10      1.0  0.0012499998719954254  0.007464901071771591  0.9995547728710311  1.0000
  Si  Si11      1.0  0.0012499998719954254  0.0041651755018660384  0.9992743516163739  1.0000
  Si  Si12      1.0  0.0012499998719954254  0.0008318422794412067  0.999004161633069  1.0000
  Pd  Pd1       1.0  0.00375000014933867  0.005992180751019642  0.999674043346601  1.0000
  Pd  Pd2       1.0  0.003749999882662473  0.0027105192052202993  0.9994145739679224  1.0000
  Pd  Pd3       1.0  0.003749999882662473  0.009377185650069963  0.9991443839788487  1.0000
  Pd  Pd4       1.0  0.0012499998719954254  0.007289480462054196  0.9989820204579541  1.0000
  Pd  Pd5       1.0  0.0012499998719954254  0.003849428802046729  0.9995335203569209  1.0000
  Pd  Pd6       1.0  0.0012499998719954254  0.000622814091473618  0.9992522098677613  1.0000
  Pd  Pd7       1.0  0.003749999882662473  0.003984354044234772  0.9991125425695023  1.0000
  Pd  Pd8       1.0  0.003749999349310079  0.0006821471441751704  0.9996465998097321  1.0000
  Pd  Pd9       1.0  0.003749999882662473  0.007317687266659604  0.9993827319773905  1.0000
  Pd  Pd10      1.0  0.0012499998719954254  0.009264463002521033  0.9995489858806426  1.0000
  Pd  Pd11      1.0  0.0012499998719954254  0.006015645623039723  0.9992840518563743  1.0000
  Pd  Pd12      1.0  0.0012499998719954254  0.0026823124006148916  0.9990138618730694  1.0000
  Si  Si13      1.0  0.008749999637320371  0.008680580840053184  0.9989476262125281  1.0000
  Si  Si14      1.0  0.008749999637320371  0.005320265955861053  0.9994845391326798  1.0000
  Si  Si15      1.0  0.008749999637320371  0.0020139143952035204  0.9992178162016019  1.0000
  Si  Si16      1.0  0.006249999893329521  0.004673309138421947  0.9997059604753415  1.0000
  Si  Si17      1.0  0.006249999359977127  0.001222755235540377  0.9994685877260587  1.0000
  Si  Si18      1.0  0.006249999893329521  0.007986085272070976  0.9991787782242748  1.0000
  Si  Si19      1.0  0.008749999637320371  0.005834824165408457  0.9991222428095027  1.0000
  Si  Si20      1.0  0.008749999637320371  0.0024069991279074407  0.9996624723286918  1.0000
  Si  Si21      1.0  0.008749999637320371  0.00916815738783329  0.9993924322173909  1.0000
  Si  Si22      1.0  0.006249999893329521  0.007464901071771591  0.9995547728710311  1.0000
  Si  Si23      1.0  0.006249999893329521  0.0041651755018660384  0.9992743516163739  1.0000
  Si  Si24      1.0  0.006249999893329521  0.0008318422794412067  0.999004161633069  1.0000
  Pd  Pd13      1.0  0.008750000170672767  0.005992180751019642  0.999674043346601  1.0000
  Pd  Pd14      1.0  0.008749999637320371  0.0027105192052202993  0.9994145739679224  1.0000
  Pd  Pd15      1.0  0.008749999637320371  0.009377185650069963  0.9991443839788487  1.0000
  Pd  Pd16      1.0  0.006249999893329521  0.007289480462054196  0.9989820204579541  1.0000
  Pd  Pd17      1.0  0.006249999893329521  0.003849428802046729  0.9995335203569209  1.0000
  Pd  Pd18      1.0  0.006249999893329521  0.000622814091473618  0.9992522098677613  1.0000
  Pd  Pd19      1.0  0.008749999637320371  0.003984354044234772  0.9991125425695023  1.0000
  Pd  Pd20      1.0  0.008749999103967978  0.0006821471441751704  0.9996465998097321  1.0000
  Pd  Pd21      1.0  0.008749999637320371  0.007317687266659604  0.9993827319773905  1.0000
  Pd  Pd22      1.0  0.006249999893329521  0.009264463002521033  0.9995489858806426  1.0000
  Pd  Pd23      1.0  0.006249999893329521  0.006015645623039723  0.9992840518563743  1.0000
  Pd  Pd24      1.0  0.006249999893329521  0.0026823124006148916  0.9990138618730694  1.0000
