data_image0
_chemical_formula_structural       HGa2Ir2Ga2Ir2Ga2Ir2Ga2Ir2Ga2Ir2Ga2Ir2Ga2Ir2Ga2Ir2
_chemical_formula_sum              "H1 Ga16 Ir16"
_cell_length_a       6.146298885345459
_cell_length_b       8.692179679870605
_cell_length_c       100.4226303100586
_cell_angle_alpha    90.0
_cell_angle_beta     90.0
_cell_angle_gamma    90.0

_space_group_name_H-M_alt    "P 1"
_space_group_IT_number       1

loop_
  _space_group_symop_operation_xyz
  'x, y, z'

loop_
  _atom_site_type_symbol
  _atom_site_label
  _atom_site_symmetry_multiplicity
  _atom_site_fract_x
  _atom_site_fract_y
  _atom_site_fract_z
  _atom_site_occupancy
  H   H1        1.0  0.0037500014910134224  0.004999999537134105  0.00012268667386636147  1.0000
  Ga  Ga1       1.0  0.0012499994363241941  0.0025000001971465847  0.9993363515372539  1.0000
  Ga  Ga2       1.0  0.0012499994363241941  2.499999925452169e-10  0.9995527415352937  1.0000
  Ir  Ir1       1.0  0.0037499993696528625  0.0025000001971465847  0.9995527415352937  1.0000
  Ir  Ir2       1.0  0.0037499993696528625  2.499999925452169e-10  0.9993363515372539  1.0000
  Ga  Ga3       1.0  0.0012500003454787199  0.0025000004114363508  0.9997684762674077  1.0000
  Ga  Ga4       1.0  0.001250001481921877  0.00999999907426821  0.0  1.0000
  Ir  Ir3       1.0  0.003750000581858897  0.0024999999828568186  0.9999711950084691  1.0000
  Ir  Ir4       1.0  0.003750000581858897  3.499999742361052e-10  0.9997585321321517  1.0000
  Ga  Ga5       1.0  0.0012499994363241941  0.007499999519990924  0.9993363515372539  1.0000
  Ga  Ga6       1.0  0.0012499994363241941  0.004999999965713637  0.9995527415352937  1.0000
  Ir  Ir5       1.0  0.0037499993696528625  0.007499999519990924  0.9995527415352937  1.0000
  Ir  Ir6       1.0  0.0037499993696528625  0.004999999965713637  0.9993363515372539  1.0000
  Ga  Ga7       1.0  0.0012500003454787199  0.007500000377149988  0.9997684762674077  1.0000
  Ga  Ga8       1.0  0.001250001481921877  0.004999999537134105  0.0  1.0000
  Ir  Ir7       1.0  0.003750000581858897  0.007499999519990924  0.9999711950084691  1.0000
  Ir  Ir8       1.0  0.003750000581858897  0.004999999965713637  0.9997585321321517  1.0000
  Ga  Ga9       1.0  0.0062499997575587935  0.0025000001971465847  0.9993363515372539  1.0000
  Ga  Ga10      1.0  0.0062499997575587935  2.499999925452169e-10  0.9995527415352937  1.0000
  Ir  Ir9       1.0  0.008749999539361708  0.0025000001971465847  0.9995527415352937  1.0000
  Ir  Ir10      1.0  0.008749999539361708  2.499999925452169e-10  0.9993363515372539  1.0000
  Ga  Ga11      1.0  0.006250000363661811  0.0025000004114363508  0.9997684762674077  1.0000
  Ga  Ga12      1.0  0.0062500015758678445  0.00999999907426821  0.0  1.0000
  Ir  Ir11      1.0  0.008750000751567741  0.0024999999828568186  0.9999711950084691  1.0000
  Ir  Ir12      1.0  0.008750000751567741  3.499999742361052e-10  0.9997585321321517  1.0000
  Ga  Ga13      1.0  0.0062499997575587935  0.007499999519990924  0.9993363515372539  1.0000
  Ga  Ga14      1.0  0.0062499997575587935  0.004999999965713637  0.9995527415352937  1.0000
  Ir  Ir13      1.0  0.008749999539361708  0.007499999519990924  0.9995527415352937  1.0000
  Ir  Ir14      1.0  0.008749999539361708  0.004999999965713637  0.9993363515372539  1.0000
  Ga  Ga15      1.0  0.006250000363661811  0.007500000377149988  0.9997684762674077  1.0000
  Ga  Ga16      1.0  0.0062500015758678445  0.004999999537134105  0.0  1.0000
  Ir  Ir15      1.0  0.008750000751567741  0.007499999519990924  0.9999711950084691  1.0000
  Ir  Ir16      1.0  0.008750000751567741  0.004999999965713637  0.9997585321321517  1.0000
