data_image0
_chemical_formula_structural       COAg16Al8
_chemical_formula_sum              "C1 O1 Ag16 Al8"
_cell_length_a       5.114678656752038
_cell_length_b       6.89222088642456
_cell_length_c       31.496034622192383
_cell_angle_alpha    93.22809726156189
_cell_angle_beta     90.3829433041872
_cell_angle_gamma    68.60323990877028

_space_group_name_H-M_alt    "P 1"
_space_group_IT_number       1

loop_
  _space_group_symop_operation_xyz
  'x, y, z'

loop_
  _atom_site_type_symbol
  _atom_site_label
  _atom_site_symmetry_multiplicity
  _atom_site_fract_x
  _atom_site_fract_y
  _atom_site_fract_z
  _atom_site_occupancy
  C   C1        1.0  0.004165927881413687  0.002578935530221066  0.00036709099284018315  1.0000
  O   O1        1.0  0.004165927881413687  0.002578935530221066  0.0007480911619191624  1.0000
  Ag  Ag1       1.0  0.0061728996037930415  0.005319889299346853  0.9999172003466024  1.0000
  Ag  Ag2       1.0  0.0037381770281891703  0.0004626175682261435  0.9989163508458136  1.0000
  Ag  Ag3       1.0  0.009373874521411524  0.008852417809765405  0.9985882723166197  1.0000
  Ag  Ag4       1.0  0.001834401398008649  0.0038332887313379175  0.9996128215989493  1.0000
  Ag  Ag5       1.0  0.004080658925140278  0.006147581097029429  0.9990559126274938  1.0000
  Ag  Ag6       1.0  0.006605922965974472  0.0010117093368057376  1.963650978995719e-05  1.0000
  Ag  Ag7       1.0  0.009716356200362325  0.00453738234600377  0.9987278339496193  1.0000
  Ag  Ag8       1.0  0.002326327686155419  0.009428380510423912  0.999742512875898  1.0000
  Ag  Ag9       1.0  0.001238177350777264  0.005462617119023489  0.9978975993170649  1.0000
  Ag  Ag10      1.0  0.008738176547465613  0.0004626175682261435  0.9968788475001041  1.0000
  Ag  Ag11      1.0  0.004373874637950569  0.008852417809765405  0.9965507688722048  1.0000
  Ag  Ag12      1.0  0.006873873897630285  0.00385241836799783  0.9975695206383998  1.0000
  Ag  Ag13      1.0  0.009080658808601235  0.006147581097029429  0.9970184090456234  1.0000
  Ag  Ag14      1.0  0.0015806590654265146  0.0011475815825753406  0.9980371609492076  1.0000
  Ag  Ag15      1.0  0.0047163563169013685  0.00453738234600377  0.9966903305052044  1.0000
  Ag  Ag16      1.0  0.007216356212313583  0.009537381787771346  0.9977090824191899  1.0000
  Al  Al1       1.0  0.007935813715294004  0.0020819356782829125  0.9992550683453668  1.0000
  Al  Al2       1.0  0.0052836433922301375  0.007112753329595905  0.9982338148018125  1.0000
  Al  Al3       1.0  0.00828857584184388  0.007755977222516803  0.9994318073453594  1.0000
  Al  Al4       1.0  0.005670890016115645  0.002887246426177409  0.9983916179951872  1.0000
  Al  Al5       1.0  0.00278364334682412  0.002112753451709248  0.9972150633554023  1.0000
  Al  Al6       1.0  0.00028364350876918166  0.007112753329595905  0.9961963115939537  1.0000
  Al  Al7       1.0  0.0031708898852730975  0.007887246158691038  0.9973728664681856  1.0000
  Al  Al8       1.0  0.0006708899505624326  0.002887246426177409  0.9963541147871308  1.0000
