data_image0
_chemical_formula_structural       HTi6Ir2Ti6Ir2
_chemical_formula_sum              "H1 Ti12 Ir4"
_cell_length_a       5.030898571014404
_cell_length_b       5.030898571014404
_cell_length_c       100.18538665771484
_cell_angle_alpha    90.0
_cell_angle_beta     90.0
_cell_angle_gamma    90.0

_space_group_name_H-M_alt    "P 1"
_space_group_IT_number       1

loop_
  _space_group_symop_operation_xyz
  'x, y, z'

loop_
  _atom_site_type_symbol
  _atom_site_label
  _atom_site_symmetry_multiplicity
  _atom_site_fract_x
  _atom_site_fract_y
  _atom_site_fract_z
  _atom_site_occupancy
  H   H1        1.0  0.0037494655052163588  0.005000000547956749  0.00011399831428232223  1.0000
  Ti  Ti1       1.0  0.0037494655052163588  0.0024714189610711623  0.9999910211126696  1.0000
  Ti  Ti2       1.0  0.003749465875457405  0.007528582134842334  0.9999910217076131  1.0000
  Ti  Ti3       1.0  0.008749657838034932  1.1599999382746494e-08  0.00012013158684320808  1.0000
  Ti  Ti4       1.0  0.008749583049343642  0.009999998133985128  0.9998810065400758  1.0000
  Ti  Ti5       1.0  0.0062499998519035815  0.005000000918197794  0.9997486084081109  1.0000
  Ti  Ti6       1.0  0.001249999951868664  0.005000000918197794  0.9997486084081109  1.0000
  Ir  Ir1       1.0  0.008749352759413033  0.005000003509885116  0.0  1.0000
  Ir  Ir2       1.0  0.0037499997630457307  1.1999999331023151e-09  0.9997486084081109  1.0000
  Ti  Ti7       1.0  0.0037499997630457307  0.0025000011995809893  0.9994975288640886  1.0000
  Ti  Ti8       1.0  0.0037499997630457307  0.007500001007055645  0.9994975288640886  1.0000
  Ti  Ti9       1.0  0.008749999940761434  1.1999999331023151e-09  0.9996230687848356  1.0000
  Ti  Ti10      1.0  0.008749999940761434  1.1999999331023151e-09  0.9993719892408133  1.0000
  Ti  Ti11      1.0  0.0062499998519035815  0.005000000918197794  0.999246449617538  1.0000
  Ti  Ti12      1.0  0.001249999951868664  0.005000000918197794  0.999246449617538  1.0000
  Ir  Ir3       1.0  0.008749999940761434  0.005000000918197794  0.9994975288640886  1.0000
  Ir  Ir4       1.0  0.0037499997630457307  1.1999999331023151e-09  0.999246449617538  1.0000
