data_image0
_chemical_formula_structural       HRh12Pb12
_chemical_formula_sum              "H1 Rh12 Pb12"
_cell_length_a       10.021976470947266
_cell_length_b       7.351110050552778
_cell_length_c       99.4044418334961
_cell_angle_alpha    103.83398434200814
_cell_angle_beta     90.0
_cell_angle_gamma    90.0

_space_group_name_H-M_alt    "P 1"
_space_group_IT_number       1

loop_
  _space_group_symop_operation_xyz
  'x, y, z'

loop_
  _atom_site_type_symbol
  _atom_site_label
  _atom_site_symmetry_multiplicity
  _atom_site_fract_x
  _atom_site_fract_y
  _atom_site_fract_z
  _atom_site_occupancy
  H   H1        1.0  0.009999992476546333  0.004482783063109693  0.00020106894910007964  1.0000
  Rh  Rh1       1.0  0.0024946770598847407  0.004417951530795956  0.9997919071279938  1.0000
  Rh  Rh2       1.0  0.0025000074119400266  0.009374999373714277  0.9994152742184934  1.0000
  Rh  Rh3       1.0  0.0074939910205290726  0.0018036581284354696  0.9999608061424529  1.0000
  Rh  Rh4       1.0  0.0075000075531906395  0.006874999853866665  0.9996001530313794  1.0000
  Rh  Rh5       1.0  0.0025000074119400266  0.006874999853866665  0.9996001530313794  1.0000
  Rh  Rh6       1.0  0.002506076727725153  0.0018036439065305134  0.999960807090209  1.0000
  Rh  Rh7       1.0  0.007505356490852813  0.004418009984130087  0.999791913558153  1.0000
  Rh  Rh8       1.0  0.0075000075531906395  0.009374999373714277  0.9994152742184934  1.0000
  Rh  Rh9       1.0  7.449999938505527e-09  0.008124999874742855  0.9995077136295507  1.0000
  Rh  Rh10      1.0  1.3049999468794025e-08  0.003248832396738344  0.9998646812629437  1.0000
  Rh  Rh11      1.0  0.005000007389637299  0.005624999832990474  0.9996925924332081  1.0000
  Rh  Rh12      1.0  0.00500005162338169  0.0007231072122537763  1.278634846333446e-05  1.0000
  Pb  Pb1       1.0  0.0016503303370083789  0.0054121404510366145  8.24228815953593e-05  1.0000
  Pb  Pb2       1.0  0.0016666741479929592  0.0006250000104380954  0.99969259230443  1.0000
  Pb  Pb3       1.0  0.006666674289243572  0.003125000052190477  0.9995077135007726  1.0000
  Pb  Pb4       1.0  0.006728092285763442  0.008057245153817777  0.9998846793349164  1.0000
  Pb  Pb5       1.0  0.003333340861743163  0.003125000052190477  0.9995077135007726  1.0000
  Pb  Pb6       1.0  0.0032719949773780156  0.008057268639532385  0.9998846767521151  1.0000
  Pb  Pb7       1.0  0.008333340817137706  0.0006250000104380954  0.99969259230443  1.0000
  Pb  Pb8       1.0  0.008349627012740937  0.005412217171037663  8.243922863529908e-05  1.0000
  Pb  Pb9       1.0  7.449999938505527e-09  0.005624999832990474  0.9996925924332081  1.0000
  Pb  Pb10      1.0  2.035000023647949e-08  0.0008833486120606531  5.0898314885750246e-05  1.0000
  Pb  Pb11      1.0  0.005000031179214114  0.0033804956613931294  0.9998762123292441  1.0000
  Pb  Pb12      1.0  0.005000007389637299  0.008124999874742855  0.9995077136295507  1.0000
