data_image0
_chemical_formula_structural       HAl12Rh6Ru6
_chemical_formula_sum              "H1 Al12 Rh6 Ru6"
_cell_length_a       6.03111457824707
_cell_length_b       7.386576847513238
_cell_length_c       102.47854614257812
_cell_angle_alpha    94.34775332830188
_cell_angle_beta     90.0
_cell_angle_gamma    114.09484186169105

_space_group_name_H-M_alt    "P 1"
_space_group_IT_number       1

loop_
  _space_group_symop_operation_xyz
  'x, y, z'

loop_
  _atom_site_type_symbol
  _atom_site_label
  _atom_site_symmetry_multiplicity
  _atom_site_fract_x
  _atom_site_fract_y
  _atom_site_fract_z
  _atom_site_occupancy
  H   H1        1.0  0.004314148582029588  0.003134863369043553  0.00011423890119922635  1.0000
  Al  Al1       1.0  0.0017953378127286478  0.008129710463339695  0.9994330982616708  1.0000
  Al  Al2       1.0  7.966204723660984e-05  0.004800084417967602  0.999954243674245  1.0000
  Al  Al3       1.0  0.005962004551341297  0.006463043582311417  0.9996972067480431  1.0000
  Al  Al4       1.0  0.0051805399544918715  0.00479974347213014  0.9999542255255568  1.0000
  Al  Al5       1.0  0.0009620045266341543  0.006463043582311417  0.9996972067480431  1.0000
  Al  Al6       1.0  0.006795337991855437  0.008129710463339695  0.9994330982616708  1.0000
  Al  Al7       1.0  0.0088786713905507  0.002296377211315937  0.9995651524448157  1.0000
  Al  Al8       1.0  0.004712004667761827  0.003963043815152476  0.9993010439569289  1.0000
  Al  Al9       1.0  0.0030657682211638893  0.0006202894146959413  0.9998304997995394  1.0000
  Al  Al10      1.0  0.00971200469246897  0.003963043815152476  0.9993010439569289  1.0000
  Al  Al11      1.0  0.008015419967439078  0.0006214245841600595  0.9998304920433307  1.0000
  Al  Al12      1.0  0.003878671365843557  0.002296377211315937  0.9995651524448157  1.0000
  Rh  Rh1       1.0  0.006998528237022821  0.0035354281598492104  0.9997565839933398  1.0000
  Rh  Rh2       1.0  0.002837004805091794  0.005213044114519554  0.9994991252093504  1.0000
  Rh  Rh3       1.0  0.0012333670240108423  0.002006859449942667  1.0966110463436395e-05  1.0000
  Rh  Rh4       1.0  0.009920338324135969  0.009379710485515034  0.9996311795125776  1.0000
  Rh  Rh5       1.0  0.00575367167594875  0.0010463771891405982  0.9993670709030936  1.0000
  Rh  Rh6       1.0  0.004074093019960427  0.007683535435233782  0.9998932908404706  1.0000
  Ru  Ru1       1.0  0.0019973153821835105  0.0035328965677081225  0.9997594748224833  1.0000
  Ru  Ru2       1.0  0.007837005138638227  0.005213044114519554  0.9994991252093504  1.0000
  Ru  Ru3       1.0  0.006207454825948177  0.001955819996670506  1.5092484023669603e-05  1.0000
  Ru  Ru4       1.0  0.0049203379519846225  0.009379710485515034  0.9996311795125776  1.0000
  Ru  Ru5       1.0  0.0007536714003096834  0.0010463771891405982  0.9993670709030936  1.0000
  Ru  Ru6       1.0  0.009086741043232588  0.007713110130503822  0.9998943749118187  1.0000
