data_image0
_chemical_formula_structural       COSi12W6Si12W6
_chemical_formula_sum              "C1 O1 Si24 W12"
_cell_length_a       8.010329246520996
_cell_length_b       8.112070459027452
_cell_length_c       102.37335968017578
_cell_angle_alpha    106.56211185046011
_cell_angle_beta     90.0
_cell_angle_gamma    60.41402444544573

_space_group_name_H-M_alt    "P 1"
_space_group_IT_number       1

loop_
  _space_group_symop_operation_xyz
  'x, y, z'

loop_
  _atom_site_type_symbol
  _atom_site_label
  _atom_site_symmetry_multiplicity
  _atom_site_fract_x
  _atom_site_fract_y
  _atom_site_fract_z
  _atom_site_occupancy
  C   C1        1.0  0.006298960494873972  0.006010574396074848  7.993311825836565e-05  1.0000
  O   O1        1.0  0.006298960494873972  0.006010574396074848  0.00019715076893955197  1.0000
  Si  Si1       1.0  0.009204672012937587  0.008513560810388295  0.9994049087854229  1.0000
  Si  Si2       1.0  0.004204671975732721  0.008513560810388295  0.9991790313635125  1.0000
  Si  Si3       1.0  0.008356136569615157  0.0018468941753962942  0.9995910796192043  1.0000
  Si  Si4       1.0  0.003356136532410291  0.0018468941753962942  0.9993652021972939  1.0000
  Si  Si5       1.0  0.0066894700156730404  0.0051802272832805266  0.9994446150904209  1.0000
  Si  Si6       1.0  0.001689469978468175  0.0051802272832805266  0.9992187376685105  1.0000
  Si  Si7       1.0  0.0024771975091344165  0.008513560810388295  0.9994049087854229  1.0000
  Si  Si8       1.0  0.007477198011400103  0.008513560810388295  0.9991790313635125  1.0000
  Si  Si9       1.0  0.009992399122388026  0.0018468941753962942  0.9993693226254248  1.0000
  Si  Si10      1.0  0.004992399085183161  0.0018468941753962942  0.9995952000473352  1.0000
  Si  Si11      1.0  0.008325732568445909  0.0051802272832805266  0.9992146172403796  1.0000
  Si  Si12      1.0  0.0033257325312410447  0.0051802272832805266  0.9994404946622901  1.0000
  W   W1        1.0  0.005007601273457043  0.0051802272832805266  0.9992166774544451  1.0000
  W   W2        1.0  7.601003721766302e-06  0.0051802272832805266  0.9994425548763556  1.0000
  W   W3        1.0  0.0016742677901942931  0.0018468941753962942  0.9995931398332698  1.0000
  W   W4        1.0  0.006674267827399158  0.0018468941753962942  0.9993672624113593  1.0000
  W   W5        1.0  0.005840934528505591  0.008513560810388295  0.9994049087854229  1.0000
  W   W6        1.0  0.0008409344913007254  0.008513560810388295  0.9991790313635125  1.0000
  Si  Si13      1.0  0.009070784610162787  0.008507405490961692  0.9998792300340803  1.0000
  Si  Si14      1.0  0.004204671975732721  0.008513560810388295  0.9996307862073334  1.0000
  Si  Si15      1.0  0.008690002404511774  0.001486439351711473  4.51133210138729e-05  1.0000
  Si  Si16      1.0  0.003411284566436487  0.0018337688454729618  0.999816118806332  1.0000
  Si  Si17      1.0  0.006724907537161825  0.00515868031149914  0.9999008487690141  1.0000
  Si  Si18      1.0  0.001689469978468175  0.0051802272832805266  0.9996704925123314  1.0000
  Si  Si19      1.0  0.002565775084450484  0.008460448542262956  0.9998745025102281  1.0000
  Si  Si20      1.0  0.007477198011400103  0.008513560810388295  0.9996307862073334  1.0000
  Si  Si21      1.0  0.009913888402403105  0.001795573948142885  0.9998298554390194  1.0000
  Si  Si22      1.0  0.005063223556841598  0.0017122592793866263  3.867606917315905e-05  1.0000
  Si  Si23      1.0  0.008325732568445909  0.0051802272832805266  0.9996663720842006  1.0000
  Si  Si24      1.0  0.0031969330116075373  0.005181387135061329  0.9999016667523788  1.0000
  W   W7        1.0  0.005007601273457043  0.0051802272832805266  0.999668432298266  1.0000
  W   W8        1.0  8.555295911221998e-05  0.004946904232513008  0.9998811275821344  1.0000
  W   W9        1.0  0.0017775925100145737  0.0018402543733041458  2.2588300443472555e-05  1.0000
  W   W10       1.0  0.00662736101910108  0.0018780361957108427  0.999820099713551  1.0000
  W   W11       1.0  0.005886061488091364  0.008406555400432662  0.9998491314539477  1.0000
  W   W12       1.0  0.0008409344913007254  0.008513560810388295  0.9996307862073334  1.0000
