data_image0
_chemical_formula_structural       HIn3Ag9
_chemical_formula_sum              "H1 In3 Ag9"
_cell_length_a       6.0791521072387695
_cell_length_b       6.079151914612732
_cell_length_c       99.7816390991211
_cell_angle_alpha    90.0
_cell_angle_beta     90.0
_cell_angle_gamma    59.9999989518245

_space_group_name_H-M_alt    "P 1"
_space_group_IT_number       1

loop_
  _space_group_symop_operation_xyz
  'x, y, z'

loop_
  _atom_site_type_symbol
  _atom_site_label
  _atom_site_symmetry_multiplicity
  _atom_site_fract_x
  _atom_site_fract_y
  _atom_site_fract_z
  _atom_site_occupancy
  H   H1        1.0  0.0025259746641146455  0.009991340219517001  0.00013364709289136076  1.0000
  In  In1       1.0  0.006683982684759263  0.006675323050680037  0.9995033831298683  1.0000
  In  In2       1.0  1.731970098292937e-05  8.659800024860105e-06  2.0344574513790833e-05  1.0000
  In  In3       1.0  0.0033506417985209452  0.0033419831791426696  0.9997537185256327  1.0000
  Ag  Ag1       1.0  0.00836511510487818  0.008356456640080008  0.9997537722872072  1.0000
  Ag  Ag2       1.0  0.0016839824234062828  0.0016753229728442742  0.9995033831298683  1.0000
  Ag  Ag3       1.0  0.005034649227893502  0.00502598820057394  0.9999999994026492  1.0000
  Ag  Ag4       1.0  0.008365107683203477  0.0033130240299773317  0.9997537716898564  1.0000
  Ag  Ag5       1.0  0.001683982586711635  0.006675323050680037  0.9995033831298683  1.0000
  Ag  Ag6       1.0  0.005034629393112634  0.009974021054805797  0.0  1.0000
  Ag  Ag7       1.0  0.003321682927371344  0.008356448148905939  0.9997537716898564  1.0000
  Ag  Ag8       1.0  0.00668398267465333  0.0016753229728442742  0.9995033831298683  1.0000
  Ag  Ag9       1.0  0.009982680235926961  0.005025970156829041  0.0  1.0000
