data_image0
_chemical_formula_structural       COAl8Cu24
_chemical_formula_sum              "C1 O1 Al8 Cu24"
_cell_length_a       9.737793627612275
_cell_length_b       6.786583941211841
_cell_length_c       102.74077606201172
_cell_angle_alpha    80.5554828090901
_cell_angle_beta     101.58219109215192
_cell_angle_gamma    56.01312215023372

_space_group_name_H-M_alt    "P 1"
_space_group_IT_number       1

loop_
  _space_group_symop_operation_xyz
  'x, y, z'

loop_
  _atom_site_type_symbol
  _atom_site_label
  _atom_site_symmetry_multiplicity
  _atom_site_fract_x
  _atom_site_fract_y
  _atom_site_fract_z
  _atom_site_occupancy
  C   C1        1.0  0.004330446425431633  0.0065252503442964835  9.387742994152777e-05  1.0000
  O   O1        1.0  0.004330446425431633  0.0065252503442964835  0.0002106758927719761  1.0000
  Al  Al1       1.0  0.0008252062961341726  0.00410674418473936  0.9996050870837625  1.0000
  Al  Al2       1.0  0.008334007957896194  0.0016739914853585122  0.9998156919459545  1.0000
  Al  Al3       1.0  0.003325206137391923  0.00660674422697949  0.9994059160266928  1.0000
  Al  Al4       1.0  0.005825205827332736  0.009106744621220703  0.9992067449629283  1.0000
  Al  Al5       1.0  0.006659541425261361  0.008272409126724625  0.9996715569549821  1.0000
  Al  Al6       1.0  0.004201311111771548  0.005715296204799794  0.9998717952794299  1.0000
  Al  Al7       1.0  0.009159541367948304  0.0007724088240036939  0.9994723859848021  1.0000
  Al  Al8       1.0  0.0016595415474900017  0.003272409042244365  0.9992732150947029  1.0000
  Cu  Cu1       1.0  0.0095747368889218  0.007860584755913325  0.9997003928724195  1.0000
  Cu  Cu2       1.0  0.007042096657134759  0.005525842886023199  0.9998955349619856  1.0000
  Cu  Cu3       1.0  0.002080163245864508  0.0003517871541310577  0.9995058962173565  1.0000
  Cu  Cu4       1.0  0.0045801630492930245  0.0028517872843714584  0.9993067251586132  1.0000
  Cu  Cu5       1.0  0.007904584065535491  0.004527365766611726  0.9995715765553776  1.0000
  Cu  Cu6       1.0  0.005443517622291022  0.0020118194205496725  0.9997771454698707  1.0000
  Cu  Cu7       1.0  0.0004045849065032266  0.007027365808851855  0.9993724056797727  1.0000
  Cu  Cu8       1.0  0.0028166605950254355  0.009562196006232886  0.9999499527261392  1.0000
  Cu  Cu9       1.0  0.007693459322097074  0.008493439054633902  0.9994555653616755  1.0000
  Cu  Cu10      1.0  0.005193460022667974  0.0059934386603926896  0.9996547364328712  1.0000
  Cu  Cu11      1.0  0.00019346006923814693  0.000993438751912971  0.9992563942791715  1.0000
  Cu  Cu12      1.0  0.002708069538415475  0.003482965529936335  0.9998522339868599  1.0000
  Cu  Cu13      1.0  0.00644840811611309  0.002228594007369112  0.9995547568264511  1.0000
  Cu  Cu14      1.0  0.003999174899388003  0.009762863375504978  0.9997572232748845  1.0000
  Cu  Cu15      1.0  0.008948407642517597  0.004728593873608701  0.9993555857652977  1.0000
  Cu  Cu16      1.0  0.0014204872320154414  0.007289696727806946  0.9999359343941128  1.0000
  Cu  Cu17      1.0  0.009806539114098017  0.0038738831484364574  0.9998242952994838  1.0000
  Cu  Cu18      1.0  0.007291287948842436  0.0013857142145899527  0.9992235655894024  1.0000
  Cu  Cu19      1.0  0.0022912878500444965  0.006385714299070213  0.9996219076125684  1.0000
  Cu  Cu20      1.0  0.004791287930497021  0.008885714693311425  0.999422736556235  1.0000
  Cu  Cu21      1.0  0.008560037362714188  0.0076991120032076366  0.9999063050918183  1.0000
  Cu  Cu22      1.0  0.0060363396284219125  0.005150559395615155  0.9993235451857801  1.0000
  Cu  Cu23      1.0  0.0009782596586693363  0.00023713696945608322  0.9997138153411923  1.0000
  Cu  Cu24      1.0  0.0035363394723109177  0.0026505591773744834  0.9995227162387661  1.0000
