data_image0
_chemical_formula_structural       HCo6Re18Co6Re18
_chemical_formula_sum              "H1 Co12 Re36"
_cell_length_a       9.438572883605957
_cell_length_b       6.991137071503754
_cell_length_c       104.9556884765625
_cell_angle_alpha    84.91427362031301
_cell_angle_beta     90.0
_cell_angle_gamma    47.54286264699732

_space_group_name_H-M_alt    "P 1"
_space_group_IT_number       1

loop_
  _space_group_symop_operation_xyz
  'x, y, z'

loop_
  _atom_site_type_symbol
  _atom_site_label
  _atom_site_symmetry_multiplicity
  _atom_site_fract_x
  _atom_site_fract_y
  _atom_site_fract_z
  _atom_site_occupancy
  H   H1        1.0  0.005259008027432545  0.004541852475802752  3.541910142576466e-05  1.0000
  Co  Co1       1.0  0.007497598596776995  0.008333333430335264  0.999206092365584  1.0000
  Co  Co2       1.0  0.0008309314218414829  0.0016666667224427762  0.9989840576242693  1.0000
  Co  Co3       1.0  0.004164264561419047  0.004999999985449711  0.9987620230591763  1.0000
  Co  Co4       1.0  0.005830931217560703  0.004999999985449711  0.9990950748534879  1.0000
  Co  Co5       1.0  0.009164265252918653  0.008333333430335264  0.9988730402873209  1.0000
  Co  Co6       1.0  0.002497598275327078  0.0016666667224427762  0.9993171097025324  1.0000
  Re  Re1       1.0  0.007494505061429531  0.006669760281304354  0.9989838517536684  1.0000
  Re  Re2       1.0  0.0008278379230828819  3.0935002341421663e-06  0.9987618170127858  1.0000
  Re  Re3       1.0  0.004161171420759461  0.003336426836418802  0.9992058863198354  1.0000
  Re  Re4       1.0  0.00916426517540556  0.003330240053352303  0.999206298235111  1.0000
  Re  Re5       1.0  0.002497598089849934  0.006663573498237855  0.998984263668944  1.0000
  Re  Re6       1.0  0.005830931912398623  0.009996906579366173  0.998762229104925  1.0000
  Re  Re7       1.0  0.00083402520740779  0.004999999985449711  0.9990950748534879  1.0000
  Re  Re8       1.0  0.004167358058702106  0.008333333430335264  0.9988730402873209  1.0000
  Re  Re9       1.0  0.00750069141264835  0.0016666667224427762  0.9993171097025324  1.0000
  Re  Re10      1.0  0.005834024571029549  0.006663573498237855  0.9993173157472071  1.0000
  Re  Re11      1.0  0.009167358788266116  0.009996906579366173  0.9990952808992365  1.0000
  Re  Re12      1.0  0.002500691719735233  0.003330240053352303  0.9988732464407993  1.0000
  Re  Re13      1.0  0.0041642649962943135  3.0935002341421663e-06  0.9990948688070974  1.0000
  Re  Re14      1.0  0.0074975979019390755  0.003336426836418802  0.9988728342415724  1.0000
  Re  Re15      1.0  0.000830931605759207  0.006669760281304354  0.9993169032640286  1.0000
  Re  Re16      1.0  0.002494504275392091  0.008333333430335264  0.999206092365584  1.0000
  Re  Re17      1.0  0.005827837629338335  0.0016666667224427762  0.9989840576242693  1.0000
  Re  Re18      1.0  0.009161171755635591  0.004999999985449711  0.9987620230591763  1.0000
  Co  Co7       1.0  0.00746864871039324  0.008357026394131908  0.9998713194829794  1.0000
  Co  Co8       1.0  0.0008309314218414829  0.0016666667224427762  0.999650161496844  1.0000
  Co  Co9       1.0  0.004164264561419047  0.004999999985449711  0.9994281266477996  1.0000
  Co  Co10      1.0  0.0057985417906392086  0.005055947303344807  0.9997600808501208  1.0000
  Co  Co11      1.0  0.009164265252918653  0.008333333430335264  0.9995391441598956  1.0000
  Co  Co12      1.0  0.0023671228756539362  0.001738063537656801  0.9999647965698993  1.0000
  Re  Re19      1.0  0.007494505061429531  0.006669760281304354  0.9996499550583402  1.0000
  Re  Re20      1.0  0.0008278379230828819  3.0935002341421663e-06  0.9994279206014091  1.0000
  Re  Re21      1.0  0.004257460291006315  0.0032800819318649756  0.9998727229827965  1.0000
  Re  Re22      1.0  0.009212874695659255  0.003318620919726356  0.9998700596838422  1.0000
  Re  Re23      1.0  0.002497598089849934  0.006663573498237855  0.9996503675415187  1.0000
  Re  Re24      1.0  0.005830931912398623  0.009996906579366173  0.9994283326935481  1.0000
  Re  Re25      1.0  0.0007871254139752813  0.005080551479017132  0.999756064174145  1.0000
  Re  Re26      1.0  0.004167358058702106  0.008333333430335264  0.9995391441598956  1.0000
  Re  Re27      1.0  0.007459664554938782  0.001742388065554618  0.9999655223702277  1.0000
  Re  Re28      1.0  0.005854136715686096  0.006616461116085888  0.9999609314294899  1.0000
  Re  Re29      1.0  0.009136402105782046  8.327960463144559e-05  0.9997614348206137  1.0000
  Re  Re30      1.0  0.002500691719735233  0.003330240053352303  0.9995393500294225  1.0000
  Re  Re31      1.0  0.004138574711726864  3.397240225796513e-05  0.9997604362598866  1.0000
  Re  Re32      1.0  0.0074975979019390755  0.003336426836418802  0.9995389381141471  1.0000
  Re  Re33      1.0  0.0008637936509710437  0.006481946600344663  0.9999651393691322  1.0000
  Re  Re34      1.0  0.002507081676405588  0.008165830498393742  0.9998765736945788  1.0000
  Re  Re35      1.0  0.005827837629338335  0.0016666667224427762  0.999650161496844  1.0000
  Re  Re36      1.0  0.009161171755635591  0.004999999985449711  0.9994281266477996  1.0000
