data_image0
_chemical_formula_structural       HGa8Os4
_chemical_formula_sum              "H1 Ga8 Os4"
_cell_length_a       4.806750774383545
_cell_length_b       5.0281810345332705
_cell_length_c       36.46394729614258
_cell_angle_alpha    90.0
_cell_angle_beta     90.0
_cell_angle_gamma    118.55362580022408

_space_group_name_H-M_alt    "P 1"
_space_group_IT_number       1

loop_
  _space_group_symop_operation_xyz
  'x, y, z'

loop_
  _atom_site_type_symbol
  _atom_site_label
  _atom_site_symmetry_multiplicity
  _atom_site_fract_x
  _atom_site_fract_y
  _atom_site_fract_z
  _atom_site_occupancy
  H   H1        1.0  0.007500055574572728  0.0074999077239537955  0.00024442819016079936  1.0000
  Ga  Ga1       1.0  0.009999990791401672  0.00500002268944829  0.9993848452258154  1.0000
  Ga  Ga2       1.0  0.005000001859836486  0.005000000759126523  0.9990399345812578  1.0000
  Ga  Ga3       1.0  0.004999990340652681  0.009999999831305218  0.9996312271938019  1.0000
  Ga  Ga4       1.0  0.009999997320765086  2.465000099345659e-08  0.0  1.0000
  Ga  Ga5       1.0  0.005000001859836486  0.005000000759126523  0.998266283922912  1.0000
  Ga  Ga6       1.0  0.009999991366511782  0.0050000129894982774  0.00012804007993153955  1.0000
  Ga  Ga7       1.0  1.9999999327908884e-09  6.500000197720345e-10  0.9984651193323851  1.0000
  Ga  Ga8       1.0  0.00500000173552214  6.500000197720345e-10  0.9988410991717845  1.0000
  Os  Os1       1.0  0.005000113058611277  0.00499979031238495  0.9998130928107646  1.0000
  Os  Os2       1.0  1.9999999327908884e-09  6.500000197720345e-10  0.9992279247052848  1.0000
  Os  Os3       1.0  2.1930917150754627e-09  0.005000000759126523  0.9986531094564122  1.0000
  Os  Os4       1.0  0.00500000173552214  6.500000197720345e-10  0.9980782942075396  1.0000
