data_image0
_chemical_formula_structural       HCu2Sn2Cu2Sn2Cu2Sn2Cu2Sn2
_chemical_formula_sum              "H1 Cu8 Sn8"
_cell_length_a       8.456920172484265
_cell_length_b       5.161495685577393
_cell_length_c       103.82768249511719
_cell_angle_alpha    90.0
_cell_angle_beta     119.99999803491431
_cell_angle_gamma    90.0

_space_group_name_H-M_alt    "P 1"
_space_group_IT_number       1

loop_
  _space_group_symop_operation_xyz
  'x, y, z'

loop_
  _atom_site_type_symbol
  _atom_site_label
  _atom_site_symmetry_multiplicity
  _atom_site_fract_x
  _atom_site_fract_y
  _atom_site_fract_z
  _atom_site_occupancy
  H   H1        1.0  0.005206595622581115  0.0025116209306443632  0.00028562426800699035  1.0000
  Cu  Cu1       1.0  0.0008333332934892484  1.1984900018361082e-05  0.9996213508757601  1.0000
  Cu  Cu2       1.0  0.0008333332934892484  0.005011984784595343  0.9996213508757601  1.0000
  Sn  Sn1       1.0  0.0041666665310272286  0.0025119848712048965  0.9997571033588462  1.0000
  Sn  Sn2       1.0  0.002500000071210705  0.007511985058858929  0.9994855983473698  1.0000
  Cu  Cu3       1.0  0.0008767353280759379  0.009988015056620477  3.570570036478485e-05  1.0000
  Cu  Cu4       1.0  0.0008768685938239371  0.005035871699402307  3.573007211304678e-05  1.0000
  Sn  Sn3       1.0  0.004024132201119475  0.0025116209306443632  0.00014115422700389327  1.0000
  Sn  Sn4       1.0  0.0026029458269485137  0.0075118905100965494  0.9999096125994285  1.0000
  Cu  Cu5       1.0  0.005833333245167698  1.1984900018361082e-05  0.9996213508278664  1.0000
  Cu  Cu6       1.0  0.005833333245167698  0.005011984784595343  0.9996213508278664  1.0000
  Sn  Sn5       1.0  0.009166666164800746  0.0025119848712048965  0.9997571032980055  1.0000
  Sn  Sn6       1.0  0.007499999959308169  0.007511985058858929  0.9994855982968867  1.0000
  Cu  Cu7       1.0  0.0058767351525924145  0.009988015056620477  3.570564729226627e-05  1.0000
  Cu  Cu8       1.0  0.005876868418340414  0.005035871699402307  3.573001904052819e-05  1.0000
  Sn  Sn7       1.0  0.009024131834892991  0.0025116209306443632  0.00014115416616322532  1.0000
  Sn  Sn8       1.0  0.007602945715045977  0.0075118905100965494  0.9999096128359817  1.0000
