data_image0
_chemical_formula_structural       COGa8Se12Ga8Se12
_chemical_formula_sum              "C1 O1 Ga16 Se24"
_cell_length_a       13.943770736702556
_cell_length_b       6.896188658246772
_cell_length_c       111.12410736083984
_cell_angle_alpha    71.43174881216935
_cell_angle_beta     119.4423055192025
_cell_angle_gamma    99.00526851388801

_space_group_name_H-M_alt    "P 1"
_space_group_IT_number       1

loop_
  _space_group_symop_operation_xyz
  'x, y, z'

loop_
  _atom_site_type_symbol
  _atom_site_label
  _atom_site_symmetry_multiplicity
  _atom_site_fract_x
  _atom_site_fract_y
  _atom_site_fract_z
  _atom_site_occupancy
  C   C1        1.0  0.0021407507541642045  0.009854547311583093  0.00010566938254165327  1.0000
  O   O1        1.0  0.0021407507541642045  0.009854547311583093  0.00021365697050696166  1.0000
  Ga  Ga1       1.0  0.007534372436738993  0.0003009722922858229  0.9996362233917104  1.0000
  Ga  Ga2       1.0  0.007113875162532935  0.005035152060962319  0.9999090652884559  1.0000
  Ga  Ga3       1.0  0.009172537722248767  0.004971310693599878  0.9997398255790972  1.0000
  Ga  Ga4       1.0  0.005929114891935822  0.00016865070479114402  0.9998504088613345  1.0000
  Ga  Ga5       1.0  0.00217902679517803  0.0049176931767404225  0.9999157929336553  1.0000
  Ga  Ga6       1.0  0.002511845461337503  0.0003009722922858229  0.999634834144821  1.0000
  Ga  Ga7       1.0  0.004245018479923982  2.8689099113705168e-05  6.777703858502862e-05  1.0000
  Ga  Ga8       1.0  0.0008736800224345714  0.004971310693599878  0.9995363551864961  1.0000
  Se  Se1       1.0  0.009243388794212179  0.006606525572233831  0.9995063429511443  1.0000
  Se  Se2       1.0  0.005802828760263647  0.00160652544116613  0.9996025273662424  1.0000
  Se  Se3       1.0  0.009159636744192403  0.001307750349292003  0.9998207689669031  1.0000
  Se  Se4       1.0  0.006031662512240038  0.006526932716562319  0.9999629215371453  1.0000
  Se  Se5       1.0  0.007450841886437583  0.006425151808765269  0.9997005566413373  1.0000
  Se  Se6       1.0  0.007490914314710256  0.0015358241043284674  3.0603457791285035e-05  1.0000
  Se  Se7       1.0  0.004212128532823564  0.0016002668159996582  0.9998087602095782  1.0000
  Se  Se8       1.0  0.0007566111321591065  0.00627921248307198  0.9999225801771511  1.0000
  Se  Se9       1.0  0.004164243177504343  0.006310295473188773  0.9995164226642068  1.0000
  Se  Se10      1.0  0.0008819745272967761  0.0013102956270508563  0.9996223703185873  1.0000
  Se  Se11      1.0  0.0033613944393159592  0.0024306419589295554  0.00011642879507687908  1.0000
  Se  Se12      1.0  0.002595375398066286  0.006425151808765269  0.9997094709719859  1.0000
  Ga  Ga9       1.0  0.007534372436738993  0.0003009722922858229  0.9990194341322473  1.0000
  Ga  Ga10      1.0  0.007511845731309459  0.005300972174039963  0.9993264394589846  1.0000
  Ga  Ga11      1.0  0.009172537722248767  0.004971310693599878  0.9991230360514445  1.0000
  Ga  Ga12      1.0  0.005873679832227057  0.009971310397272903  0.9992279604757955  1.0000
  Ga  Ga13      1.0  0.0025343721667670373  0.005300972174039963  0.9993278290587638  1.0000
  Ga  Ga14      1.0  0.002511845461337503  0.0003009722922858229  0.9990180448853577  1.0000
  Ga  Ga15      1.0  0.004172537759063125  0.009971310397272903  0.999431430732213  1.0000
  Ga  Ga16      1.0  0.0008736800224345714  0.004971310693599878  0.9989195659270329  1.0000
  Se  Se13      1.0  0.009243388794212179  0.006606525572233831  0.9988895534234915  1.0000
  Se  Se14      1.0  0.005802828760263647  0.00160652544116613  0.9989857381067792  1.0000
  Se  Se15      1.0  0.009164243447476298  0.0013102956270508563  0.9992080280051759  1.0000
  Se  Se16      1.0  0.005881974720572154  0.006310295473188773  0.9993139756287241  1.0000
  Se  Se17      1.0  0.007450841886437583  0.006425151808765269  0.9990837671136845  1.0000
  Se  Se18      1.0  0.0075953756680382425  0.0014251519626273515  0.999401076312955  1.0000
  Se  Se19      1.0  0.004243388831026536  0.00160652544116613  0.999197948133177  1.0000
  Se  Se20      1.0  0.0008028287203814258  0.006606525572233831  0.9992941325061816  1.0000
  Se  Se21      1.0  0.004164243177504343  0.006310295473188773  0.998899633136554  1.0000
  Se  Se22      1.0  0.0008819745272967761  0.0013102956270508563  0.9990055810591241  1.0000
  Se  Se23      1.0  0.0024508420766450973  0.0014251519626273515  0.9993921615590109  1.0000
  Se  Se24      1.0  0.002595375398066286  0.006425151808765269  0.9990926817125226  1.0000
