data_image0
_chemical_formula_structural       COGa4Ti12
_chemical_formula_sum              "C1 O1 Ga4 Ti12"
_cell_length_a       5.119235038757324
_cell_length_b       5.119235222110891
_cell_length_c       103.4593505859375
_cell_angle_alpha    90.0
_cell_angle_beta     90.0
_cell_angle_gamma    113.99616129496347

_space_group_name_H-M_alt    "P 1"
_space_group_IT_number       1

loop_
  _space_group_symop_operation_xyz
  'x, y, z'

loop_
  _atom_site_type_symbol
  _atom_site_label
  _atom_site_symmetry_multiplicity
  _atom_site_fract_x
  _atom_site_fract_y
  _atom_site_fract_z
  _atom_site_occupancy
  C   C1        1.0  0.009999999623345659  0.0050000027241939625  3.9673114415678806e-05  1.0000
  O   O1        1.0  0.009999999623345659  0.0050000027241939625  0.00015566035622697008  1.0000
  Ga  Ga1       1.0  0.005000000381815588  0.005000001529372049  0.9991933578932282  1.0000
  Ga  Ga2       1.0  2.5000001656585433e-10  1.4499999803309056e-09  0.9994628629137936  1.0000
  Ga  Ga3       1.0  0.005000000867720328  0.0050000027241939625  0.9997350244078002  1.0000
  Ga  Ga4       1.0  1.3087615534352354e-09  0.009999998279456445  0.0  1.0000
  Ti  Ti1       1.0  0.0050000002549353325  1.4499999803309056e-09  0.9990586053829456  1.0000
  Ti  Ti2       1.0  3.5270740844336143e-10  0.005000001529372049  0.9993281104035109  1.0000
  Ti  Ti3       1.0  3.5270740844336143e-10  0.005000001529372049  0.9990586053829456  1.0000
  Ti  Ti4       1.0  0.0050000002549353325  1.4499999803309056e-09  0.9993281104035109  1.0000
  Ti  Ti5       1.0  2.5000001656585433e-10  1.4499999803309056e-09  0.9991933578932282  1.0000
  Ti  Ti6       1.0  0.005000000381815588  0.005000001529372049  0.9994628629137936  1.0000
  Ti  Ti7       1.0  0.0050000002549353325  1.4499999803309056e-09  0.9995976148479598  1.0000
  Ti  Ti8       1.0  0.009999999623345659  0.0050000027241939625  0.9998722594043239  1.0000
  Ti  Ti9       1.0  3.5270740844336143e-10  0.005000001529372049  0.9995976148479598  1.0000
  Ti  Ti10      1.0  0.005000000175755905  2.1499999773841643e-09  0.9998722542192748  1.0000
  Ti  Ti11      1.0  8.499999853304466e-10  1.8499998701260086e-09  0.9997316420274981  1.0000
  Ti  Ti12      1.0  0.0049999999980054706  0.00500000192764602  0.9999947619482702  1.0000
