data_image0
_chemical_formula_structural       COGa6Pd14
_chemical_formula_sum              "C1 O1 Ga6 Pd14"
_cell_length_a       5.570364091091175
_cell_length_b       7.227116668191089
_cell_length_c       101.8207778930664
_cell_angle_alpha    94.08036168611767
_cell_angle_beta     93.23463798460627
_cell_angle_gamma    104.38509994156969

_space_group_name_H-M_alt    "P 1"
_space_group_IT_number       1

loop_
  _space_group_symop_operation_xyz
  'x, y, z'

loop_
  _atom_site_type_symbol
  _atom_site_label
  _atom_site_symmetry_multiplicity
  _atom_site_fract_x
  _atom_site_fract_y
  _atom_site_fract_z
  _atom_site_occupancy
  C   C1        1.0  0.00485894258089545  0.006895510559124581  0.00011899324837097376  1.0000
  O   O1        1.0  0.00485894258089545  0.006895510559124581  0.00023684762512006576  1.0000
  Ga  Ga1       1.0  0.0006475630188469881  0.004875148248145241  0.9997078001151554  1.0000
  Ga  Ga2       1.0  0.00401901526805287  1.0254700601528132e-05  1.2458002583188595e-05  1.0000
  Ga  Ga3       1.0  0.007285524725074621  0.008466717915302853  0.9997812085254837  1.0000
  Ga  Ga4       1.0  0.0006475628830594868  0.006125147906244536  0.9993171530116918  1.0000
  Ga  Ga5       1.0  0.004024781056303334  0.0012937306279061133  0.9996331830690132  1.0000
  Ga  Ga6       1.0  0.007270344560233152  0.009706565259373738  0.9993917701668277  1.0000
  Pd  Pd1       1.0  0.005647562794451664  0.004875148248145241  0.9997077998773807  1.0000
  Pd  Pd2       1.0  0.00923837101533029  0.009675094368013303  8.080420330132527e-06  1.0000
  Pd  Pd3       1.0  0.0020219911241057095  0.008778389254840408  0.9997820170830326  1.0000
  Pd  Pd4       1.0  0.004612018555868273  0.00667675821496788  0.999947949708192  1.0000
  Pd  Pd5       1.0  0.006819965465041485  0.001941690157666826  0.9998567950781709  1.0000
  Pd  Pd6       1.0  0.009352436400541725  0.005807308464319482  0.9999274435317483  1.0000
  Pd  Pd7       1.0  0.002131186037686304  0.0027485304103410193  0.9998756335585592  1.0000
  Pd  Pd8       1.0  0.005647562574934565  0.006125147906244536  0.9993171530663525  1.0000
  Pd  Pd9       1.0  0.00926302516265336  0.0010105507020708722  0.9996272830759699  1.0000
  Pd  Pd10      1.0  0.0020321005855353296  0.009989745585873866  0.9993976701623009  1.0000
  Pd  Pd11      1.0  0.00449840915559903  0.00785542937292197  0.999561547552976  1.0000
  Pd  Pd12      1.0  0.0067967167161647885  0.003144866781467806  0.9994634053923078  1.0000
  Pd  Pd13      1.0  0.009202029207776121  0.007040884067351977  0.9995445769170672  1.0000
  Pd  Pd14      1.0  0.002093096161610108  0.0039594120870377995  0.9994803760266658  1.0000
