data_image0
_chemical_formula_structural       HAs12Ti16
_chemical_formula_sum              "H1 As12 Ti16"
_cell_length_a       6.700092792510986
_cell_length_b       6.700092647855943
_cell_length_c       102.82361602783203
_cell_angle_alpha    90.0
_cell_angle_beta     90.0
_cell_angle_gamma    109.47122179267875

_space_group_name_H-M_alt    "P 1"
_space_group_IT_number       1

loop_
  _space_group_symop_operation_xyz
  'x, y, z'

loop_
  _atom_site_type_symbol
  _atom_site_label
  _atom_site_symmetry_multiplicity
  _atom_site_fract_x
  _atom_site_fract_y
  _atom_site_fract_z
  _atom_site_occupancy
  H   H1        1.0  0.008470454976266119  0.008576402644088144  3.236693158873029e-05  1.0000
  As  As1       1.0  0.0019381000369073653  0.003437499976410672  0.9996400242570895  1.0000
  As  As2       1.0  0.006938100080665351  0.008437500424607905  0.9991079865875554  1.0000
  As  As3       1.0  0.009936900029590986  0.0027336445564587353  0.9999798752997355  1.0000
  As  As4       1.0  0.00506310008369088  0.0078125  0.9994405099136348  1.0000
  As  As5       1.0  6.309998360983932e-05  0.0078125  0.9997065290382411  1.0000
  As  As6       1.0  0.005063099919587342  0.002812500141535968  0.999174491368707  1.0000
  As  As7       1.0  0.005656228760759197  0.009621069598066537  0.999772924839825  1.0000
  As  As8       1.0  0.0006881000529129898  0.0046874999410266805  0.9992409961498585  1.0000
  As  As9       1.0  0.001971713899431857  0.00882811138895775  4.215306489127605e-05  1.0000
  As  As10      1.0  0.006938099719984073  0.003437499976410672  0.9995070146947863  1.0000
  As  As11      1.0  0.0056620933462352245  0.004778277867337545  0.9999204449156237  1.0000
  As  As12      1.0  0.0006881000373025089  0.009687500094357312  0.9993740054223225  1.0000
  Ti  Ti1       1.0  0.00255939382578288  0.006313193568703748  0.9998574860281702  1.0000
  Ti  Ti2       1.0  0.0075630997624722895  0.0013261822890985751  0.9993075006411708  1.0000
  Ti  Ti3       1.0  0.0033062589037656962  0.008555658778785396  0.9992284229220815  1.0000
  Ti  Ti4       1.0  0.008285626541862271  0.0035380500767087206  0.9997603272655489  1.0000
  Ti  Ti5       1.0  0.008576782261854014  0.005312500070767984  0.999041482096243  1.0000
  Ti  Ti6       1.0  0.0035767822019556715  0.000312499991154002  0.999573519475938  1.0000
  Ti  Ti7       1.0  0.00580625897600553  0.006055658849553381  0.9996525974848666  1.0000
  Ti  Ti8       1.0  0.0008062588364283229  0.0010556588436560484  0.9991205595254932  1.0000
  Ti  Ti9       1.0  0.00585499247751576  0.0011787354252865217  0.0  1.0000
  Ti  Ti10      1.0  0.0008062588759244904  0.006055658849553381  0.9994944420466878  1.0000
  Ti  Ti11      1.0  0.008470454976266119  0.008576402644088144  0.999912545056327  1.0000
  Ti  Ti12      1.0  0.0033062588439132412  0.0035556589203213644  0.9993865783602602  1.0000
  Ti  Ti13      1.0  0.007563100302867586  0.0063261824424292075  0.9993075006411708  1.0000
  Ti  Ti14      1.0  0.002598006729789721  0.0014566213948618745  0.9998360037207387  1.0000
  Ti  Ti15      1.0  0.0035767824397758617  0.005312500070767984  0.999041482096243  1.0000
  Ti  Ti16      1.0  0.008576782302036711  0.000312499991154002  0.999573519475938  1.0000
