data_image0
_chemical_formula_structural       COIr36Si12
_chemical_formula_sum              "C1 O1 Ir36 Si12"
_cell_length_a       5.50789723873761
_cell_length_b       9.299081453904543
_cell_length_c       104.2229232788086
_cell_angle_alpha    93.75483616801321
_cell_angle_beta     92.06946372578764
_cell_angle_gamma    103.27963796946423

_space_group_name_H-M_alt    "P 1"
_space_group_IT_number       1

loop_
  _space_group_symop_operation_xyz
  'x, y, z'

loop_
  _atom_site_type_symbol
  _atom_site_label
  _atom_site_symmetry_multiplicity
  _atom_site_fract_x
  _atom_site_fract_y
  _atom_site_fract_z
  _atom_site_occupancy
  C   C1        1.0  0.004360160736104987  0.0036610001184384866  0.0001652821279579892  1.0000
  O   O1        1.0  0.004360160736104987  0.0036610001184384866  0.00028042017956102846  1.0000
  Ir  Ir1       1.0  0.0014463065438014315  0.00800706949366979  0.9993876531225913  1.0000
  Ir  Ir2       1.0  0.0067796399157224905  0.008673736763581035  0.9989498361621316  1.0000
  Ir  Ir3       1.0  0.004112973165416786  0.0033404029387354667  0.9991687444724199  1.0000
  Ir  Ir4       1.0  0.0004463066422091901  0.006007069747957194  0.9990592902446649  1.0000
  Ir  Ir5       1.0  0.007779639370470272  0.0006737361811142686  0.9992781986998692  1.0000
  Ir  Ir6       1.0  0.0031129731018743  0.0013404027802186433  0.9988403818777204  1.0000
  Ir  Ir7       1.0  0.0016493378849188234  0.008413132628754233  0.9989070497887723  1.0000
  Ir  Ir8       1.0  0.008982670938582713  0.0030797985975065515  0.9991259582418841  1.0000
  Ir  Ir9       1.0  0.006316004567141426  0.0077464653588429876  0.999344866607791  1.0000
  Ir  Ir10      1.0  0.008257414268558853  0.005326263933232502  0.9992924609324845  1.0000
  Ir  Ir11      1.0  0.0035907475089854792  0.00599293079033952  0.9988546441109062  1.0000
  Ir  Ir12      1.0  0.0009240807550554239  0.0006595971718960662  0.9990735524223935  1.0000
  Ir  Ir13      1.0  0.0036351988869959572  0.00868787530839448  0.9991544825791171  1.0000
  Ir  Ir14      1.0  0.0009685320659919487  0.003354541896353141  0.9993733908916824  1.0000
  Ir  Ir15      1.0  0.006301865512235662  0.004021208547058044  0.9989355739277467  1.0000
  Ir  Ir16      1.0  0.005576608503813913  0.006267673882783995  0.9991020766177013  1.0000
  Ir  Ir17      1.0  0.0029099417057719466  0.0009343403675415985  0.9993209852156554  1.0000
  Ir  Ir18      1.0  0.008243275511563416  0.0016010070182465017  0.9988831682524059  1.0000
  Ir  Ir19      1.0  0.003451750287049364  0.002082881546625927  1.8757459216061705e-05  1.0000
  Ir  Ir20      1.0  0.008779639921365809  0.0026737362880305637  0.9996065615811451  1.0000
  Ir  Ir21      1.0  0.006181616205177442  0.007348901862815736  0.9998219467185486  1.0000
  Ir  Ir22      1.0  0.002446306379358926  7.069450589797921e-06  0.9997160156642071  1.0000
  Ir  Ir23      1.0  0.009887027272509672  0.004620223808846464  0.9999417618254017  1.0000
  Ir  Ir24      1.0  0.005112973317183093  0.005340402890850176  0.9994971073520297  1.0000
  Ir  Ir25      1.0  0.0036493377213631982  0.0024131321532037623  0.9995637752074629  1.0000
  Ir  Ir26      1.0  0.00101879580120812  0.007079511602797421  0.9997823982598345  1.0000
  Ir  Ir27      1.0  0.008426994639369906  0.001800687131461595  0.9999935853988692  1.0000
  Ir  Ir28      1.0  0.0003105753031799899  0.009382757747298397  0.9999533222591367  1.0000
  Ir  Ir29      1.0  0.0055907477206699205  0.009992931107373166  0.9995113695864145  1.0000
  Ir  Ir30      1.0  0.0029240809667398656  0.004659597488929713  0.9997302778979019  1.0000
  Ir  Ir31      1.0  0.005739051100514449  0.0027036959676913124  0.9998067112903003  1.0000
  Ir  Ir32      1.0  0.003135548949025676  0.007311164125888566  1.888812920967669e-05  1.0000
  Ir  Ir33      1.0  0.008301865639320631  0.00802120886409169  0.9995922991171458  1.0000
  Ir  Ir34      1.0  0.007464483018984292  0.0002252550637654398  0.9997632053269471  1.0000
  Ir  Ir35      1.0  0.004927722755991713  0.00494792596852194  0.9999782552115373  1.0000
  Ir  Ir36      1.0  0.00024327529384309796  0.005601007025676978  0.999539893580882  1.0000
  Si  Si1       1.0  0.008112973277890779  0.006340402970108588  0.998840381834129  1.0000
  Si  Si2       1.0  0.005446306310649868  0.0010070694548661918  0.9990592904317601  1.0000
  Si  Si3       1.0  0.002779639891472319  0.005673736525805799  0.999278198799385  1.0000
  Si  Si4       1.0  0.0017796398067799661  0.0036737363672889756  0.9989498362046451  1.0000
  Si  Si5       1.0  0.009112973510632207  0.008340403128625412  0.9991687447150993  1.0000
  Si  Si6       1.0  0.006446306502903736  0.003007069510181958  0.9993876530261022  1.0000
  Si  Si7       1.0  0.00011297305698292148  0.00034040275256076003  0.9994971073957618  1.0000
  Si  Si8       1.0  0.0074463063972472765  0.0050070696686987815  0.9997160156204788  1.0000
  Si  Si9       1.0  0.004809831772136311  0.009756720399995011  0.9999589213506425  1.0000
  Si  Si10      1.0  0.0037796399550148042  0.0076737366843226225  0.9996065613940844  1.0000
  Si  Si11      1.0  0.001146327919374849  0.0022772580543190656  0.9998144505093071  1.0000
  Si  Si12      1.0  0.008609797857337816  0.0068812739307564695  1.4397050285389845e-05  1.0000
