data_image0
_chemical_formula_structural       COFe18Ga24
_chemical_formula_sum              "C1 O1 Fe18 Ga24"
_cell_length_a       6.283058597462757
_cell_length_b       7.826346029842658
_cell_length_c       105.90343475341797
_cell_angle_alpha    91.50615452865908
_cell_angle_beta     93.12628616169079
_cell_angle_gamma    102.65535047855207

_space_group_name_H-M_alt    "P 1"
_space_group_IT_number       1

loop_
  _space_group_symop_operation_xyz
  'x, y, z'

loop_
  _atom_site_type_symbol
  _atom_site_label
  _atom_site_symmetry_multiplicity
  _atom_site_fract_x
  _atom_site_fract_y
  _atom_site_fract_z
  _atom_site_occupancy
  C   C1        1.0  0.002287791369981268  0.008778997080106958  0.00012233170067987097  1.0000
  O   O1        1.0  0.002287791369981268  0.008778997080106958  0.00023564213996817745  1.0000
  Fe  Fe1       1.0  0.005252663319526462  0.00495130388278783  0.9994283818429724  1.0000
  Fe  Fe2       1.0  0.003421932366892583  0.006501418580484786  0.9999728997294729  1.0000
  Fe  Fe3       1.0  0.0011490797749974795  0.001005468939332323  0.99914280945703  1.0000
  Fe  Fe4       1.0  0.009482412886216098  0.002672135733750299  0.9997078438524551  1.0000
  Fe  Fe5       1.0  0.009356246583971821  0.008897138887271032  0.9997139542281271  1.0000
  Fe  Fe6       1.0  0.001022913752836828  0.00723047203182536  0.9991489201149001  1.0000
  Fe  Fe7       1.0  0.004302565974304052  0.007266910448322693  0.9989900814283291  1.0000
  Fe  Fe8       1.0  0.0026358993990718478  0.0089335768155468  0.9995551157789133  1.0000
  Fe  Fe9       1.0  0.006205208613399104  0.0025589855038659027  0.9998713237394977  1.0000
  Fe  Fe10      1.0  0.007869427002237596  0.0009690308279734677  0.9993016481874356  1.0000
  Fe  Fe11      1.0  0.00534588359887862  0.0070356457516818575  0.9996186796725575  1.0000
  Fe  Fe12      1.0  0.007012550280832521  0.005368978896236185  0.9990536453213702  1.0000
  Fe  Fe13      1.0  0.006611216492860665  0.005300803636911638  0.9999768840074937  1.0000
  Fe  Fe14      1.0  0.008511471926825893  0.0035373680938599007  0.9994653656850415  1.0000
  Fe  Fe15      1.0  0.00515944310742787  0.002866962258004584  0.9992380840140792  1.0000
  Fe  Fe16      1.0  0.0036789779230923117  0.004552465921978538  0.999799953037146  1.0000
  Fe  Fe17      1.0  7.035813927017149e-05  0.00759356826831045  0.9999439811872503  1.0000
  Fe  Fe18      1.0  0.0019938545196957085  0.0063652399158265404  0.9993913985635752  1.0000
  Ga  Ga1       1.0  0.0037757086557861307  0.002895493438036575  0.9990155979400795  1.0000
  Ga  Ga2       1.0  0.002109041832354411  0.004562160049371464  0.9995806320089246  1.0000
  Ga  Ga3       1.0  0.006520243118824916  0.007448940441249808  0.9998377861110997  1.0000
  Ga  Ga4       1.0  0.00839628473247426  0.005340447716204194  0.9992761316767802  1.0000
  Ga  Ga5       1.0  0.003261146482987924  0.0030637570474978185  1.650282862719245e-05  1.0000
  Ga  Ga6       1.0  0.004773232208894022  0.0015490677065509992  0.999451601498822  1.0000
  Ga  Ga7       1.0  0.004155240888973165  0.009786266519542987  0.9999728414788875  1.0000
  Ga  Ga8       1.0  0.0057320942005154515  0.008353540303135442  0.999405162186854  1.0000
  Ga  Ga9       1.0  0.009929641597571221  0.004434964173286066  0.9999072506662515  1.0000
  Ga  Ga10      1.0  0.001513334916351718  0.003125326180827519  0.999321634588144  1.0000
  Ga  Ga11      1.0  0.0040391428701227325  0.005786712008050766  0.9991993058513614  1.0000
  Ga  Ga12      1.0  0.002142284437493609  0.007267696485042204  0.9997573721023735  1.0000
  Ga  Ga13      1.0  0.0006586585134742551  0.0051106149734132505  0.9989700949838245  1.0000
  Ga  Ga14      1.0  0.008991991938403282  0.006777281828858922  0.9995351290989729  1.0000
  Ga  Ga15      1.0  0.006466183472033177  0.004115895757524893  0.9996574578336228  1.0000
  Ga  Ga16      1.0  0.008132849924343625  0.0024492291461900035  0.9990924237635771  1.0000
  Ga  Ga17      1.0  0.004359540672351991  0.009688874128887744  0.9991676096133184  1.0000
  Ga  Ga18      1.0  0.002692874062177535  0.0013555407060471232  0.9997326439909313  1.0000
  Ga  Ga19      1.0  0.009200856114210456  0.0007209594701266521  0.9999256005202409  1.0000
  Ga  Ga20      1.0  0.0009145582317292633  0.009167488649512598  0.9993344554760782  1.0000
  Ga  Ga21      1.0  0.006145785877099296  0.00021373385028484955  0.9996891540727515  1.0000
  Ga  Ga22      1.0  0.007812452380858723  0.008547067425694709  0.999124119976501  1.0000
  Ga  Ga23      1.0  0.0012574353826168116  0.009068452905069855  0.998957274070531  1.0000
  Ga  Ga24      1.0  0.009590768558644184  0.0007351196653123218  0.9995223082114232  1.0000
