data_image0
_chemical_formula_structural       HRe4Os12Re4Os12
_chemical_formula_sum              "H1 Re8 Os24"
_cell_length_a       7.059462368678734
_cell_length_b       5.541820825940596
_cell_length_c       112.35677337646484
_cell_angle_alpha    66.88922349902711
_cell_angle_beta     76.55489821190292
_cell_angle_gamma    66.88922189794182

_space_group_name_H-M_alt    "P 1"
_space_group_IT_number       1

loop_
  _space_group_symop_operation_xyz
  'x, y, z'

loop_
  _atom_site_type_symbol
  _atom_site_label
  _atom_site_symmetry_multiplicity
  _atom_site_fract_x
  _atom_site_fract_y
  _atom_site_fract_z
  _atom_site_occupancy
  H   H1        1.0  0.00891979726684747  0.008983587341705684  0.9999137023705011  1.0000
  Re  Re1       1.0  0.002083333381352444  0.0010290943756832121  0.9996588736385851  1.0000
  Re  Re2       1.0  0.007083333640655644  0.0010290942580550792  0.9993447199373329  1.0000
  Re  Re3       1.0  0.007916666705081956  0.007695761607038596  0.9997112326838489  1.0000
  Re  Re4       1.0  0.002916666877950755  0.00769576152861984  0.9993970788345619  1.0000
  Os  Os1       1.0  0.00041349611842702113  0.007708443558454182  0.9998681105219622  1.0000
  Os  Os2       1.0  0.0054134965217875535  0.007708443375477086  0.9995539568198707  1.0000
  Os  Os3       1.0  0.007923008108883557  0.00268941975442096  0.9997116313758588  1.0000
  Os  Os4       1.0  0.0029230079936376904  0.0026894198067001296  0.9993974775282506  1.0000
  Os  Os5       1.0  0.00041349611842702113  0.0026894200150331393  0.9998681105156012  1.0000
  Os  Os6       1.0  0.0054134965217875535  0.0026894198320560436  0.9995539568135096  1.0000
  Os  Os7       1.0  0.009586504400179378  0.0010164118627867466  0.9995019963355227  1.0000
  Os  Os8       1.0  0.004586503996818845  0.0010164120457638423  0.9998161500376143  1.0000
  Os  Os9       1.0  0.002076992121608176  0.006035435797517895  0.9996584754833049  1.0000
  Os  Os10      1.0  0.007076992236854042  0.0060354357452387245  0.9993443217828921  1.0000
  Os  Os11      1.0  0.009586504400179378  0.00603543577164178  0.9995019963348091  1.0000
  Os  Os12      1.0  0.004586503996818845  0.006035435954618876  0.9998161500369006  1.0000
  Re  Re5       1.0  0.002083333381352444  0.0010290943756832121  0.9990305660905641  1.0000
  Re  Re6       1.0  0.007083333640655644  0.0010290942580550792  0.9987164123893119  1.0000
  Re  Re7       1.0  0.007916666705081956  0.007695761607038596  0.9990829251358277  1.0000
  Re  Re8       1.0  0.002916666877950755  0.00769576152861984  0.9987687712865407  1.0000
  Os  Os13      1.0  0.00041349611842702113  0.007708443558454182  0.9992398029739412  1.0000
  Os  Os14      1.0  0.0054134965217875535  0.007708443375477086  0.9989256492718497  1.0000
  Os  Os15      1.0  0.007923008108883557  0.00268941975442096  0.9990833238278378  1.0000
  Os  Os16      1.0  0.0029230079936376904  0.0026894198067001296  0.9987691699802296  1.0000
  Os  Os17      1.0  0.00041349611842702113  0.0026894200150331393  0.9992398029675801  1.0000
  Os  Os18      1.0  0.0054134965217875535  0.0026894198320560436  0.9989256492654885  1.0000
  Os  Os19      1.0  0.009586504400179378  0.0010164118627867466  0.9988736882570073  1.0000
  Os  Os20      1.0  0.004586503996818845  0.0010164120457638423  0.9991878424895932  1.0000
  Os  Os21      1.0  0.002076992121608176  0.006035435797517895  0.9990301679352839  1.0000
  Os  Os22      1.0  0.007076992236854042  0.0060354357452387245  0.9987160137043767  1.0000
  Os  Os23      1.0  0.009586504400179378  0.00603543577164178  0.9988736882562935  1.0000
  Os  Os24      1.0  0.004586503996818845  0.006035435954618876  0.9991878424888796  1.0000
