data_image0
_chemical_formula_structural       HV8Sb16V8Sb16
_chemical_formula_sum              "H1 V16 Sb32"
_cell_length_a       6.638558387756348
_cell_length_b       14.423209760585591
_cell_length_c       103.8067626953125
_cell_angle_alpha    67.00490279071484
_cell_angle_beta     90.0
_cell_angle_gamma    90.0

_space_group_name_H-M_alt    "P 1"
_space_group_IT_number       1

loop_
  _space_group_symop_operation_xyz
  'x, y, z'

loop_
  _atom_site_type_symbol
  _atom_site_label
  _atom_site_symmetry_multiplicity
  _atom_site_fract_x
  _atom_site_fract_y
  _atom_site_fract_z
  _atom_site_occupancy
  H   H1        1.0  0.005782044130519135  0.008142329369434107  0.9996871413503288  1.0000
  V   V1        1.0  0.005052451446502265  0.0028922712063712383  0.9991408308810424  1.0000
  V   V2        1.0  0.005052451446502265  0.007892271071692951  0.9988694390840154  1.0000
  V   V3        1.0  5.245165132549293e-05  0.005392271139032095  0.9990051349825289  1.0000
  V   V4        1.0  5.245165132549293e-05  0.00039227130878285234  0.9987337432723319  1.0000
  V   V5        1.0  5.245165132549293e-05  0.005392271139032095  0.9987337430863216  1.0000
  V   V6        1.0  5.245165132549293e-05  0.00039227130878285234  0.9990051348814449  1.0000
  V   V7        1.0  0.005052451446502265  0.0028922712063712383  0.998869438984835  1.0000
  V   V8        1.0  0.005052451446502265  0.007892271071692951  0.9991408309802227  1.0000
  Sb  Sb1       1.0  0.006621536541343793  0.0011768138912760864  0.9990982474312343  1.0000
  Sb  Sb2       1.0  0.006621536541343793  0.006176813686452859  0.9988268556380147  1.0000
  Sb  Sb3       1.0  0.008483366216982452  0.003676813753792002  0.9989625515365282  1.0000
  Sb  Sb4       1.0  0.008483366216982452  0.008676813619113715  0.9986911597395012  1.0000
  Sb  Sb5       1.0  0.008483366216982452  0.002107728658950475  0.9987763267202362  1.0000
  Sb  Sb6       1.0  0.008483366216982452  0.007107728524272188  0.9990477184285296  1.0000
  Sb  Sb7       1.0  0.006621536541343793  0.004607728591611331  0.9986406308217227  1.0000
  Sb  Sb8       1.0  0.006621536541343793  0.009607729018092573  0.9989120224995572  1.0000
  Sb  Sb9       1.0  0.0016215368163119612  0.003676813753792002  0.9986911593532267  1.0000
  Sb  Sb10      1.0  0.0016215368163119612  0.008676813619113715  0.99896255106152  1.0000
  Sb  Sb11      1.0  0.0034833663516607377  0.0011768138912760864  0.9988268552479328  1.0000
  Sb  Sb12      1.0  0.0034833663516607377  0.006176813686452859  0.9990982469600336  1.0000
  Sb  Sb13      1.0  0.0034833663516607377  0.004607728591611331  0.9989120230050242  1.0000
  Sb  Sb14      1.0  0.0034833663516607377  0.009607729018092573  0.9986406311775383  1.0000
  Sb  Sb15      1.0  0.0016215368163119612  0.002107728658950475  0.9990477189035377  1.0000
  Sb  Sb16      1.0  0.0016215368163119612  0.007107728524272188  0.9987763271065107  1.0000
  V   V9        1.0  0.00509955798316859  0.002737581409433054  0.9996377794566143  1.0000
  V   V10       1.0  0.004990030866288093  0.007878774062700176  0.9994162949520138  1.0000
  V   V11       1.0  0.00015668264978820315  0.00548844827071643  0.9995162920849882  1.0000
  V   V12       1.0  5.245165132549293e-05  0.00039227130878285234  0.9992765267776522  1.0000
  V   V13       1.0  5.245165132549293e-05  0.005392271139032095  0.9992765268787361  1.0000
  V   V14       1.0  0.009947548149462875  0.00048825929463342584  0.9995163016762416  1.0000
  V   V15       1.0  0.005115026906746456  0.002878694232145574  0.9994163876182375  1.0000
  V   V16       1.0  0.005005974530827537  0.007737388797036302  0.999637790577358  1.0000
  Sb  Sb17      1.0  0.006889197852351799  0.0011354116815124639  0.9996499252732958  1.0000
  Sb  Sb18      1.0  0.006621536541343793  0.006176813686452859  0.9993696388562409  1.0000
  Sb  Sb19      1.0  0.008658377845105748  0.003638163610648736  0.9995312160811999  1.0000
  Sb  Sb20      1.0  0.008483366216982452  0.008676813619113715  0.9992339429577274  1.0000
  Sb  Sb21      1.0  0.008483366216982452  0.002107728658950475  0.9993191102255565  1.0000
  Sb  Sb22      1.0  0.008444987394471483  0.006971758448063671  0.9996018173672955  1.0000
  Sb  Sb23      1.0  0.006621536541343793  0.004607728591611331  0.999183414327043  1.0000
  Sb  Sb24      1.0  0.006558113730210732  0.009566511850683657  0.9994703124132839  1.0000
  Sb  Sb25      1.0  0.0016215368163119612  0.003676813753792002  0.999233942858547  1.0000
  Sb  Sb26      1.0  0.0014478409669944103  0.008638245124681925  0.9995311302138612  1.0000
  Sb  Sb27      1.0  0.0034833663516607377  0.0011768138912760864  0.9993696387532532  1.0000
  Sb  Sb28      1.0  0.0032156382626687737  0.006134928739204368  0.9996499211464946  1.0000
  Sb  Sb29      1.0  0.003546547022457012  0.0045660456617933  0.9994703984893588  1.0000
  Sb  Sb30      1.0  0.0034833663516607377  0.009607729018092573  0.9991834143957645  1.0000
  Sb  Sb31      1.0  0.0016599587078167852  0.0019719660714778253  0.9996018341412011  1.0000
  Sb  Sb32      1.0  0.0016215368163119612  0.007107728524272188  0.9993191103247369  1.0000
