data_image0
_chemical_formula_structural       CORe16
_chemical_formula_sum              "C1 O1 Re16"
_cell_length_a       5.564642429351807
_cell_length_b       5.564642542645726
_cell_length_c       101.49434661865234
_cell_angle_alpha    90.0
_cell_angle_beta     90.0
_cell_angle_gamma    119.99999932650972

_space_group_name_H-M_alt    "P 1"
_space_group_IT_number       1

loop_
  _space_group_symop_operation_xyz
  'x, y, z'

loop_
  _atom_site_type_symbol
  _atom_site_label
  _atom_site_symmetry_multiplicity
  _atom_site_fract_x
  _atom_site_fract_y
  _atom_site_fract_z
  _atom_site_occupancy
  C   C1        1.0  0.0012499666374331836  0.004166742783629552  0.00017065496061923163  1.0000
  O   O1        1.0  0.0012499666374331836  0.004166742783629552  0.00028888838660287884  1.0000
  Re  Re1       1.0  0.0020833666549888836  0.0033333331581148675  0.9993409678807527  1.0000
  Re  Re2       1.0  0.003750033498908147  0.0016666667723130946  0.9995626152530277  1.0000
  Re  Re3       1.0  0.0020834164048950153  0.003333300691163874  0.9997915036716721  1.0000
  Re  Re4       1.0  0.003749966703583581  0.0016667427217877408  0.0  1.0000
  Re  Re5       1.0  0.0020833666800105454  0.00833333328179849  0.9993409678807527  1.0000
  Re  Re6       1.0  0.0037500335368754805  0.006666667089252378  0.9995626152530277  1.0000
  Re  Re7       1.0  0.0020834163880755984  0.008333300814847497  0.9997915036716721  1.0000
  Re  Re8       1.0  0.003749966728605243  0.006666742845471364  0.0  1.0000
  Re  Re9       1.0  0.007083366812311341  0.0033333331581148675  0.9993409678807527  1.0000
  Re  Re10      1.0  0.008750033739912762  0.0016666667723130946  0.9995626152530277  1.0000
  Re  Re11      1.0  0.007083416520376393  0.003333300691163874  0.9997915036716721  1.0000
  Re  Re12      1.0  0.008749966609859565  0.0016667427217877408  0.0  1.0000
  Re  Re13      1.0  0.007083366753650845  0.00833333328179849  0.9993409678807527  1.0000
  Re  Re14      1.0  0.008750033777880096  0.006666667089252378  0.9995626152530277  1.0000
  Re  Re15      1.0  0.007083416461715898  0.008333300814847497  0.9997915036716721  1.0000
  Re  Re16      1.0  0.0087499668859277  0.006666742845471364  0.0  1.0000
