data_image0
_chemical_formula_structural       HV12Si4V12Si4
_chemical_formula_sum              "H1 V24 Si8"
_cell_length_a       4.712306976318359
_cell_length_b       6.66420841217041
_cell_length_c       30.014747619628906
_cell_angle_alpha    90.0
_cell_angle_beta     90.0
_cell_angle_gamma    90.0

_space_group_name_H-M_alt    "P 1"
_space_group_IT_number       1

loop_
  _space_group_symop_operation_xyz
  'x, y, z'

loop_
  _atom_site_type_symbol
  _atom_site_label
  _atom_site_symmetry_multiplicity
  _atom_site_fract_x
  _atom_site_fract_y
  _atom_site_fract_z
  _atom_site_occupancy
  H   H1        1.0  0.005000003668128386  0.0025096469032527377  0.00014199737001006332  1.0000
  V   V1        1.0  0.005000007225580485  0.006349276999666138  0.9995512362021881  1.0000
  V   V2        1.0  0.005000003668128386  0.001259595352303236  0.9983798501172951  1.0000
  V   V3        1.0  0.00500004398591884  0.009029651345913789  0.0  1.0000
  V   V4        1.0  0.005000003668128386  0.0037595953187632555  0.9989349281278112  1.0000
  V   V5        1.0  0.0074998979880847045  0.002509646623752903  0.9997315142151253  1.0000
  V   V6        1.0  0.007500003921102758  0.007509595408203202  0.9986573888743225  1.0000
  V   V7        1.0  0.0025001091505358402  0.0025096474622524068  0.9997315171938932  1.0000
  V   V8        1.0  0.0025000036127902424  0.007509595408203202  0.9986573888743225  1.0000
  V   V9        1.0  3.6000000851286785e-09  0.0037595953187632555  0.9983798501172951  1.0000
  V   V10       1.0  0.009999997059172932  0.008670060833653289  0.9995512555641796  1.0000
  V   V11       1.0  0.009999970971190875  0.005989719468386127  1.9858452761538684e-09  1.0000
  V   V12       1.0  3.6000000851286785e-09  0.001259595352303236  0.9989349281278112  1.0000
  Si  Si1       1.0  1.4799999889243114e-08  0.0050288253098664856  0.9991971753797508  1.0000
  Si  Si2       1.0  3.6000000851286785e-09  9.595250067437161e-06  0.9981023113602678  1.0000
  Si  Si3       1.0  0.005000003668128386  0.0050095951622433485  0.9981023113602678  1.0000
  Si  Si4       1.0  0.004999990228864902  0.009990405195516439  0.9991971892806677  1.0000
  V   V13       1.0  0.005000003668128386  0.00625959556472311  0.9972696945927244  1.0000
  V   V14       1.0  0.005000003668128386  0.001259595352303236  0.996159538819923  1.0000
  V   V15       1.0  0.005000003668128386  0.008759595810682964  0.9978247721067791  1.0000
  V   V16       1.0  0.005000003668128386  0.0037595953187632555  0.9967146165822084  1.0000
  V   V17       1.0  0.007500003921102758  0.002509595475283163  0.9975472333497518  1.0000
  V   V18       1.0  0.007500003921102758  0.007509595408203202  0.9964370778251811  1.0000
  V   V19       1.0  0.0025000036127902424  0.002509595475283163  0.9975472333497518  1.0000
  V   V20       1.0  0.0025000036127902424  0.007509595408203202  0.9964370778251811  1.0000
  V   V21       1.0  3.6000000851286785e-09  0.0037595953187632555  0.996159538819923  1.0000
  V   V22       1.0  3.6000000851286785e-09  0.008759595810682964  0.9972696945927244  1.0000
  V   V23       1.0  3.6000000851286785e-09  0.00625959556472311  0.9978247721067791  1.0000
  V   V24       1.0  3.6000000851286785e-09  0.001259595352303236  0.9967146165822084  1.0000
  Si  Si5       1.0  3.6000000851286785e-09  0.0050095951622433485  0.9969921555874665  1.0000
  Si  Si6       1.0  3.6000000851286785e-09  9.595250067437161e-06  0.9958819998146651  1.0000
  Si  Si7       1.0  0.005000003668128386  0.0050095951622433485  0.9958819998146651  1.0000
  Si  Si8       1.0  0.005000003668128386  9.595250067437161e-06  0.9969921555874665  1.0000
