data_image0
_chemical_formula_structural       COV6Pd2V6Pd2
_chemical_formula_sum              "C1 O1 V12 Pd4"
_cell_length_a       4.823716640472412
_cell_length_b       4.823716640472412
_cell_length_c       103.7660140991211
_cell_angle_alpha    90.0
_cell_angle_beta     90.0
_cell_angle_gamma    90.0

_space_group_name_H-M_alt    "P 1"
_space_group_IT_number       1

loop_
  _space_group_symop_operation_xyz
  'x, y, z'

loop_
  _atom_site_type_symbol
  _atom_site_label
  _atom_site_symmetry_multiplicity
  _atom_site_fract_x
  _atom_site_fract_y
  _atom_site_fract_z
  _atom_site_occupancy
  C   C1        1.0  0.005000000092674357  0.004198726021684119  0.00015274413345990414  1.0000
  O   O1        1.0  0.005000000092674357  0.004198726021684119  0.0002683885939148223  1.0000
  V   V1        1.0  0.0025000085414865285  0.0012500000231685893  0.9992978596661164  1.0000
  V   V2        1.0  0.007500008248017733  0.0012500000231685893  0.9992978596661164  1.0000
  V   V3        1.0  8.500000002353814e-09  0.00624999992277137  0.9991816433765863  1.0000
  V   V4        1.0  8.500000002353814e-09  0.00624999992277137  0.9994140759556465  1.0000
  V   V5        1.0  0.005000008587823707  0.0037499998764341912  0.9995302919579696  1.0000
  V   V6        1.0  0.005000008587823707  0.008749999969108548  0.9995302919579696  1.0000
  Pd  Pd1       1.0  0.005000008587823707  0.00624999992277137  0.9992978596661164  1.0000
  Pd  Pd2       1.0  8.500000002353814e-09  0.0012500000231685893  0.9995302919579696  1.0000
  V   V7        1.0  0.0024787992427046995  0.0012500482910626236  0.9997640324775663  1.0000
  V   V8        1.0  0.00752122913109413  0.0012500496425636564  0.9997640324775663  1.0000
  V   V9        1.0  8.500000002353814e-09  0.00624999992277137  0.9996465085347066  1.0000
  V   V10       1.0  1.7199999190270028e-08  0.0062500354479413794  0.9998942590102479  1.0000
  V   V11       1.0  0.005000000092674357  0.004198726021684119  0.9999858251872553  1.0000
  V   V12       1.0  0.005000000864960661  0.008301888563757041  0.9999858050827675  1.0000
  Pd  Pd3       1.0  0.00500002094440458  0.006249952041020488  0.9997561894296586  1.0000
  Pd  Pd4       1.0  0.009999991690199363  0.0012502961949663837  0.0  1.0000
