data_image0
_chemical_formula_structural       COAs24Rh12
_chemical_formula_sum              "C1 O1 As24 Rh12"
_cell_length_a       11.31438625315164
_cell_length_b       8.738612402816957
_cell_length_c       105.21495056152344
_cell_angle_alpha    73.08430886722209
_cell_angle_beta     85.71209942299362
_cell_angle_gamma    52.43101304727746

_space_group_name_H-M_alt    "P 1"
_space_group_IT_number       1

loop_
  _space_group_symop_operation_xyz
  'x, y, z'

loop_
  _atom_site_type_symbol
  _atom_site_label
  _atom_site_symmetry_multiplicity
  _atom_site_fract_x
  _atom_site_fract_y
  _atom_site_fract_z
  _atom_site_occupancy
  C   C1        1.0  0.006752602669085229  0.0067870156874366965  0.999821591199735  1.0000
  O   O1        1.0  0.006752602669085229  0.0067870156874366965  0.9999356430968277  1.0000
  As  As1       1.0  0.00280186209041198  0.003825555496424185  0.999457880269299  1.0000
  As  As2       1.0  0.00019525245996030715  0.009453561983254073  0.9997491484908689  1.0000
  As  As3       1.0  0.00621336769902049  0.0071417582564757736  0.9991800743940967  1.0000
  As  As4       1.0  0.0027034296513316473  0.0010377751687936287  0.9992724492426965  1.0000
  As  As5       1.0  0.009429491336955918  0.007449889111489627  0.9995518712351597  1.0000
  As  As6       1.0  0.006036762934354294  0.004371108867757941  0.9989935362544672  1.0000
  As  As7       1.0  0.00022779845622463135  0.005989037538321746  0.999061225231392  1.0000
  As  As8       1.0  0.0068944653891186815  0.0026557041321000176  0.9993401383184465  1.0000
  As  As9       1.0  0.0036341358471450253  0.009281318620207552  0.9996132047791488  1.0000
  As  As10      1.0  0.0004044030636699314  0.008759686612215867  0.9992477639463971  1.0000
  As  As11      1.0  0.0072331665742023325  0.005344823233634225  0.9995321722971069  1.0000
  As  As12      1.0  0.0037377364515065086  0.002093019947748696  0.9989688509321175  1.0000
  As  As13      1.0  0.009525233412070228  0.002341465335381787  0.9991642406204825  1.0000
  As  As14      1.0  0.0061918997097918605  0.009008133152524717  0.9994431533261829  1.0000
  As  As15      1.0  0.00269631341433971  0.006135878929669268  0.9997227489663839  1.0000
  As  As16      1.0  0.0027179128402370864  0.009185370017071887  0.9990099542457049  1.0000
  As  As17      1.0  0.009384579825538102  0.005852036121683668  0.9992888673441592  1.0000
  As  As18      1.0  0.006134090215352278  0.0024047146593773783  0.9995751084663536  1.0000
  As  As19      1.0  0.0035825996760689423  0.007455996162032411  0.9993559721135965  1.0000
  As  As20      1.0  0.009804747847668579  0.004087668720838346  0.9996446419431654  1.0000
  As  As21      1.0  0.006915933378347311  0.0007893287904702775  0.9990770591138763  1.0000
  As  As22      1.0  0.00040382627261083  0.0005630770647246126  0.9995108444280191  1.0000
  As  As23      1.0  0.007056586964879438  0.007278758948799685  0.9989524329678654  1.0000
  As  As24      1.0  0.0037232532626010695  0.003945425375730531  0.9992313453899198  1.0000
  Rh  Rh1       1.0  0.001819249520720275  0.007148715109804794  0.9994832229104198  1.0000
  Rh  Rh2       1.0  0.008424146302778995  0.003879771300778482  0.9989273895641502  1.0000
  Rh  Rh3       1.0  0.005090813019756349  0.0005464378246045676  0.9992063025469955  1.0000
  Rh  Rh4       1.0  0.004680562491722215  0.005923938799282637  0.9991747156591991  1.0000
  Rh  Rh5       1.0  0.0012975851386954275  0.002602627655815918  0.9994598198105435  1.0000
  Rh  Rh6       1.0  0.008253754069396655  0.009194678412425288  0.9997114391492835  1.0000
  Rh  Rh7       1.0  0.0013503528734539459  0.002584357466280535  0.9990349976252908  1.0000
  Rh  Rh8       1.0  0.0080170196491271  0.00925102357591439  0.999313910192796  1.0000
  Rh  Rh9       1.0  0.004723784821837382  0.0060126884364067  0.9995844170777238  1.0000
  Rh  Rh10      1.0  0.008427270596416956  0.003873522698131562  0.9993454970748799  1.0000
  Rh  Rh11      1.0  0.005012169031483596  0.0006611682729985678  0.9996060699452275  1.0000
  Rh  Rh12      1.0  0.0017606038207438018  0.007206856419177004  0.9990665845454567  1.0000
