data_image0
_chemical_formula_structural       HAl20Cu4Se32
_chemical_formula_sum              "H1 Al20 Cu4 Se32"
_cell_length_a       10.721831321716309
_cell_length_b       7.581479549407959
_cell_length_c       115.48887634277344
_cell_angle_alpha    90.0
_cell_angle_beta     90.0
_cell_angle_gamma    90.0

_space_group_name_H-M_alt    "P 1"
_space_group_IT_number       1

loop_
  _space_group_symop_operation_xyz
  'x, y, z'

loop_
  _atom_site_type_symbol
  _atom_site_label
  _atom_site_symmetry_multiplicity
  _atom_site_fract_x
  _atom_site_fract_y
  _atom_site_fract_z
  _atom_site_occupancy
  H   H1        1.0  0.005898018806500778  0.009193914484183953  5.408545781238708e-05  1.0000
  Al  Al1       1.0  0.007810793330178681  9.999999714845307e-11  0.9989898418865432  1.0000
  Al  Al2       1.0  0.007810793330178681  9.999999714845307e-11  0.9996463101627444  1.0000
  Al  Al3       1.0  0.008989736660290652  0.005000000196546876  0.9988163957921191  1.0000
  Al  Al4       1.0  0.008989736660290652  0.005000000196546876  0.9994728640683203  1.0000
  Al  Al5       1.0  0.009142740721608908  0.005000000196546876  0.9998425537460037  1.0000
  Al  Al6       1.0  0.008989736660290652  0.005000000196546876  0.9991632884970746  1.0000
  Al  Al7       1.0  0.0016318501390463374  0.007642113513368176  0.9989898418865432  1.0000
  Al  Al8       1.0  0.0016318501390463374  0.007642113513368176  0.9996463101627444  1.0000
  Al  Al9       1.0  0.0016318501390463374  0.0023578868797255767  0.9989898418865432  1.0000
  Al  Al10      1.0  0.0016318501390463374  0.0023578868797255767  0.9996463101627444  1.0000
  Al  Al11      1.0  0.003933995892762875  0.005000000196546876  0.9998469912360202  1.0000
  Al  Al12      1.0  0.0028107932954337745  0.005000000196546876  0.9993180762826974  1.0000
  Al  Al13      1.0  0.003952990238404541  9.999999714845307e-11  0.999814914139079  1.0000
  Al  Al14      1.0  0.003989736799270279  9.999999714845307e-11  0.999144629672166  1.0000
  Al  Al15      1.0  0.003989736799270279  9.999999714845307e-11  0.9994915223771216  1.0000
  Al  Al16      1.0  0.003989736799270279  9.999999714845307e-11  0.9988350541009204  1.0000
  Al  Al17      1.0  0.006647524122415925  0.0025569770720993692  0.9999320018394227  1.0000
  Al  Al18      1.0  0.00663185000006671  0.0026421133168212994  0.9993180762826974  1.0000
  Al  Al19      1.0  0.006647524122415925  0.007443023320994383  0.9999320018394227  1.0000
  Al  Al20      1.0  0.00663185000006671  0.007357886584905263  0.9993180762826974  1.0000
  Cu  Cu1       1.0  0.00031079338663915463  9.999999714845307e-11  0.9993180762826974  1.0000
  Cu  Cu2       1.0  0.009689206530841692  9.999999714845307e-11  0.9999278430473139  1.0000
  Cu  Cu3       1.0  0.005310793399668495  0.005000000196546876  0.9989898418865432  1.0000
  Cu  Cu4       1.0  0.005310793399668495  0.005000000196546876  0.9996463101627444  1.0000
  Se  Se1       1.0  0.00915018308064243  0.0073212202738574105  0.9989898418865432  1.0000
  Se  Se2       1.0  0.00915018308064243  0.0073212202738574105  0.9996463101627444  1.0000
  Se  Se3       1.0  0.00915018308064243  0.0026787801192363417  0.9989898418865432  1.0000
  Se  Se4       1.0  0.00915018308064243  0.0026787801192363417  0.9996463101627444  1.0000
  Se  Se5       1.0  0.0014714033712454931  0.005000000196546876  0.9988374612250698  1.0000
  Se  Se6       1.0  0.0014714033712454931  0.005000000196546876  0.9994939295012709  1.0000
  Se  Se7       1.0  0.0015692222708403843  0.005000000196546876  0.999799484597147  1.0000
  Se  Se8       1.0  0.0014714033712454931  0.005000000196546876  0.9991422225480167  1.0000
  Se  Se9       1.0  0.001622983412559133  9.999999714845307e-11  0.9988338902791029  1.0000
  Se  Se10      1.0  0.001622983412559133  9.999999714845307e-11  0.999490358555304  1.0000
  Se  Se11      1.0  0.001622983412559133  9.999999714845307e-11  0.9991457940100908  1.0000
  Se  Se12      1.0  0.0015929054416527948  9.999999714845307e-11  0.9998081453926768  1.0000
  Se  Se13      1.0  0.0039986033520329495  0.002375620075911121  0.9989898418865432  1.0000
  Se  Se14      1.0  0.0039986033520329495  0.002375620075911121  0.9996463101627444  1.0000
  Se  Se15      1.0  0.0039986033520329495  0.007624380071499037  0.9989898418865432  1.0000
  Se  Se16      1.0  0.0039986033520329495  0.007624380071499037  0.9996463101627444  1.0000
  Se  Se17      1.0  0.004399008522119553  0.002418256006944237  0.9999782073719535  1.0000
  Se  Se18      1.0  0.004150183219622056  0.0023212200773105344  0.9993180762826974  1.0000
  Se  Se19      1.0  0.004399008522119553  0.007581744140465921  0.9999782073719535  1.0000
  Se  Se20      1.0  0.004150183219622056  0.007678780315783218  0.9993180762826974  1.0000
  Se  Se21      1.0  0.006408249847344778  0.010000000393093752  0.9998040733065836  1.0000
  Se  Se22      1.0  0.006471403579714935  9.999999714845307e-11  0.999165695621224  1.0000
  Se  Se23      1.0  0.006471403579714935  9.999999714845307e-11  0.9994704569441708  1.0000
  Se  Se24      1.0  0.006471403579714935  9.999999714845307e-11  0.9988139886679697  1.0000
  Se  Se25      1.0  0.006778882106806622  0.004999999705179687  0.9997989302979754  1.0000
  Se  Se26      1.0  0.006622983099854972  0.005000000196546876  0.9991621241591498  1.0000
  Se  Se27      1.0  0.006622983099854972  0.005000000196546876  0.9988175596139366  1.0000
  Se  Se28      1.0  0.006622983099854972  0.005000000196546876  0.9994740278901377  1.0000
  Se  Se29      1.0  0.008756004197851842  0.007349098974088203  0.0  1.0000
  Se  Se30      1.0  0.00899860356050239  0.007375620026774402  0.9993180762826974  1.0000
  Se  Se31      1.0  0.008756004197851842  0.002650901173321954  0.0  1.0000
  Se  Se32      1.0  0.00899860356050239  0.0026243801206357552  0.9993180762826974  1.0000
