data_image0
_chemical_formula_structural       HCo16As32
_chemical_formula_sum              "H1 Co16 As32"
_cell_length_a       8.417490265587467
_cell_length_b       10.863675906619594
_cell_length_c       103.66996002197266
_cell_angle_alpha    87.42654958816946
_cell_angle_beta     89.54421317059654
_cell_angle_gamma    87.42654951628195

_space_group_name_H-M_alt    "P 1"
_space_group_IT_number       1

loop_
  _space_group_symop_operation_xyz
  'x, y, z'

loop_
  _atom_site_type_symbol
  _atom_site_label
  _atom_site_symmetry_multiplicity
  _atom_site_fract_x
  _atom_site_fract_y
  _atom_site_fract_z
  _atom_site_occupancy
  H   H1        1.0  0.0037517649257869834  0.009639596657516597  0.9999827991861434  1.0000
  Co  Co1       1.0  0.001824991189696045  0.0033103049485146917  0.9992493808402181  1.0000
  Co  Co2       1.0  0.00682499131361829  0.0033103049485146917  0.9996553563364808  1.0000
  Co  Co3       1.0  0.009263036908376897  0.00831434423269813  0.9998545717747759  1.0000
  Co  Co4       1.0  0.0043249911413274595  0.008310304866050588  0.9994523684752569  1.0000
  Co  Co5       1.0  0.0068654181162483285  0.003665935516106097  0.9992526633315147  1.0000
  Co  Co6       1.0  0.0018654182136158069  0.003665935516106097  0.9996586388673222  1.0000
  Co  Co7       1.0  0.004448964002815662  0.008751264477068074  0.9998580246637356  1.0000
  Co  Co8       1.0  0.009365418067879742  0.008665935433641993  0.9994556509665535  1.0000
  Co  Co9       1.0  0.005620369935618402  0.0011659356432382557  0.9995567426749736  1.0000
  Co  Co10      1.0  0.0006117229110536615  0.0011980431276593575  0.999938475295601  1.0000
  Co  Co11      1.0  0.0031203697485121104  0.006165935818474475  0.9993537551000198  1.0000
  Co  Co12      1.0  0.00803855062609495  0.006188399727345088  0.9997639185505769  1.0000
  Co  Co13      1.0  0.0005799428025918576  0.0008103048179465286  0.9995534601850229  1.0000
  Co  Co14      1.0  0.005550935798739297  0.0009176302159589722  0.9999419405181734  1.0000
  Co  Co15      1.0  0.008079942666732768  0.005810304563682211  0.9993504725725292  1.0000
  Co  Co16      1.0  0.0030850415869921976  0.005794213755575343  0.9997595389915583  1.0000
  As  As1       1.0  0.009374224696436133  0.0038652684331899586  0.9993454612682163  1.0000
  As  As2       1.0  0.004396021892006255  0.00386035975745614  0.9997606130501849  1.0000
  As  As3       1.0  0.006911997826307041  0.009037754391862204  0.9999457628812967  1.0000
  As  As4       1.0  0.0018742246215127823  0.008865268350725855  0.9995484492302729  1.0000
  As  As5       1.0  0.0056820889079417835  0.00311097203143083  0.9994516536059705  1.0000
  As  As6       1.0  0.0007263750199563362  0.0032231108419580523  0.9998675320435344  1.0000
  As  As7       1.0  0.003182088735650953  0.008110971948966726  0.9992486657447466  1.0000
  As  As8       1.0  0.008182088859573198  0.008110971948966726  0.9996546409535363  1.0000
  As  As9       1.0  0.008071136691538265  0.0006109719008626669  0.9994606624959638  1.0000
  As  As10      1.0  0.0030790807679929493  0.0006703963066186436  0.9998695439652912  1.0000
  As  As11      1.0  0.005571136509370459  0.005610971990198778  0.9992576746339378  1.0000
  As  As12      1.0  0.0005711362748033534  0.005610971990198778  0.9996636498824866  1.0000
  As  As13      1.0  0.0017632722223111517  0.0013652684744220101  0.9993544701970952  1.0000
  As  As14      1.0  0.006843749129609696  0.0014052316095594323  0.999759536732199  1.0000
  As  As15      1.0  0.00930610638118355  0.00638263705006156  0.9999686542660418  1.0000
  As  As16      1.0  0.004263272154188617  0.006365268735558337  0.9995574581180031  1.0000
  As  As17      1.0  0.009455550516038146  0.0028986616697305196  0.9995713466598662  1.0000
  As  As18      1.0  0.005338447923550929  0.0029946316748534095  0.9999824617934081  1.0000
  As  As19      1.0  0.0069555508060807104  0.007898661243665988  0.9993683593749064  1.0000
  As  As20      1.0  0.001970587080915721  0.007911964077889038  0.999786023418443  1.0000
  As  As21      1.0  0.007798459258802178  0.004033340926811195  0.9998495566863858  1.0000
  As  As22      1.0  0.0029000784749420513  0.004077578794890269  0.9994450503589886  1.0000
  As  As23      1.0  0.005400078628109239  0.009077579056026595  0.9996480377048074  1.0000
  As  As24      1.0  0.0004000783935421332  0.009077579056026595  0.9992420624960892  1.0000
  As  As25      1.0  0.007989809976900387  0.0015775788361223205  0.9992347768166105  1.0000
  As  As26      1.0  0.0029898102955575874  0.0015775788361223205  0.9996407523522751  1.0000
  As  As27      1.0  0.005393374954937187  0.006720879374324838  0.9998316178931054  1.0000
  As  As28      1.0  0.0004898101785891876  0.006577578753658217  0.9994377644910153  1.0000
  As  As29      1.0  0.009599921536966177  0.00036040339230546586  0.9997640777386769  1.0000
  As  As30      1.0  0.004545282446367379  0.00039866149621230277  0.9993610734452226  1.0000
  As  As31      1.0  0.007045282828232021  0.005398661628498468  0.9995640613664462  1.0000
  As  As32      1.0  0.0018951002399504443  0.005139150188616295  0.9999635273339331  1.0000
