data_image0
_chemical_formula_structural       HSi12Ir12
_chemical_formula_sum              "H1 Si12 Ir12"
_cell_length_a       6.479571683437178
_cell_length_b       7.1654773641654925
_cell_length_c       106.40547943115234
_cell_angle_alpha    62.25918162738571
_cell_angle_beta     69.14264402536637
_cell_angle_gamma    76.93707966476876

_space_group_name_H-M_alt    "P 1"
_space_group_IT_number       1

loop_
  _space_group_symop_operation_xyz
  'x, y, z'

loop_
  _atom_site_type_symbol
  _atom_site_label
  _atom_site_symmetry_multiplicity
  _atom_site_fract_x
  _atom_site_fract_y
  _atom_site_fract_z
  _atom_site_occupancy
  H   H1        1.0  0.004568313990859532  0.0010155328192252918  0.9998066355549897  1.0000
  Si  Si1       1.0  0.00018437738196247098  0.004004387098103837  0.9993616081333201  1.0000
  Si  Si2       1.0  0.0035177104618936686  0.007337720419657633  0.999076492247311  1.0000
  Si  Si3       1.0  0.0070687563428445  0.0007857152105762988  0.999630228439511  1.0000
  Si  Si4       1.0  0.0027968255774873624  0.009214284459596638  0.9996505348840123  1.0000
  Si  Si5       1.0  0.006482288814365994  0.0027505518689999275  0.9993653782515306  1.0000
  Si  Si6       1.0  0.00981562250954289  0.006083885190553723  0.9990802623521822  1.0000
  Si  Si7       1.0  0.0055876299771409595  0.008197881132512302  0.9993271163229382  1.0000
  Si  Si8       1.0  0.008920963116960638  0.001531214636648936  0.9990420005419405  1.0000
  Si  Si9       1.0  0.0023152879219316027  0.004738002295520979  0.9996190906039029  1.0000
  Si  Si10      1.0  0.008008734056493412  0.005133163389467262  0.9996722504737694  1.0000
  Si  Si11      1.0  0.0010790363243531928  0.0085570575047644  0.9993998705181031  1.0000
  Si  Si12      1.0  0.00441236962922704  0.0018903908616568087  0.9991147547381422  1.0000
  Ir  Ir1       1.0  0.006495390928888595  0.008837638443496705  0.9995170132880801  1.0000
  Ir  Ir2       1.0  0.0001594321977826063  0.0022418098191514858  0.9992087128031425  1.0000
  Ir  Ir3       1.0  0.0034927654924635726  0.005575142846216831  0.9989235969217082  1.0000
  Ir  Ir4       1.0  0.0063747170458422035  0.004572707106329536  0.9995230227969105  1.0000
  Ir  Ir5       1.0  0.009840567831566812  0.007846462175017624  0.999233157688602  1.0000
  Ir  Ir6       1.0  0.0031739010395946017  0.0011797957527763712  0.9989480418814112  1.0000
  Ir  Ir7       1.0  0.0031959519367316487  0.0011687703260640204  0.9993766586982334  1.0000
  Ir  Ir8       1.0  0.006529285335528439  0.004502103500373591  0.9990915428099263  1.0000
  Ir  Ir9       1.0  0.009819679390621242  0.007713778047833896  0.9996579624147288  1.0000
  Ir  Ir10      1.0  0.0001613444986387198  0.0022340647729089777  0.9996236088802258  1.0000
  Ir  Ir11      1.0  0.0034707145784624097  0.00558616849379552  0.9993503282444844  1.0000
  Ir  Ir12      1.0  0.006804047680879095  0.008919501520860865  0.9990652118070535  1.0000
