data_image0
_chemical_formula_structural       CONa24Sn8Na24Sn8
_chemical_formula_sum              "C1 O1 Na48 Sn16"
_cell_length_a       7.029386043548584
_cell_length_b       19.961227462516412
_cell_length_c       105.14693450927734
_cell_angle_alpha    100.14128054365494
_cell_angle_beta     90.0
_cell_angle_gamma    79.85871945634506

_space_group_name_H-M_alt    "P 1"
_space_group_IT_number       1

loop_
  _space_group_symop_operation_xyz
  'x, y, z'

loop_
  _atom_site_type_symbol
  _atom_site_label
  _atom_site_symmetry_multiplicity
  _atom_site_fract_x
  _atom_site_fract_y
  _atom_site_fract_z
  _atom_site_occupancy
  C   C1        1.0  0.008767040021201091  0.0008144340459747904  0.00024860625492732525  1.0000
  O   O1        1.0  0.008767040021201091  0.0008144340459747904  0.00036273249526613685  1.0000
  Na  Na1       1.0  0.004687500352679333  0.006259110359308205  0.9991911677393869  1.0000
  Na  Na2       1.0  0.007187500306432289  0.0012591104518022928  0.9990240352892988  1.0000
  Na  Na3       1.0  0.002187500168642804  0.0012591104518022928  0.9993583001162967  1.0000
  Na  Na4       1.0  0.009687500755448594  0.006259110359308205  0.9988569026289541  1.0000
  Na  Na5       1.0  0.009687500755448594  0.006259110359308205  0.9991911677393869  1.0000
  Na  Na6       1.0  0.002187500168642804  0.0012591104518022928  0.9990240352892988  1.0000
  Na  Na7       1.0  0.007187500306432289  0.0012591104518022928  0.9993583001162967  1.0000
  Na  Na8       1.0  0.004687500352679333  0.006259110359308205  0.9988569026289541  1.0000
  Na  Na9       1.0  0.006562500396993955  0.007509110143488667  0.9990658182902513  1.0000
  Na  Na10      1.0  0.009062500254398904  0.002509110428678771  0.9988986858466045  1.0000
  Na  Na11      1.0  0.004062500381589196  0.002509110428678771  0.9992329506736023  1.0000
  Na  Na12      1.0  0.0015625005241842475  0.007509110143488667  0.9994000831172491  1.0000
  Na  Na13      1.0  0.0084375005858761  0.008759110698453193  0.9992747339773133  1.0000
  Na  Na14      1.0  0.0009375001917663257  0.003759110405555249  0.9991076015143429  1.0000
  Na  Na15      1.0  0.00593750032955581  0.003759110405555249  0.9994418663413407  1.0000
  Na  Na16      1.0  0.003437500183106838  0.008759110698453193  0.9989404688668804  1.0000
  Na  Na17      1.0  0.003437500183106838  0.008759110698453193  0.9992747339773133  1.0000
  Na  Na18      1.0  0.00593750032955581  0.003759110405555249  0.9991076015143429  1.0000
  Na  Na19      1.0  0.0009375001917663257  0.003759110405555249  0.9994418663413407  1.0000
  Na  Na20      1.0  0.0084375005858761  0.008759110698453193  0.9989404688668804  1.0000
  Na  Na21      1.0  0.007812500181174417  0.005009110575127743  0.9993165169050874  1.0000
  Na  Na22      1.0  0.0003125000012387446  9.110450086094037e-06  0.9991493844477279  1.0000
  Na  Na23      1.0  0.0053125003708855345  9.110450086094037e-06  0.9994836495581607  1.0000
  Na  Na24      1.0  0.00281250030836471  0.005009110575127743  0.9989822520780897  1.0000
  Sn  Sn1       1.0  0.007812500181174417  0.005009110575127743  0.9989822520780897  1.0000
  Sn  Sn2       1.0  0.0003125000012387446  9.110450086094037e-06  0.9994836495581607  1.0000
  Sn  Sn3       1.0  0.0053125003708855345  9.110450086094037e-06  0.9991493844477279  1.0000
  Sn  Sn4       1.0  0.00281250030836471  0.005009110575127743  0.9993165169050874  1.0000
  Sn  Sn5       1.0  0.006562500396993955  0.007509110143488667  0.9994000831172491  1.0000
  Sn  Sn6       1.0  0.009062500254398904  0.002509110428678771  0.9992329506736023  1.0000
  Sn  Sn7       1.0  0.004062500381589196  0.002509110428678771  0.9988986858466045  1.0000
  Sn  Sn8       1.0  0.0015625005241842475  0.007509110143488667  0.9990658182902513  1.0000
  Na  Na25      1.0  0.004687500352679333  0.006259110359308205  0.9998596976768175  1.0000
  Na  Na26      1.0  0.007187500306432289  0.0012591104518022928  0.9996925652267294  1.0000
  Na  Na27      1.0  0.0020007843594056704  0.0013230324412591016  4.4224331508819076e-05  1.0000
  Na  Na28      1.0  0.009687500755448594  0.006259110359308205  0.9995254325663847  1.0000
  Na  Na29      1.0  0.009687500755448594  0.006259110359308205  0.9998596976768175  1.0000
  Na  Na30      1.0  0.002187500168642804  0.0012591104518022928  0.9996925652267294  1.0000
  Na  Na31      1.0  0.007328117318392938  0.0013174681511100325  4.373959631618068e-05  1.0000
  Na  Na32      1.0  0.004687500352679333  0.006259110359308205  0.9995254325663847  1.0000
  Na  Na33      1.0  0.006562500396993955  0.007509110143488667  0.9997343482276819  1.0000
  Na  Na34      1.0  0.009062500254398904  0.002509110428678771  0.9995672157840351  1.0000
  Na  Na35      1.0  0.0040756733885615  0.002483190502216257  0.9998817632198029  1.0000
  Na  Na36      1.0  0.0015802881760181946  0.007473045157192098  9.432790252590284e-05  1.0000
  Na  Na37      1.0  0.008518025105223046  0.0087200180723581  0.9999471984656405  1.0000
  Na  Na38      1.0  0.0009375001917663257  0.003759110405555249  0.9997761314517735  1.0000
  Na  Na39      1.0  0.00595035087413007  0.0037566088258795594  9.284087544745833e-05  1.0000
  Na  Na40      1.0  0.003437500183106838  0.008759110698453193  0.999608998804311  1.0000
  Na  Na41      1.0  0.0034095974501533017  0.008713648312863446  0.9999471040227684  1.0000
  Na  Na42      1.0  0.00593750032955581  0.003759110405555249  0.9997761314517735  1.0000
  Na  Na43      1.0  0.0009322686220873165  0.0037607544879611175  9.29732148119971e-05  1.0000
  Na  Na44      1.0  0.0084375005858761  0.008759110698453193  0.999608998804311  1.0000
  Na  Na45      1.0  0.007668996693962381  0.005296810736649551  2.179943365324739e-05  1.0000
  Na  Na46      1.0  0.0003125000012387446  9.110450086094037e-06  0.9998179146685936  1.0000
  Na  Na47      1.0  0.00539140050625833  0.009849720046295387  0.00015934212711460723  1.0000
  Na  Na48      1.0  0.00281250030836471  0.005009110575127743  0.9996507820155203  1.0000
  Sn  Sn9       1.0  0.007812500181174417  0.005009110575127743  0.9996507820155203  1.0000
  Sn  Sn10      1.0  0.00036621771796475905  0.009990889147389994  0.00011861948027795883  1.0000
  Sn  Sn11      1.0  0.0053125003708855345  9.110450086094037e-06  0.9998179146685936  1.0000
  Sn  Sn12      1.0  0.0028366053761029733  0.004979985343140239  0.9999768527813553  1.0000
  Sn  Sn13      1.0  0.00657924383339748  0.007479720917959668  4.115586206998007e-05  1.0000
  Sn  Sn14      1.0  0.00905474369135245  0.0025208269245207793  0.9999082084420101  1.0000
  Sn  Sn15      1.0  0.004062500381589196  0.002509110428678771  0.9995672157840351  1.0000
  Sn  Sn16      1.0  0.0015625005241842475  0.007509110143488667  0.9997343482276819  1.0000
