data_image0
_chemical_formula_structural       HCo12As24
_chemical_formula_sum              "H1 Co12 As24"
_cell_length_a       5.975691455619187
_cell_length_b       13.302637398019934
_cell_length_c       103.82884216308594
_cell_angle_alpha    107.54325739950771
_cell_angle_beta     108.22007822681854
_cell_angle_gamma    101.46562003180776

_space_group_name_H-M_alt    "P 1"
_space_group_IT_number       1

loop_
  _space_group_symop_operation_xyz
  'x, y, z'

loop_
  _atom_site_type_symbol
  _atom_site_label
  _atom_site_symmetry_multiplicity
  _atom_site_fract_x
  _atom_site_fract_y
  _atom_site_fract_z
  _atom_site_occupancy
  H   H1        1.0  0.006852037520552753  0.004806519342803877  0.00030892540500286446  1.0000
  Co  Co1       1.0  0.006990382453068773  0.005713138779324682  0.9994619893945526  1.0000
  Co  Co2       1.0  0.006990382542522583  0.0023798057936355445  0.9997335007543209  1.0000
  Co  Co3       1.0  0.007100860958498266  0.00906944235526837  8.837707497401122e-06  1.0000
  Co  Co4       1.0  0.002426867239295666  0.004283559730656402  0.9996363681371209  1.0000
  Co  Co5       1.0  0.0024268672123094704  0.0009502263569715097  0.9999078791927767  1.0000
  Co  Co6       1.0  0.0024690802834303944  0.007535829849739835  0.00016620715580008348  1.0000
  Co  Co7       1.0  0.0024268672350678086  0.0009535275024501963  0.9995003435053029  1.0000
  Co  Co8       1.0  0.0024268669524182074  0.007620193784225075  0.9997718549334175  1.0000
  Co  Co9       1.0  0.002412461386522827  0.0042846060776072165  4.519856947444399e-05  1.0000
  Co  Co10      1.0  0.007044621994202021  0.0023330401997472172  0.0001330587915649488  1.0000
  Co  Co11      1.0  0.006990382431625557  0.009049773143289959  0.9995974762076129  1.0000
  Co  Co12      1.0  0.006990382644138106  0.005716440157600821  0.9998689872825625  1.0000
  As  As1       1.0  0.006277909031758496  0.004871749499451954  0.9996209308146407  1.0000
  As  As2       1.0  0.006277909224954288  0.0015384162033662129  0.9998924421642886  1.0000
  As  As3       1.0  0.006441471402654934  0.008327999850572592  0.00018151491534405166  1.0000
  As  As4       1.0  0.003139340617323417  0.0027022184705784943  0.999674766442603  1.0000
  As  As5       1.0  0.0032739863140405397  0.009414869698783588  0.999955632699078  1.0000
  As  As6       1.0  0.004087777417533169  0.006152701342407204  0.00019955302594000602  1.0000
  As  As7       1.0  0.0030212358661226295  0.0018023672319996988  0.00015714119987571767  1.0000
  As  As8       1.0  0.0031393405981431453  0.008461583374494406  0.9996129135293549  1.0000
  As  As9       1.0  0.0031393405862410345  0.005128250078408665  0.9998844248753121  1.0000
  As  As10      1.0  0.006080553382918418  0.003856275526023413  9.214142287135977e-05  1.0000
  As  As11      1.0  0.006277909294177126  0.0006311146703089449  0.9995590778134369  1.0000
  As  As12      1.0  0.006277909041695695  0.007297781107282125  0.9998305892480879  1.0000
  As  As13      1.0  0.008174639119185124  0.0033271169833049737  0.9995892795225106  1.0000
  As  As14      1.0  0.008174638814832703  0.009993783575476456  0.9998607906751886  1.0000
  As  As15      1.0  0.008175179738698513  0.006740292045757763  0.0001394144835003149  1.0000
  As  As16      1.0  0.0012426111667682878  0.005779728783493234  0.999581559534738  1.0000
  As  As17      1.0  0.0012426111765689986  0.002446395177010889  0.9998530705820655  1.0000
  As  As18      1.0  0.0011486050279741744  0.008956531865941088  0.00011260244104280321  1.0000
  As  As19      1.0  0.0010885617432594926  0.003316133599485757  0.00017951318565268549  1.0000
  As  As20      1.0  0.0012426112137568543  6.216400079812155e-06  0.9996445647504781  1.0000
  As  As21      1.0  0.0012426111527416295  0.006672883215348853  0.9999160762031839  1.0000
  As  As22      1.0  0.008911438328546755  0.0009771435624419832  0.00019568242749706756  1.0000
  As  As23      1.0  0.008174638523469694  0.00755360440084973  0.9996522845352972  1.0000
  As  As24      1.0  0.008174638777001824  0.004220271415160593  0.9999237958980182  1.0000
