data_image0
_chemical_formula_structural       HAl3Fe3Al3Fe3Al3Fe3Al3Fe3
_chemical_formula_sum              "H1 Al12 Fe12"
_cell_length_a       5.778298377990723
_cell_length_b       6.460333937579116
_cell_length_c       102.6869888305664
_cell_angle_alpha    71.56505050841427
_cell_angle_beta     90.0
_cell_angle_gamma    90.0

_space_group_name_H-M_alt    "P 1"
_space_group_IT_number       1

loop_
  _space_group_symop_operation_xyz
  'x, y, z'

loop_
  _atom_site_type_symbol
  _atom_site_label
  _atom_site_symmetry_multiplicity
  _atom_site_fract_x
  _atom_site_fract_y
  _atom_site_fract_z
  _atom_site_occupancy
  H   H1        1.0  0.001250000112823146  0.007630872969781175  5.462171336006833e-05  1.0000
  Al  Al1       1.0  0.0012499997904713  0.006673234118280738  0.999468039943817  1.0000
  Al  Al2       1.0  0.0012499997904713  0.0033399002662636906  0.999335407644917  1.0000
  Al  Al3       1.0  0.0012499997904713  6.567000116423928e-06  0.9996006719485759  1.0000
  Fe  Fe1       1.0  0.0037499999355296307  0.006673234118280738  0.9992690916367097  1.0000
  Fe  Fe2       1.0  0.0037499999355296307  0.0033399002662636906  0.9995343559520243  1.0000
  Fe  Fe3       1.0  0.0037499999355296307  6.567000116423928e-06  0.9994017236414685  1.0000
  Al  Al4       1.0  0.0012499999516472232  0.00672520865770516  0.9998653030453777  1.0000
  Al  Al5       1.0  0.0012500001934111077  0.003368547714810526  0.9997290197352305  1.0000
  Al  Al6       1.0  0.0012500002739990691  0.00032390762061360853  0.9999857302983236  1.0000
  Fe  Fe4       1.0  0.0037499999355296307  0.006673234118280738  0.9996669879606996  1.0000
  Fe  Fe5       1.0  0.003750000257881477  0.0034760529175647675  0.9999249170709972  1.0000
  Fe  Fe6       1.0  0.0037499999355296307  0.009993433318307066  0.9998011826491503  1.0000
  Al  Al7       1.0  0.0062499999999999995  0.006673234118280738  0.999468039943817  1.0000
  Al  Al8       1.0  0.0062499999999999995  0.0033399002662636906  0.999335407644917  1.0000
  Al  Al9       1.0  0.0062499999999999995  6.567000116423928e-06  0.9996006719485759  1.0000
  Fe  Fe7       1.0  0.008749999742118523  0.006673234118280738  0.9992690916367097  1.0000
  Fe  Fe8       1.0  0.008749999742118523  0.0033399002662636906  0.9995343559520243  1.0000
  Fe  Fe9       1.0  0.008749999742118523  6.567000116423928e-06  0.9994017236414685  1.0000
  Al  Al10      1.0  0.0062499999999999995  0.00672520865770516  0.9998653030453777  1.0000
  Al  Al11      1.0  0.0062499999999999995  0.003368547714810526  0.9997290197352305  1.0000
  Al  Al12      1.0  0.006250000644703692  0.00032390762061360853  0.9999857302983236  1.0000
  Fe  Fe10      1.0  0.008749999742118523  0.006673234118280738  0.9996669879606996  1.0000
  Fe  Fe11      1.0  0.008750000386822216  0.0034760529175647675  0.9999249170709972  1.0000
  Fe  Fe12      1.0  0.008749999742118523  0.009993433318307066  0.9998011826491503  1.0000
