data_image0
_chemical_formula_structural       COSi9As12
_chemical_formula_sum              "C1 O1 Si9 As12"
_cell_length_a       7.647351695857116
_cell_length_b       7.6473517417907715
_cell_length_c       107.46421813964844
_cell_angle_alpha    90.0
_cell_angle_beta     90.0
_cell_angle_gamma    59.99999980130728

_space_group_name_H-M_alt    "P 1"
_space_group_IT_number       1

loop_
  _space_group_symop_operation_xyz
  'x, y, z'

loop_
  _atom_site_type_symbol
  _atom_site_label
  _atom_site_symmetry_multiplicity
  _atom_site_fract_x
  _atom_site_fract_y
  _atom_site_fract_z
  _atom_site_occupancy
  C   C1        1.0  0.006854105234746583  0.0015729353211718538  0.0001603699136703927  1.0000
  O   O1        1.0  0.006854105234746583  0.0015729353211718538  0.0002720346605208884  1.0000
  Si  Si1       1.0  0.00019133225241728716  0.009904334107616007  0.9997297119210823  1.0000
  Si  Si2       1.0  0.004814862860194599  0.0025925638154681535  0.0  1.0000
  Si  Si3       1.0  0.0068579993854858004  0.00657100054108175  0.9994391953322731  1.0000
  Si  Si4       1.0  0.005191332681319488  0.009904334438755756  0.9997297119210823  1.0000
  Si  Si5       1.0  0.007873723609549126  0.0025852695580384265  0.9999987914254325  1.0000
  Si  Si6       1.0  0.0018579989917395178  0.006571000679498729  0.9994391953322731  1.0000
  Si  Si7       1.0  0.005191332681319488  0.004904333834708744  0.9997297119210823  1.0000
  Si  Si8       1.0  0.007873729796990716  0.009540973029720973  0.9999987936440181  1.0000
  Si  Si9       1.0  0.0018579989917395178  0.0015710005625864036  0.9994391953322731  1.0000
  As  As1       1.0  0.005382664687645348  9.566603839133854e-05  0.9995034866183784  1.0000
  As  As2       1.0  0.00869767201897614  0.0034115001468050647  0.9997997027538861  1.0000
  As  As3       1.0  0.0020493312793127233  0.006762332859469976  0.999212969752246  1.0000
  As  As4       1.0  0.005382664687645348  0.0045216695077879634  0.9995034866183784  1.0000
  As  As5       1.0  0.00869767764392304  0.007890832309280265  0.9997997033085325  1.0000
  As  As6       1.0  0.0020493312793127233  0.0011883360950419508  0.999212969752246  1.0000
  As  As7       1.0  0.009808667656177324  9.56662888236619e-05  0.9995034866183784  1.0000
  As  As8       1.0  0.003182601987487238  0.0034087025331115167  0.999799776521861  1.0000
  As  As9       1.0  0.00647533481033939  0.006762332828654955  0.999212969752246  1.0000
  As  As10      1.0  0.0068579993854858004  0.0015710004241694248  0.9992463206419877  1.0000
  As  As11      1.0  0.00019133225241728716  0.004904333990703682  0.9995368380627665  1.0000
  As  As12      1.0  0.0035251069729901746  0.008237444798790815  0.999831005889014  1.0000
