data_image0
_chemical_formula_structural       COPt12V4
_chemical_formula_sum              "C1 O1 Pt12 V4"
_cell_length_a       4.839169426964706
_cell_length_b       4.839169502258301
_cell_length_c       103.0905532836914
_cell_angle_alpha    90.0
_cell_angle_beta     90.0
_cell_angle_gamma    110.52204582428992

_space_group_name_H-M_alt    "P 1"
_space_group_IT_number       1

loop_
  _space_group_symop_operation_xyz
  'x, y, z'

loop_
  _atom_site_type_symbol
  _atom_site_label
  _atom_site_symmetry_multiplicity
  _atom_site_fract_x
  _atom_site_fract_y
  _atom_site_fract_z
  _atom_site_occupancy
  C   C1        1.0  0.00875  0.007499999645882721  0.00010114060094203165  1.0000
  O   O1        1.0  0.00875  0.007499999645882721  0.00021754277681384015  1.0000
  Pt  Pt1       1.0  0.00125  0.007499999538107896  0.0  1.0000
  Pt  Pt2       1.0  0.006249999589007226  0.0024999997991449483  0.9997325119326598  1.0000
  Pt  Pt3       1.0  0.006249999589007226  0.0024999997991449483  0.0  1.0000
  Pt  Pt4       1.0  0.00125  0.007499999538107896  0.9997325119326598  1.0000
  Pt  Pt5       1.0  0.006249999589007226  0.007499999594180327  0.9998662559663299  1.0000
  Pt  Pt6       1.0  0.00125  0.0024999998152431587  0.9995987684771672  1.0000
  Pt  Pt7       1.0  0.00125  0.007499999538107896  0.9994650244434972  1.0000
  Pt  Pt8       1.0  0.006249999589007226  0.0024999997991449483  0.9991975366652457  1.0000
  Pt  Pt9       1.0  0.006249999589007226  0.0024999997991449483  0.9994650244434972  1.0000
  Pt  Pt10      1.0  0.00125  0.007499999538107896  0.9991975366652457  1.0000
  Pt  Pt11      1.0  0.006249999589007226  0.007499999594180327  0.9993312804098271  1.0000
  Pt  Pt12      1.0  0.00125  0.0024999998152431587  0.9990637929206644  1.0000
  V   V1        1.0  0.00125  0.0024999998152431587  0.9998662559663299  1.0000
  V   V2        1.0  0.006249999589007226  0.007499999594180327  0.9995987684771672  1.0000
  V   V3        1.0  0.00125  0.0024999998152431587  0.9993312804098271  1.0000
  V   V4        1.0  0.006249999589007226  0.007499999594180327  0.9990637929206644  1.0000
