data_image0
_chemical_formula_structural       HIn18Pt26
_chemical_formula_sum              "H1 In18 Pt26"
_cell_length_a       9.699911822183802
_cell_length_b       9.038399696350098
_cell_length_c       109.21994018554688
_cell_angle_alpha    90.0
_cell_angle_beta     108.28195183452374
_cell_angle_gamma    90.0

_space_group_name_H-M_alt    "P 1"
_space_group_IT_number       1

loop_
  _space_group_symop_operation_xyz
  'x, y, z'

loop_
  _atom_site_type_symbol
  _atom_site_label
  _atom_site_symmetry_multiplicity
  _atom_site_fract_x
  _atom_site_fract_y
  _atom_site_fract_z
  _atom_site_occupancy
  H   H1        1.0  0.006626132276342757  0.003668868661282166  0.0001845998293370898  1.0000
  In  In1       1.0  0.006062498582737384  0.0010690236568405697  0.9996093031887786  1.0000
  In  In2       1.0  0.009127496440146942  0.003930976458564958  0.9997565489858758  1.0000
  In  In3       1.0  0.0008130277256626369  0.0010690236568405697  8.109543540449852e-05  1.0000
  In  In4       1.0  0.007012327440834269  0.006069023772246097  0.9999510578429405  1.0000
  In  In5       1.0  0.0014126773425888477  0.0010690236568405697  0.9997916443388061  1.0000
  In  In6       1.0  0.0017628562804070781  0.006069023772246097  0.999525121343052  1.0000
  In  In7       1.0  0.004127496262180175  0.003207070970521709  0.9993076849393245  1.0000
  In  In8       1.0  0.003697858600964287  0.003930976458564958  0.9998267395925062  1.0000
  In  In9       1.0  0.008697858778931054  0.003207070970521709  0.9993778751738597  1.0000
  In  In10      1.0  0.0010624984047706172  0.006069023772246097  5.816733455997079e-05  1.0000
  In  In11      1.0  0.004127496262180175  0.008930976573970484  0.9993076849393245  1.0000
  In  In12      1.0  0.005813028004746885  0.006069023772246097  0.9996322312924403  1.0000
  In  In13      1.0  0.0020123268583975775  0.0010690236568405697  0.9995021932393905  1.0000
  In  In14      1.0  0.006412677318320652  0.006069023772246097  0.9993427801873905  1.0000
  In  In15      1.0  0.006762856458373844  0.0010690236568405697  0.9999739853896034  1.0000
  In  In16      1.0  0.009127496440146942  0.008207071498089835  0.9997565489858758  1.0000
  In  In17      1.0  0.008697858778931054  0.008930976573970484  0.9993778751738597  1.0000
  In  In18      1.0  0.003697858600964287  0.008207071498089835  0.9998267395925062  1.0000
  Pt  Pt1       1.0  0.0010362134211313932  0.003469178767804501  0.9996145005894459  1.0000
  Pt  Pt2       1.0  0.006036213700215641  0.003668868661282166  6.336518454469532e-05  1.0000
  Pt  Pt3       1.0  0.008638382285454655  0.0010690236568405697  0.9998330810636525  1.0000
  Pt  Pt4       1.0  0.008928124315960463  0.006069023772246097  0.9995621735142225  1.0000
  Pt  Pt5       1.0  0.006789141745365512  0.003668868661282166  0.9995199234051056  1.0000
  Pt  Pt6       1.0  0.0014126773425888477  0.008591744499231809  0.9993427802426397  1.0000
  Pt  Pt7       1.0  0.008897230903117533  0.0010690236568405697  0.9995722509183782  1.0000
  Pt  Pt8       1.0  0.00918697212468349  0.006069023772246097  0.9993013436192768  1.0000
  Pt  Pt9       1.0  0.0014126773425888477  0.003546303045260386  0.9993427802426397  1.0000
  Pt  Pt10      1.0  0.006412677318320652  0.0010690236568405697  0.9993427801873905  1.0000
  Pt  Pt11      1.0  0.0017891411629288208  0.003469178767804501  0.9999687880853492  1.0000
  Pt  Pt12      1.0  0.008912677609538998  0.0035690239206246322  1.6076312466690126e-05  1.0000
  Pt  Pt13      1.0  0.008912677609538998  0.008569023623867562  1.6076312466690126e-05  1.0000
  Pt  Pt14      1.0  0.006036213700215641  0.008469178883210028  6.336518454469532e-05  1.0000
  Pt  Pt15      1.0  0.0010362134211313932  0.00866886918885029  0.9996145005894459  1.0000
  Pt  Pt16      1.0  0.0036383825119578133  0.006069023772246097  0.9993842164826391  1.0000
  Pt  Pt17      1.0  0.003928124137993696  0.0010690236568405697  1.103766000382534e-05  1.0000
  Pt  Pt18      1.0  0.0017891411629288208  0.00866886918885029  0.9999687880853492  1.0000
  Pt  Pt19      1.0  0.006412677318320652  0.0035917443838262807  0.9997916445564221  1.0000
  Pt  Pt20      1.0  0.003897230320680841  0.006069023772246097  2.1115598621712777e-05  1.0000
  Pt  Pt21      1.0  0.004186972351186649  0.0010690236568405697  0.9997502080491917  1.0000
  Pt  Pt22      1.0  0.006412677318320652  0.00854630357282851  0.9997916445564221  1.0000
  Pt  Pt23      1.0  0.0014126773425888477  0.006069023772246097  0.9997916443388061  1.0000
  Pt  Pt24      1.0  0.006789141745365512  0.008469178883210028  0.9995199234051056  1.0000
  Pt  Pt25      1.0  0.003912677431572231  0.008569023623867562  0.9995672122659154  1.0000
  Pt  Pt26      1.0  0.003912677431572231  0.0035690239206246322  0.9995672122659154  1.0000
