data_image0
_chemical_formula_structural       HPt40Se32
_chemical_formula_sum              "H1 Pt40 Se32"
_cell_length_a       8.203012986408115
_cell_length_b       19.198585750643705
_cell_length_c       108.63134002685547
_cell_angle_alpha    77.46349740147551
_cell_angle_beta     94.14323306490436
_cell_angle_gamma    48.19770246896406

_space_group_name_H-M_alt    "P 1"
_space_group_IT_number       1

loop_
  _space_group_symop_operation_xyz
  'x, y, z'

loop_
  _atom_site_type_symbol
  _atom_site_label
  _atom_site_symmetry_multiplicity
  _atom_site_fract_x
  _atom_site_fract_y
  _atom_site_fract_z
  _atom_site_occupancy
  H   H1        1.0  0.0019050605725340812  0.000615128085429455  0.9998439197207412  1.0000
  Pt  Pt1       1.0  0.0004967400775260324  0.0037628989170479152  0.9991128993412284  1.0000
  Pt  Pt2       1.0  0.007996740568631706  0.0012628988947575388  0.9994092481873148  1.0000
  Pt  Pt3       1.0  0.002996740195542649  0.006262899217967998  0.9988165500543136  1.0000
  Pt  Pt4       1.0  0.005402807287263067  0.008737998660687188  0.9996942726535091  1.0000
  Pt  Pt5       1.0  0.005924675044088957  0.009149964383544838  0.9990621723991349  1.0000
  Pt  Pt6       1.0  0.0034246740235096503  0.006649964361254461  0.9993585211217494  1.0000
  Pt  Pt7       1.0  0.008424674396598705  0.001649964038044002  0.9987658232535526  1.0000
  Pt  Pt8       1.0  0.0009331361233620115  0.004161754554976022  0.9996579407572667  1.0000
  Pt  Pt9       1.0  0.004655951448950333  0.0012395383015717462  0.9994071729000152  1.0000
  Pt  Pt10      1.0  0.0021156725371531088  0.008717696585784817  0.9996949104417319  1.0000
  Pt  Pt11      1.0  0.0071559520142028404  0.0037395383238621226  0.9991108236262292  1.0000
  Pt  Pt12      1.0  0.009655952124128545  0.006239538346152499  0.9988144748986463  1.0000
  Pt  Pt13      1.0  0.009228018296161546  0.005852473202866036  0.9994579001067522  1.0000
  Pt  Pt14      1.0  0.006638012369252618  0.0034164955999153464  0.9997433842198851  1.0000
  Pt  Pt15      1.0  0.001728017349729068  0.008352473225156413  0.9991615507094943  1.0000
  Pt  Pt16      1.0  0.004228017053847558  0.0008524732279427096  0.9988652018268132  1.0000
  Pt  Pt17      1.0  0.007423654740036489  0.005720383775373493  0.999084248230651  1.0000
  Pt  Pt18      1.0  0.004923654182874894  0.003220384031712822  0.9993805969451052  1.0000
  Pt  Pt19      1.0  0.009923653955490414  0.00822038435492328  0.9987878989281233  1.0000
  Pt  Pt20      1.0  0.002340942788809146  0.0007300144969252833  0.9996738122601025  1.0000
  Pt  Pt21      1.0  0.0015255787071432715  0.006349872923455275  0.9991907054504013  1.0000
  Pt  Pt22      1.0  0.009025578295686254  0.0038498731797946047  0.9994870542808748  1.0000
  Pt  Pt23      1.0  0.004025577906415372  0.008849872945745652  0.9988943567178501  1.0000
  Pt  Pt24      1.0  0.006131816733335445  0.0014500362180724239  0.9997233095468155  1.0000
  Pt  Pt25      1.0  0.007729037673378586  0.00928205325377797  0.9994358242915568  1.0000
  Pt  Pt26      1.0  0.00507562146232503  0.0067999563046207846  0.9997142253652541  1.0000
  Pt  Pt27      1.0  0.00022903734764692603  0.0017820533262216927  0.9991394752908163  1.0000
  Pt  Pt28      1.0  0.002729037006291285  0.004282053487826922  0.9988431260067395  1.0000
  Pt  Pt29      1.0  0.003627113576749051  0.008652564662955598  0.9993293663858106  1.0000
  Pt  Pt30      1.0  0.0010996101227954316  0.006151850791358296  0.9996290705750346  1.0000
  Pt  Pt31      1.0  0.0061271139517213745  0.0011525642477973363  0.9990330175228226  1.0000
  Pt  Pt32      1.0  0.008627113949838108  0.003652564339745139  0.9987366685176138  1.0000
  Pt  Pt33      1.0  0.006326346151744686  0.006251218503430542  0.9988155124871244  1.0000
  Pt  Pt34      1.0  0.003826345594583089  0.003751218759769872  0.999111861750266  1.0000
  Pt  Pt35      1.0  0.008889546526694965  0.008661715419762028  0.999700669871511  1.0000
  Pt  Pt36      1.0  0.0013263459359387309  0.0012512185981646425  0.9994082104856553  1.0000
  Pt  Pt37      1.0  0.007576345759471647  0.007501218793205437  0.9992600359736314  1.0000
  Pt  Pt38      1.0  0.005078859891956521  0.005032137752137148  0.9995549686987337  1.0000
  Pt  Pt39      1.0  7.634575329447632e-05  1.2186000802217275e-06  0.9989636869848221  1.0000
  Pt  Pt40      1.0  0.0025763455396202364  0.002501218748624684  0.9986673382506304  1.0000
  Se  Se1       1.0  0.0006211355854256689  0.005573694151283394  0.999059156874096  1.0000
  Se  Se2       1.0  0.008121136979094034  0.0030736938503633116  0.9993555057357952  1.0000
  Se  Se3       1.0  0.003121136606004978  0.008073694173573771  0.9987628081514814  1.0000
  Se  Se4       1.0  0.005674530363828516  0.0004552058141678596  0.9996543504589137  1.0000
  Se  Se5       1.0  0.005306818238706282  0.007503656245874051  0.9990964162704752  1.0000
  Se  Se6       1.0  0.0028068181125987506  0.005003655666324263  0.9993927650193473  1.0000
  Se  Se7       1.0  0.007806818663031784  3.6557999685658605e-06  0.9988000671345922  1.0000
  Se  Se8       1.0  0.00040439033127560175  0.002461958151262566  0.9996987758487692  1.0000
  Se  Se9       1.0  0.004531556698466655  0.009428743435127479  0.999460914962116  1.0000
  Se  Se10      1.0  0.0021358522783390616  0.006872933882713246  0.9997673353863716  1.0000
  Se  Se11      1.0  0.0070315553801225655  0.0019287435075712029  0.9991645660711843  1.0000
  Se  Se12      1.0  0.00953155662431982  0.004428743390546727  0.9988682173551341  1.0000
  Se  Se13      1.0  0.009845875101544223  0.007498781340536822  0.9994236556867243  1.0000
  Se  Se14      1.0  0.0074418017339288834  0.004941214191936761  0.9997258197606765  1.0000
  Se  Se15      1.0  0.002345872349986362  0.009998781920086611  0.9991273068069281  1.0000
  Se  Se16      1.0  0.004845873523803317  0.0024987815745857755  0.9988309579456262  1.0000
  Se  Se17      1.0  0.00710224309511051  0.008091862502187132  0.9987680246189878  1.0000
  Se  Se18      1.0  0.004602242985184805  0.0055918624798967555  0.9990643733465707  1.0000
  Se  Se19      1.0  0.009654239315933823  0.0005612277957089492  0.9996598620059912  1.0000
  Se  Se20      1.0  0.0021022433305859013  0.003091862457606379  0.9993607226253252  1.0000
  Se  Se21      1.0  0.007363380779869817  0.005472931061643198  0.9993297673952067  1.0000
  Se  Se22      1.0  0.0048463410436263635  0.003027437975600847  0.9996316670295895  1.0000
  Se  Se23      1.0  0.009863380889795522  0.007972931083933574  0.9990334181189364  1.0000
  Se  Se24      1.0  0.002363380835495381  0.0004729307036040258  0.9987370694113896  1.0000
  Se  Se25      1.0  0.00784534205381666  0.006935919242286977  0.9997621819230764  1.0000
  Se  Se26      1.0  0.005550448761142969  0.004410574783303659  0.9988630008908198  1.0000
  Se  Se27      1.0  0.0005504492825256964  0.009410574549254706  0.9994556985109304  1.0000
  Se  Se28      1.0  0.0030504484275993195  0.0019105749003281358  0.9991593496118384  1.0000
  Se  Se29      1.0  0.0077893098446017  0.009529507082027088  0.9991903045257988  1.0000
  Se  Se30      1.0  0.005289310629147775  0.007029506502477299  0.9994866538283265  1.0000
  Se  Se31      1.0  0.00028931086866862085  0.002029506597211399  0.9988939555537999  1.0000
  Se  Se32      1.0  0.002891408549101814  0.004508372974241669  0.9997927125382764  1.0000
