data_image0
_chemical_formula_structural       Re20Si20H
_chemical_formula_sum              "Re20 Si20 H1"
_cell_length_a       6.812972068786621
_cell_length_b       10.77225478590309
_cell_length_c       36.623390197753906
_cell_angle_alpha    104.96321745459315
_cell_angle_beta     90.0
_cell_angle_gamma    71.56505135377932

_space_group_name_H-M_alt    "P 1"
_space_group_IT_number       1

loop_
  _space_group_symop_operation_xyz
  'x, y, z'

loop_
  _atom_site_type_symbol
  _atom_site_label
  _atom_site_symmetry_multiplicity
  _atom_site_fract_x
  _atom_site_fract_y
  _atom_site_fract_z
  _atom_site_occupancy
  Re  Re1       1.0  0.007639145204736414  0.0026482977489315426  0.9988536556401515  1.0000
  Re  Re2       1.0  0.0056391452267085425  0.0066482977049872865  0.9983979823656224  1.0000
  Re  Re3       1.0  0.009639145015366892  0.008648297777722608  0.999309329060005  1.0000
  Re  Re4       1.0  0.003949609593087296  0.0006229774978163644  0.0001716474389000442  1.0000
  Re  Re5       1.0  0.0017850137686099966  0.004647038023188796  0.999755212035235  1.0000
  Re  Re6       1.0  0.005957543023128659  0.005648297668619627  0.9990814923428857  1.0000
  Re  Re7       1.0  0.003957542950393339  0.009648297814090268  0.9986258190827417  1.0000
  Re  Re8       1.0  0.00795754300115653  0.0016482977125638822  0.9995371656174148  1.0000
  Re  Re9       1.0  0.0019575429610734518  0.003648297595884306  0.998170145648503  1.0000
  Re  Re10      1.0  0.00996981627497835  0.00755346376384529  0.9999703761364298  1.0000
  Re  Re11      1.0  0.0004938632681087833  0.00425725929106435  0.9989758491409513  1.0000
  Re  Re12      1.0  0.008493863855030953  0.008257259057705198  0.9985201758520369  1.0000
  Re  Re13      1.0  0.0024938633171672415  0.000257259192947433  0.9994315224046915  1.0000
  Re  Re14      1.0  0.006409709786734179  0.002253457661351913  0.00022197678155403197  1.0000
  Re  Re15      1.0  0.004520548511703797  0.006322952238279164  0.9998803106627203  1.0000
  Re  Re16      1.0  0.008026620263553013  0.004185055847754889  4.6950116730238305e-05  1.0000
  Re  Re17      1.0  0.006001197744253076  0.008192356422174807  0.9995963402864135  1.0000
  Re  Re18      1.0  3.0183755272594573e-05  0.0001846182012265551  0.9982592383958161  1.0000
  Re  Re19      1.0  0.0040301839862467445  0.0021846182266081512  0.9991705854934779  1.0000
  Re  Re20      1.0  0.0020301839135114246  0.0061846183720787925  0.9987149118264586  1.0000
  Si  Si1       1.0  0.008211108448647201  0.0058130007402516  0.9996303160569954  1.0000
  Si  Si2       1.0  0.006161786157399477  0.009807417692226601  0.999177284178263  1.0000
  Si  Si3       1.0  0.00027455629925820325  0.001912769777424586  0.00014526639028151356  1.0000
  Si  Si4       1.0  0.0041617864414764455  0.003807417474020641  0.9987216107440243  1.0000
  Si  Si5       1.0  0.0021617863687411255  0.007807417619491282  0.9982659370770048  1.0000
  Si  Si6       1.0  0.00027578207388754216  0.002807417248238084  0.9994051207069024  1.0000
  Si  Si7       1.0  0.008275781966592082  0.006807417583123621  0.9989494474611437  1.0000
  Si  Si8       1.0  0.0022864980511341916  0.00884650379862635  0.9999178286018299  1.0000
  Si  Si9       1.0  0.006275782298022775  0.0008074172702102119  0.9984937740197123  1.0000
  Si  Si10      1.0  0.004348255280059242  0.0046348571300107  0.0002579890880009924  1.0000
  Si  Si11      1.0  0.00565298305525309  0.003939019913621473  0.9994910609158983  1.0000
  Si  Si12      1.0  0.0036529829825177693  0.007939020059092115  0.9990353876557545  1.0000
  Si  Si13      1.0  0.007808399146121397  0.00981538220980377  0.9999798671590691  1.0000
  Si  Si14      1.0  0.0016529828984904332  0.0019390200303010497  0.998579714235901  1.0000
  Si  Si15      1.0  0.009218785445875826  0.006110789748955497  0.00034478336617857475  1.0000
  Si  Si16      1.0  0.00803018432169881  0.004184618299343472  0.9984637898437658  1.0000
  Si  Si17      1.0  0.0059433000902609345  0.00828848902821636  0.00027790020118653903  1.0000
  Si  Si18      1.0  3.0183755272594573e-05  0.0001846182012265551  0.9989194635143815  1.0000
  Si  Si19      1.0  0.0034436671950036878  0.002424615045589529  0.9998583803898965  1.0000
  Si  Si20      1.0  0.0020301839135114246  0.0061846183720787925  0.999375136945024  1.0000
  H   H1        1.0  0.0026143403924621376  0.0035358264396817144  0.00021637053792538302  1.0000
