data_image0
_chemical_formula_structural       COV6As2V6As2
_chemical_formula_sum              "C1 O1 V12 As4"
_cell_length_a       4.746585369110107
_cell_length_b       4.746585369110107
_cell_length_c       103.2260971069336
_cell_angle_alpha    90.0
_cell_angle_beta     90.0
_cell_angle_gamma    90.0

_space_group_name_H-M_alt    "P 1"
_space_group_IT_number       1

loop_
  _space_group_symop_operation_xyz
  'x, y, z'

loop_
  _atom_site_type_symbol
  _atom_site_label
  _atom_site_symmetry_multiplicity
  _atom_site_fract_x
  _atom_site_fract_y
  _atom_site_fract_z
  _atom_site_occupancy
  C   C1        1.0  0.006245902921482963  0.004999682894928639  0.00014833993419537  1.0000
  O   O1        1.0  0.006245902921482963  0.004999682894928639  0.0002645898424551393  1.0000
  V   V1        1.0  0.0037459052916871895  4.314999848910303e-08  0.9993055195823911  1.0000
  V   V2        1.0  0.008745905260293755  4.314999848910303e-08  0.9993055195823911  1.0000
  V   V3        1.0  0.0012459051111749471  0.005000043134577571  0.9991905636686994  1.0000
  V   V4        1.0  0.0012459051111749471  0.005000043134577571  0.999420475784792  1.0000
  V   V5        1.0  0.006245905275990472  0.002500043150274288  0.9995354316984836  1.0000
  V   V6        1.0  0.006245905275990472  0.007500042726462936  0.9995354316984836  1.0000
  As  As1       1.0  0.006245905275990472  0.005000043134577571  0.9993055195823911  1.0000
  As  As2       1.0  0.0012459051111749471  4.314999848910303e-08  0.9995354316984836  1.0000
  V   V7        1.0  0.0037377241629280014  0.009999943429032907  0.9997657373251956  1.0000
  V   V8        1.0  0.008754095022247145  0.009999956771242128  0.9997657384800324  1.0000
  V   V9        1.0  0.0012459051111749471  0.005000043134577571  0.9996503876121753  1.0000
  V   V10       1.0  0.0012459104088168433  0.004999176675814127  0.9998989748819128  1.0000
  V   V11       1.0  0.0062459017442292085  0.0027024130707037383  0.9999805589008867  1.0000
  V   V12       1.0  0.006245904098736718  0.007296953111571459  0.9999805375364069  1.0000
  As  As3       1.0  0.006245892326199171  0.004999867331350206  0.9997585946599536  1.0000
  As  As4       1.0  0.0012459053073839064  0.00999939404394739  0.0  1.0000
