data_image0
_chemical_formula_structural       HAl12
_chemical_formula_sum              "H1 Al12"
_cell_length_a       5.741629600524902
_cell_length_b       5.741629390436384
_cell_length_c       98.12812805175781
_cell_angle_alpha    90.0
_cell_angle_beta     90.0
_cell_angle_gamma    59.9999987895993

_space_group_name_H-M_alt    "P 1"
_space_group_IT_number       1

loop_
  _space_group_symop_operation_xyz
  'x, y, z'

loop_
  _atom_site_type_symbol
  _atom_site_label
  _atom_site_symmetry_multiplicity
  _atom_site_fract_x
  _atom_site_fract_y
  _atom_site_fract_z
  _atom_site_occupancy
  H   H1        1.0  0.0008333333551608042  0.000833333354560499  0.00015286183072419596  1.0000
  Al  Al1       1.0  0.0008333333551608042  0.000833333354560499  0.0  1.0000
  Al  Al2       1.0  0.004166666566774123  0.004166666866451755  0.999522255376365  1.0000
  Al  Al3       1.0  0.0024999998564525137  0.0025000001573307574  0.9997611276881825  1.0000
  Al  Al4       1.0  0.0008333332409807758  0.005833333388274233  0.0  1.0000
  Al  Al5       1.0  0.004166666337213455  0.00916666680651623  0.999522255376365  1.0000
  Al  Al6       1.0  0.002499999670354604  0.007500000659290793  0.9997611276881825  1.0000
  Al  Al7       1.0  0.005833333322719751  0.000833333354560499  0.0  1.0000
  Al  Al8       1.0  0.009166666047717261  0.004166666866451755  0.999522255376365  1.0000
  Al  Al9       1.0  0.007499999661806192  0.0025000001573307574  0.9997611276881825  1.0000
  Al  Al10      1.0  0.005833333046334453  0.005833333388274233  0.0  1.0000
  Al  Al11      1.0  0.009166665818156595  0.00916666680651623  0.999522255376365  1.0000
  Al  Al12      1.0  0.007499999151297743  0.007500000659290793  0.9997611276881825  1.0000
