data_image0
_chemical_formula_structural       COSn6
_chemical_formula_sum              "C1 O1 Sn6"
_cell_length_a       4.756452560424805
_cell_length_b       4.756452615408935
_cell_length_c       104.95264434814453
_cell_angle_alpha    90.0
_cell_angle_beta     90.0
_cell_angle_gamma    119.99999961760149

_space_group_name_H-M_alt    "P 1"
_space_group_IT_number       1

loop_
  _space_group_symop_operation_xyz
  'x, y, z'

loop_
  _atom_site_type_symbol
  _atom_site_label
  _atom_site_symmetry_multiplicity
  _atom_site_fract_x
  _atom_site_fract_y
  _atom_site_fract_z
  _atom_site_occupancy
  C   C1        1.0  0.009999998283516894  0.009999998227434121  0.00016503170389710122  1.0000
  O   O1        1.0  0.009999998283516894  0.009999998227434121  0.00027936921671754133  1.0000
  Sn  Sn1       1.0  0.003333331709377448  0.006666665032770909  0.0  1.0000
  Sn  Sn2       1.0  1.650000048526415e-09  1.8000000488809191e-09  0.9996279860885003  1.0000
  Sn  Sn3       1.0  0.006666668237917196  0.0033333350034039054  0.9992579499563765  1.0000
  Sn  Sn4       1.0  1.650000048526415e-09  1.8000000488809191e-09  0.9993504592023773  1.0000
  Sn  Sn5       1.0  0.006666668237917196  0.0033333350034039054  0.9989804230702535  1.0000
  Sn  Sn6       1.0  0.0033333351093774886  0.006666665032770909  0.9997263145208254  1.0000
