data_image0
_chemical_formula_structural       Ga12Sb12CO
_chemical_formula_sum              "Ga12 Sb12 C1 O1"
_cell_length_a       8.53698333664191
_cell_length_b       10.594666936234555
_cell_length_c       99.99308013916016
_cell_angle_alpha    85.7278943834156
_cell_angle_beta     89.1075731968328
_cell_angle_gamma    74.82797711586873

_space_group_name_H-M_alt    "P 1"
_space_group_IT_number       1

loop_
  _space_group_symop_operation_xyz
  'x, y, z'

loop_
  _atom_site_type_symbol
  _atom_site_label
  _atom_site_symmetry_multiplicity
  _atom_site_fract_x
  _atom_site_fract_y
  _atom_site_fract_z
  _atom_site_occupancy
  Ga  Ga1       1.0  0.0004499462614129741  0.009246865318016752  0.999735900127636  1.0000
  Ga  Ga2       1.0  0.004191069729664561  0.00595369495878294  0.9995869912066941  1.0000
  Ga  Ga3       1.0  0.006900099389411273  0.002192341196187332  0.9998332613882931  1.0000
  Ga  Ga4       1.0  0.005147303764602596  0.008653077096816396  0.9997986923858837  1.0000
  Ga  Ga5       1.0  0.009341262379985546  0.00539775826274612  0.9997170183591476  1.0000
  Ga  Ga6       1.0  0.0012950534575678519  0.0025074465588189993  0.999921883702891  1.0000
  Ga  Ga7       1.0  0.001810117226944721  0.009287028409009615  0.9993013232596225  1.0000
  Ga  Ga8       1.0  0.005619640883912493  0.00595369495878294  0.9991584891981794  1.0000
  Ga  Ga9       1.0  0.008000592891133834  0.0026203616912021115  0.9994441571444683  1.0000
  Ga  Ga10      1.0  0.0069688473583762395  0.00873147307749963  0.9994203516433643  1.0000
  Ga  Ga11      1.0  0.0007783711899135095  0.0053981396272729555  0.9992775174624715  1.0000
  Ga  Ga12      1.0  0.00315932369263335  0.002064806177046281  0.999563185707587  1.0000
  Sb  Sb1       1.0  0.008062310530432798  0.00803820935321605  0.9996763130702319  1.0000
  Sb  Sb2       1.0  0.0007793804671051077  0.005015054941857719  0.9999593805157491  1.0000
  Sb  Sb3       1.0  0.004231055569395744  0.001272964927982246  0.9998249135393568  1.0000
  Sb  Sb4       1.0  0.0030270351801779533  0.00714036840012011  0.999813487747378  1.0000
  Sb  Sb5       1.0  0.007030564493401587  0.00414932057147939  0.9996525075711247  1.0000
  Sb  Sb6       1.0  0.009550053201009056  0.0007129715307172557  0.9999578806847935  1.0000
  Sb  Sb7       1.0  0.00949088168468073  0.00803820935321605  0.999247811061717  1.0000
  Sb  Sb8       1.0  0.001871834462032428  0.004704876268281067  0.9995334791843666  1.0000
  Sb  Sb9       1.0  0.005681357930325707  0.0013715427267314685  0.9993906451238952  1.0000
  Sb  Sb10      1.0  0.004649611990681746  0.007482654021706065  0.9993668393260091  1.0000
  Sb  Sb11      1.0  0.008459135647649519  0.00414932057147939  0.999224005264566  1.0000
  Sb  Sb12      1.0  0.0008400884045074152  0.0008159872125756382  0.9995096733894052  1.0000
  C   C1        1.0  0.006604806711093954  0.008345643225016222  0.9999375166766133  1.0000
  O   O1        1.0  0.006604806711093954  0.008345643225016222  5.752462813704713e-05  1.0000
