data_image0
_chemical_formula_structural       HAl12Pt8Al12Pt8
_chemical_formula_sum              "H1 Al24 Pt16"
_cell_length_a       11.355367557050036
_cell_length_b       7.378306865692139
_cell_length_c       99.8190689086914
_cell_angle_alpha    90.0
_cell_angle_beta     79.18895523781863
_cell_angle_gamma    71.04157966427898

_space_group_name_H-M_alt    "P 1"
_space_group_IT_number       1

loop_
  _space_group_symop_operation_xyz
  'x, y, z'

loop_
  _atom_site_type_symbol
  _atom_site_label
  _atom_site_symmetry_multiplicity
  _atom_site_fract_x
  _atom_site_fract_y
  _atom_site_fract_z
  _atom_site_occupancy
  H   H1        1.0  0.0004093155568559481  0.0015806512114625033  0.9998978682443803  1.0000
  Al  Al1       1.0  0.005425200938910095  0.0018504863711428774  0.9998842373590259  1.0000
  Al  Al2       1.0  0.00042520095129698897  0.004350486364949431  0.9995641682984157  1.0000
  Al  Al3       1.0  0.00042520095129698897  0.009350486445733065  0.9997775479904473  1.0000
  Al  Al4       1.0  0.005425200938910095  0.006850486451926511  0.9996708582641212  1.0000
  Al  Al5       1.0  0.008659296343368693  0.0019001050259096451  0.9996018493132274  1.0000
  Al  Al6       1.0  0.0036592960460832525  0.004400105174552366  0.9997085390461612  1.0000
  Al  Al7       1.0  0.0036592960460832525  0.009400105255336  0.999921918141066  1.0000
  Al  Al8       1.0  0.008659296343368693  0.006900105106693279  0.9998152284081321  1.0000
  Al  Al9       1.0  0.007191106185648178  0.009300866542549604  0.9996331774745293  1.0000
  Al  Al10      1.0  0.002191105888362737  0.0018008670345227725  0.9997398672074632  1.0000
  Al  Al11      1.0  0.002191105888362737  0.006800867115306406  0.9999532463023679  1.0000
  Al  Al12      1.0  0.007191106185648178  0.004300866966663687  0.9998465565694341  1.0000
  Pt  Pt1       1.0  0.006259717270107414  0.003099894562540285  0.999653051400279  1.0000
  Pt  Pt2       1.0  0.0012597174152110212  0.0055998944899884814  0.9997597411237732  1.0000
  Pt  Pt3       1.0  0.0012597174152110212  0.0005998946616537053  0.9995463614317416  1.0000
  Pt  Pt4       1.0  0.006259717270107414  0.00809989464332392  0.9998664304951838  1.0000
  Pt  Pt5       1.0  0.00959068455108698  0.008101077359830202  0.9995819754025811  1.0000
  Pt  Pt6       1.0  0.004590684607712778  0.0006010776748477522  0.9996886651279633  1.0000
  Pt  Pt7       1.0  0.004590684607712778  0.005601077755631387  0.999902044222868  1.0000
  Pt  Pt8       1.0  0.00959068455108698  0.003101077783944286  0.9997953544974859  1.0000
  Al  Al13      1.0  0.005425200938910095  0.0018504863711428774  0.9994574785720896  1.0000
  Al  Al14      1.0  0.00042520095129698897  0.004350486364949431  0.9991374095114793  1.0000
  Al  Al15      1.0  0.00042520095129698897  0.009350486445733065  0.9993507889049474  1.0000
  Al  Al16      1.0  0.005425200938910095  0.006850486451926511  0.9992440991786213  1.0000
  Al  Al17      1.0  0.008659296343368693  0.0019001050259096451  0.9991750902277275  1.0000
  Al  Al18      1.0  0.0036592960460832525  0.004400105174552366  0.9992817799606615  1.0000
  Al  Al19      1.0  0.0036592960460832525  0.009400105255336  0.9994951593541296  1.0000
  Al  Al20      1.0  0.008659296343368693  0.006900105106693279  0.9993884696211958  1.0000
  Al  Al21      1.0  0.007191106185648178  0.009300866542549604  0.9992064183890296  1.0000
  Al  Al22      1.0  0.002191105888362737  0.0018008670345227725  0.9993131081219635  1.0000
  Al  Al23      1.0  0.002191105888362737  0.006800867115306406  0.9995264875154316  1.0000
  Al  Al24      1.0  0.007191106185648178  0.004300866966663687  0.9994197977824978  1.0000
  Pt  Pt9       1.0  0.006259717270107414  0.003099894562540285  0.9992262923147792  1.0000
  Pt  Pt10      1.0  0.0012597174152110212  0.0055998944899884814  0.9993329820382735  1.0000
  Pt  Pt11      1.0  0.0012597174152110212  0.0005998946616537053  0.9991196026448053  1.0000
  Pt  Pt12      1.0  0.006259717270107414  0.00809989464332392  0.9994396717082474  1.0000
  Pt  Pt13      1.0  0.00959068455108698  0.008101077359830202  0.9991552163170814  1.0000
  Pt  Pt14      1.0  0.004590684607712778  0.0006010776748477522  0.9992619060424636  1.0000
  Pt  Pt15      1.0  0.004590684607712778  0.005601077755631387  0.9994752854359317  1.0000
  Pt  Pt16      1.0  0.00959068455108698  0.003101077783944286  0.9993685957105496  1.0000
