data_image0
_chemical_formula_structural       COK4
_chemical_formula_sum              "C1 O1 K4"
_cell_length_a       5.43741512298584
_cell_length_b       5.43741512298584
_cell_length_c       102.6244888305664
_cell_angle_alpha    90.0
_cell_angle_beta     90.0
_cell_angle_gamma    90.0

_space_group_name_H-M_alt    "P 1"
_space_group_IT_number       1

loop_
  _space_group_symop_operation_xyz
  'x, y, z'

loop_
  _atom_site_type_symbol
  _atom_site_label
  _atom_site_symmetry_multiplicity
  _atom_site_fract_x
  _atom_site_fract_y
  _atom_site_fract_z
  _atom_site_occupancy
  C   C1        1.0  0.007500000301453483  0.002499999986297569  0.00019488507230992156  1.0000
  O   O1        1.0  0.007500000301453483  0.002499999986297569  0.00031181646417787205  1.0000
  K   K1        1.0  0.002499999986297569  0.007500000301453483  0.9997350822430524  1.0000
  K   K2        1.0  0.007500000301453483  0.002499999986297569  0.0  1.0000
  K   K3        1.0  0.002499999986297569  0.007500000301453483  0.9992052458579522  1.0000
  K   K4        1.0  0.007500000301453483  0.002499999986297569  0.9994701639053015  1.0000
