data_image0
_chemical_formula_structural       COSn12Pd12
_chemical_formula_sum              "C1 O1 Sn12 Pd12"
_cell_length_a       7.39004577825005
_cell_length_b       7.676578431485223
_cell_length_c       109.43994140625
_cell_angle_alpha    69.68118238053964
_cell_angle_beta     72.45467483766436
_cell_angle_gamma    73.2775500753395

_space_group_name_H-M_alt    "P 1"
_space_group_IT_number       1

loop_
  _space_group_symop_operation_xyz
  'x, y, z'

loop_
  _atom_site_type_symbol
  _atom_site_label
  _atom_site_symmetry_multiplicity
  _atom_site_fract_x
  _atom_site_fract_y
  _atom_site_fract_z
  _atom_site_occupancy
  C   C1        1.0  0.007721619242899275  0.0018178206858820592  0.9997985386451081  1.0000
  O   O1        1.0  0.007721619242899275  0.0018178206858820592  0.999908187504198  1.0000
  Sn  Sn1       1.0  0.004466832588743387  0.007098029124528065  0.9996939266658901  1.0000
  Sn  Sn2       1.0  0.007584968143444978  0.00037571600747828243  0.9993853064743092  1.0000
  Sn  Sn3       1.0  0.0009183014194168292  0.003709049379140776  0.9990849902572099  1.0000
  Sn  Sn4       1.0  0.009143427400372208  0.006137641530079938  0.999598648203842  1.0000
  Sn  Sn5       1.0  0.002425374485520941  0.009508619787183478  0.9992928067199655  1.0000
  Sn  Sn6       1.0  0.005758707962050138  0.002841953109943249  0.998992490587116  1.0000
  Sn  Sn7       1.0  0.006549563158594388  0.007446525249427776  0.9990281165310518  1.0000
  Sn  Sn8       1.0  0.00985576214412693  0.0011344347592313789  0.9996377911660507  1.0000
  Sn  Sn9       1.0  0.0032162298903618586  0.00411319204297718  0.9993284330489642  1.0000
  Sn  Sn10      1.0  0.006794112704048098  0.0057711439168964766  0.9993496806866231  1.0000
  Sn  Sn11      1.0  0.0001274460145759115  0.009104477123347074  0.9990493639282111  1.0000
  Sn  Sn12      1.0  0.003472365517712724  0.002440602130655519  0.9996550530995524  1.0000
  Pd  Pd1       1.0  0.006714599447757623  0.0039036623851863494  0.999612918640935  1.0000
  Pd  Pd2       1.0  0.0001377888839742015  0.007074335359464546  0.9993178652238667  1.0000
  Pd  Pd3       1.0  0.0034711222421530195  0.00040766861613955856  0.9990175485504026  1.0000
  Pd  Pd4       1.0  0.00673835891850036  0.009660729984129847  0.9996478982455775  1.0000
  Pd  Pd5       1.0  0.00987255363355253  0.002810000336070076  0.9993602485197244  1.0000
  Pd  Pd6       1.0  0.0032058868887908038  0.0061433338068597075  0.9990599317559993  1.0000
  Pd  Pd7       1.0  0.009735757038198957  0.002878398590055344  0.9989036115835306  1.0000
  Pd  Pd8       1.0  0.0031491626720070273  0.00623364946759327  0.9995047382137311  1.0000
  Pd  Pd9       1.0  0.0064024234510906795  0.009545065795973643  0.999203927705754  1.0000
  Pd  Pd10      1.0  0.0036079188513289777  0.0003392702960695315  0.9994741854879247  1.0000
  Pd  Pd11      1.0  0.006941251827571209  0.003672603634689646  0.9991738689727369  1.0000
  Pd  Pd12      1.0  0.0006353362754407119  0.007446135613690181  0.9997336120994349  1.0000
