data_image0
_chemical_formula_structural       COAu12Pd4
_chemical_formula_sum              "C1 O1 Au12 Pd4"
_cell_length_a       5.0435590744018555
_cell_length_b       5.043558731836737
_cell_length_c       105.29238891601562
_cell_angle_alpha    90.0
_cell_angle_beta     90.0
_cell_angle_gamma    108.65852112704547

_space_group_name_H-M_alt    "P 1"
_space_group_IT_number       1

loop_
  _space_group_symop_operation_xyz
  'x, y, z'

loop_
  _atom_site_type_symbol
  _atom_site_label
  _atom_site_symmetry_multiplicity
  _atom_site_fract_x
  _atom_site_fract_y
  _atom_site_fract_z
  _atom_site_occupancy
  C   C1        1.0  8.675491955797998e-10  0.010000000218287253  0.0001601403305034663  1.0000
  O   O1        1.0  8.675491955797998e-10  0.010000000218287253  0.00027410891305948225  1.0000
  Au  Au1       1.0  0.00500000008985869  5.000000351793831e-11  0.9990291546949094  1.0000
  Au  Au2       1.0  2.491187702528884e-10  0.0050000001091436265  0.9993084750042098  1.0000
  Au  Au3       1.0  2.491187702528884e-10  0.0050000001091436265  0.9990291546949094  1.0000
  Au  Au4       1.0  0.00500000008985869  5.000000351793831e-11  0.9993084750042098  1.0000
  Au  Au5       1.0  0.005000000138325273  0.0050000001091436265  0.9994481354419036  1.0000
  Au  Au6       1.0  2.499999929291208e-10  5.000000351793831e-11  0.9991688148495597  1.0000
  Au  Au7       1.0  0.00500000008985869  5.000000351793831e-11  0.9995877958795972  1.0000
  Au  Au8       1.0  0.009999999598271475  0.005000000498942292  0.9998743366276392  1.0000
  Au  Au9       1.0  2.491187702528884e-10  0.0050000001091436265  0.9995877958795972  1.0000
  Au  Au10      1.0  0.005000000691997168  0.009999999438689922  0.9998743366276392  1.0000
  Au  Au11      1.0  0.0049999996443064396  0.004999999719344961  0.0  1.0000
  Au  Au12      1.0  4.982375405057768e-10  0.010000000218287253  0.9997282494050743  1.0000
  Pd  Pd1       1.0  0.005000000138325273  0.0050000001091436265  0.9991688148495597  1.0000
  Pd  Pd2       1.0  2.499999929291208e-10  5.000000351793831e-11  0.9994481354419036  1.0000
  Pd  Pd3       1.0  0.004999999888910914  0.0049999993295462945  0.9997279437181343  1.0000
  Pd  Pd4       1.0  8.675491955797998e-10  0.010000000218287253  0.9999956411306696  1.0000
