data_image0
_chemical_formula_structural       COSn48Pt12
_chemical_formula_sum              "C1 O1 Sn48 Pt12"
_cell_length_a       11.669785499572754
_cell_length_b       14.71898864016602
_cell_length_c       107.21050262451172
_cell_angle_alpha    108.55468342890721
_cell_angle_beta     90.0
_cell_angle_gamma    90.0

_space_group_name_H-M_alt    "P 1"
_space_group_IT_number       1

loop_
  _space_group_symop_operation_xyz
  'x, y, z'

loop_
  _atom_site_type_symbol
  _atom_site_label
  _atom_site_symmetry_multiplicity
  _atom_site_fract_x
  _atom_site_fract_y
  _atom_site_fract_z
  _atom_site_occupancy
  C   C1        1.0  0.00935320240548542  0.0006090352774981913  7.59628446479758e-05  1.0000
  O   O1        1.0  0.00935320240548542  0.0006090352774981913  0.00018789184805987402  1.0000
  Sn  Sn1       1.0  0.0012892085264024724  0.005001699197176055  0.9997294262713416  1.0000
  Sn  Sn2       1.0  0.0012892085264024724  0.008335032658655582  0.999440193495035  1.0000
  Sn  Sn3       1.0  0.001067210582412337  0.0015724922261819967  1.7924222706273866e-05  1.0000
  Sn  Sn4       1.0  0.00878115712588005  0.0061102721664552774  0.9996332353480765  1.0000
  Sn  Sn5       1.0  0.00878115712588005  0.009443605627934806  0.9993440031277288  1.0000
  Sn  Sn6       1.0  0.008991954971852198  0.002815872722397891  0.999935064448095  1.0000
  Sn  Sn7       1.0  0.008659829181695621  0.008247332073126576  0.9998824736205975  1.0000
  Sn  Sn8       1.0  0.00878115712588005  0.001668365735696527  0.999584809763599  1.0000
  Sn  Sn9       1.0  0.00878115712588005  0.005001699197176055  0.9992955775432513  1.0000
  Sn  Sn10      1.0  0.0013137866367679096  0.006237362222337953  5.405974469681864e-05  1.0000
  Sn  Sn11      1.0  0.0012892085264024724  0.009443605627934806  0.9997778515778396  1.0000
  Sn  Sn12      1.0  0.0012892085264024724  0.0027769389719469874  0.9994886191299766  1.0000
  Sn  Sn13      1.0  0.0012892085264024724  0.007224194171453184  0.9996812678785975  1.0000
  Sn  Sn14      1.0  0.0012892085264024724  0.0005575270482657002  0.9993920354103237  1.0000
  Sn  Sn15      1.0  0.0013351304366155724  0.00392423184771571  0.9999651783473783  1.0000
  Sn  Sn16      1.0  0.008872993125287405  0.005058301905052077  0.9998819485282312  1.0000
  Sn  Sn17      1.0  0.00878115712588005  0.008332767140732406  0.9995850772333118  1.0000
  Sn  Sn18      1.0  0.00878115712588005  0.0016661003512589698  0.9992958450575966  1.0000
  Sn  Sn19      1.0  0.0011285717424701861  0.0083442095279805  2.5169181459318165e-05  1.0000
  Sn  Sn20      1.0  0.0012892085264024724  0.0016661003512589698  0.999729693785687  1.0000
  Sn  Sn21      1.0  0.0012892085264024724  0.004999433679252879  0.9994404612815282  1.0000
  Sn  Sn22      1.0  0.00878115712588005  0.007224194171453184  0.9992474194284867  1.0000
  Sn  Sn23      1.0  0.008741587239676654  0.0005813230623389886  0.9998240113276575  1.0000
  Sn  Sn24      1.0  0.00878115712588005  0.0038908604430024185  0.9995366516371711  1.0000
  Sn  Sn25      1.0  0.006289208778590427  0.006668365927915819  0.9995848098831883  1.0000
  Sn  Sn26      1.0  0.006289208778590427  1.6990500603023154e-06  0.9992955774256325  1.0000
  Sn  Sn27      1.0  0.0064105526840378055  0.003247354039520013  0.9998824811405632  1.0000
  Sn  Sn28      1.0  0.003781156793885781  0.0044436057026867514  0.9997778514699135  1.0000
  Sn  Sn29      1.0  0.003781156793885781  0.007776938897195041  0.9994886192379026  1.0000
  Sn  Sn30      1.0  0.003756503346359222  0.0012373253215734769  5.405524162000337e-05  1.0000
  Sn  Sn31      1.0  0.004003131354625695  0.006572494954628047  1.7922785219135443e-05  1.0000
  Sn  Sn32      1.0  0.003781156793885781  1.6990500603023154e-06  0.9997294261537227  1.0000
  Sn  Sn33      1.0  0.003781156793885781  0.003335032466436291  0.9994401936534251  1.0000
  Sn  Sn34      1.0  0.006078585229609688  0.00781612119786825  0.9999350481724855  1.0000
  Sn  Sn35      1.0  0.006289208778590427  0.0011102722412072233  0.9996332355181299  1.0000
  Sn  Sn36      1.0  0.006289208778590427  0.0044436057026867514  0.9993440030198026  1.0000
  Sn  Sn37      1.0  0.0063287748340907155  0.005581275066249875  0.9998240126777901  1.0000
  Sn  Sn38      1.0  0.006289208778590427  0.008890860902192948  0.9995366517684237  1.0000
  Sn  Sn39      1.0  0.006289208778590427  0.0022241938457482737  0.9992474193030657  1.0000
  Sn  Sn40      1.0  0.003781156793885781  0.006666100409992643  0.9997296933434856  1.0000
  Sn  Sn41      1.0  0.003781156793885781  0.009999433337529695  0.9994404610998116  1.0000
  Sn  Sn42      1.0  0.003941743379646091  0.0033441975890267494  2.517410827850303e-05  1.0000
  Sn  Sn43      1.0  0.006289208778590427  0.006666100409992643  0.9992958448933749  1.0000
  Sn  Sn44      1.0  0.006197050361671492  5.846095283322607e-05  0.9998819347949035  1.0000
  Sn  Sn45      1.0  0.006289208778590427  0.003332766948513115  0.999585077391702  1.0000
  Sn  Sn46      1.0  0.0037352879548719882  0.008924159156787109  0.9999651852901713  1.0000
  Sn  Sn47      1.0  0.003781156793885781  0.0022241938457482737  0.9996812680311561  1.0000
  Sn  Sn48      1.0  0.003781156793885781  0.005557526906770945  0.9993920355153341  1.0000
  Pt  Pt1       1.0  3.518270114462098e-05  0.006667233435925468  0.9994403275389345  1.0000
  Pt  Pt2       1.0  0.009964817571294185  0.009846782387464064  0.999987085953154  1.0000
  Pt  Pt3       1.0  3.518270114462098e-05  0.003333899707474703  0.9997295600255984  1.0000
  Pt  Pt4       1.0  6.129640222132616e-05  0.006663643740663269  0.9998607990161473  1.0000
  Pt  Pt5       1.0  3.518270114462098e-05  5.663500201007718e-07  0.9995849435224003  1.0000
  Pt  Pt6       1.0  3.518270114462098e-05  0.003333899707474703  0.9992957112975082  1.0000
  Pt  Pt7       1.0  0.005035182786238104  0.005000566705185705  0.9995849436491083  1.0000
  Pt  Pt8       1.0  0.005035182786238104  0.008333899632722757  0.9992957111274547  1.0000
  Pt  Pt9       1.0  0.005009015253308154  0.0016637345856360352  0.9998607973141252  1.0000
  Pt  Pt10      1.0  0.005035182786238104  0.008333899632722757  0.999729559855545  1.0000
  Pt  Pt11      1.0  0.005035182786238104  0.001667233110220558  0.9994403274135136  1.0000
  Pt  Pt12      1.0  0.0051055026839642555  0.004846784331014674  0.9999870903745425  1.0000
