data_image0
_chemical_formula_structural       COCa8Pb4Au8Ca8Pb4Au8Ca8Pb4Au8
_chemical_formula_sum              "C1 O1 Ca24 Pb12 Au24"
_cell_length_a       18.75397300720215
_cell_length_b       9.208264823424571
_cell_length_c       104.2116470336914
_cell_angle_alpha    65.6183142017011
_cell_angle_beta     90.0
_cell_angle_gamma    65.96283399235021

_space_group_name_H-M_alt    "P 1"
_space_group_IT_number       1

loop_
  _space_group_symop_operation_xyz
  'x, y, z'

loop_
  _atom_site_type_symbol
  _atom_site_label
  _atom_site_symmetry_multiplicity
  _atom_site_fract_x
  _atom_site_fract_y
  _atom_site_fract_z
  _atom_site_occupancy
  C   C1        1.0  0.003515626708304505  0.00774415739208299  0.9996980923513294  1.0000
  O   O1        1.0  0.003515626708304505  0.00774415739208299  0.9998132422895141  1.0000
  Ca  Ca1       1.0  0.005866185871011676  0.007641162026371391  0.998818453884601  1.0000
  Ca  Ca2       1.0  0.0008661857677188459  0.002641161887323351  0.9986360704371553  1.0000
  Ca  Ca3       1.0  0.006639286920836782  0.0018680607480066234  0.9986642708817398  1.0000
  Ca  Ca4       1.0  0.0016392867182239217  0.006868060887054663  0.9988466540432067  1.0000
  Ca  Ca5       1.0  0.008366186170958165  0.003594959678213915  0.9986012793515877  1.0000
  Ca  Ca6       1.0  0.0033661856207252024  0.008594959568961886  0.9987836625221117  1.0000
  Ca  Ca7       1.0  0.00913928667452311  0.007821858429645157  0.9988118626807174  1.0000
  Ca  Ca8       1.0  0.004139286620890293  0.0028218585388971873  0.9986294792242146  1.0000
  Pb  Pb1       1.0  0.005002736270780992  0.005231510158484254  0.9987239667019258  1.0000
  Pb  Pb2       1.0  2.736248185685263e-06  0.0002315102522175302  0.9989063500709503  1.0000
  Pb  Pb3       1.0  0.007502736322427408  0.007731509979708204  0.9986327750222251  1.0000
  Pb  Pb4       1.0  0.002502736219134577  0.0027315103372603042  0.9988151583816264  1.0000
  Au  Au1       1.0  0.00811808666200386  0.0008854599627499043  0.9988824961602273  1.0000
  Au  Au2       1.0  0.0031180864718060026  0.005885460039722927  0.9987001127849758  1.0000
  Au  Au3       1.0  0.009387386022082368  0.004616160012955782  0.9987464126288808  1.0000
  Au  Au4       1.0  0.004387386216749625  0.009616160152003821  0.9989287960763265  1.0000
  Au  Au5       1.0  0.005618086287567349  0.0008468603511897396  0.9988839041456935  1.0000
  Au  Au6       1.0  0.0006180863208395578  0.005846860304012727  0.9987015207749708  1.0000
  Au  Au7       1.0  0.006887386467036099  0.004577560277245582  0.9987478206188757  1.0000
  Au  Au8       1.0  0.0018873862644232385  0.009577560416293622  0.9989302040663214  1.0000
  Ca  Ca9       1.0  0.005866185871011676  0.007641162026371391  0.9991832204235835  1.0000
  Ca  Ca10      1.0  0.0008661857677188459  0.002641161887323351  0.9990008372621166  1.0000
  Ca  Ca11      1.0  0.006639286920836782  0.0018680607480066234  0.9990290374207224  1.0000
  Ca  Ca12      1.0  0.0016392867182239217  0.006868060887054663  0.9992114205821893  1.0000
  Ca  Ca13      1.0  0.008366186170958165  0.003594959678213915  0.9989660458905703  1.0000
  Ca  Ca14      1.0  0.0033661856207252024  0.008594959568961886  0.9991484290610942  1.0000
  Ca  Ca15      1.0  0.00913928667452311  0.007821858429645157  0.9991766292197  1.0000
  Ca  Ca16      1.0  0.004139286620890293  0.0028218585388971873  0.998994246049176  1.0000
  Pb  Pb5       1.0  0.005002736270780992  0.005231510158484254  0.9990887335268871  1.0000
  Pb  Pb6       1.0  2.736248185685263e-06  0.0002315102522175302  0.9992711168959116  1.0000
  Pb  Pb7       1.0  0.007502736322427408  0.007731509979708204  0.9989975418471865  1.0000
  Pb  Pb8       1.0  0.002502736219134577  0.0027315103372603042  0.9991799252065878  1.0000
  Au  Au9       1.0  0.00811808666200386  0.0008854599627499043  0.9992472629851886  1.0000
  Au  Au10      1.0  0.0031180864718060026  0.005885460039722927  0.9990648796099373  1.0000
  Au  Au11      1.0  0.009387386022082368  0.004616160012955782  0.9991111794538422  1.0000
  Au  Au12      1.0  0.004387386216749625  0.009616160152003821  0.999293562615309  1.0000
  Au  Au13      1.0  0.005618086287567349  0.0008468603511897396  0.9992486709706548  1.0000
  Au  Au14      1.0  0.0006180863208395578  0.005846860304012727  0.9990662875999321  1.0000
  Au  Au15      1.0  0.006887386467036099  0.004577560277245582  0.999112587443837  1.0000
  Au  Au16      1.0  0.0018873862644232385  0.009577560416293622  0.9992949706053039  1.0000
  Ca  Ca17      1.0  0.005809537003839722  0.007833953622663859  0.9995432046475093  1.0000
  Ca  Ca18      1.0  0.0008661857677188459  0.002641161887323351  0.9993656038010992  1.0000
  Ca  Ca19      1.0  0.006656098400092263  0.0018589939467938956  0.9994063442656038  1.0000
  Ca  Ca20      1.0  0.001594215586871597  0.007005729867766745  0.9995672966932879  1.0000
  Ca  Ca21      1.0  0.008366186170958165  0.003594959678213915  0.9993308124295528  1.0000
  Ca  Ca22      1.0  0.0033068959332932485  0.008787811253871337  0.9995117661965389  1.0000
  Ca  Ca23      1.0  0.009129782641595974  0.007887287981138793  0.9995341154369028  1.0000
  Ca  Ca24      1.0  0.004139286620890293  0.0028218585388971873  0.9993590125881585  1.0000
  Pb  Pb9       1.0  0.004935671612812603  0.005365547502369856  0.9994512504136865  1.0000
  Pb  Pb10      1.0  0.00999726387149495  0.0002542844432858962  0.9996111437360449  1.0000
  Pb  Pb11      1.0  0.007502736322427408  0.007731509979708204  0.999362308386169  1.0000
  Pb  Pb12      1.0  0.0024636520494905763  0.002877830340717595  0.9995328141431403  1.0000
  Au  Au17      1.0  0.008222711312031063  0.0010305658409390228  0.9996014001797665  1.0000
  Au  Au18      1.0  0.003142126090346406  0.005801056886666409  0.9994406207700927  1.0000
  Au  Au19      1.0  0.009434292190296694  0.0044902693943728485  0.9994804814401363  1.0000
  Au  Au20      1.0  0.0043267962314936115  0.009768489265459585  0.999644788166542  1.0000
  Au  Au21      1.0  0.005552047878632075  0.001031359842488447  0.9995999865078519  1.0000
  Au  Au22      1.0  0.0006558700436794549  0.00573638862318795  0.9994404779106947  1.0000
  Au  Au23      1.0  0.006869813476285696  0.004660046057160154  0.9994793875541826  1.0000
  Au  Au24      1.0  0.0017950381038670494  0.009656629090642351  0.9996477582840022  1.0000
