data_image0
_chemical_formula_structural       HIn3Si3Pt15In3Si3Pt15
_chemical_formula_sum              "H1 In6 Si6 Pt30"
_cell_length_a       8.987029301914092
_cell_length_b       7.174910545349121
_cell_length_c       104.10337829589844
_cell_angle_alpha    90.0
_cell_angle_beta     108.43494930359152
_cell_angle_gamma    90.0

_space_group_name_H-M_alt    "P 1"
_space_group_IT_number       1

loop_
  _space_group_symop_operation_xyz
  'x, y, z'

loop_
  _atom_site_type_symbol
  _atom_site_label
  _atom_site_symmetry_multiplicity
  _atom_site_fract_x
  _atom_site_fract_y
  _atom_site_fract_z
  _atom_site_occupancy
  H   H1        1.0  0.003975759871005535  0.0092574031387109  0.00015009757526780664  1.0000
  In  In1       1.0  0.007500000734060731  0.0007425970741654846  6.824818674469852e-05  1.0000
  In  In2       1.0  0.004166666783184243  0.0007425970741654846  0.9997042575275858  1.0000
  In  In3       1.0  0.0008333333238662803  0.0007425970741654846  0.999886252902552  1.0000
  Si  Si1       1.0  0.007500000734060731  0.005742596985899666  0.9997952551763918  1.0000
  Si  Si2       1.0  0.004166666783184243  0.005742596985899666  0.9999772505379387  1.0000
  Si  Si3       1.0  0.0008333333238662803  0.005742596985899666  0.9996132598921991  1.0000
  Pt  Pt1       1.0  0.005833333758622487  0.007772208730774582  0.9998862528571653  1.0000
  Pt  Pt2       1.0  0.002500000026216455  0.007772208730774582  6.82482246762981e-05  1.0000
  Pt  Pt3       1.0  0.009166667272558065  0.007772208730774582  0.9997042574836901  1.0000
  Pt  Pt4       1.0  0.005833333758622487  0.003712985241024749  0.9998862528571653  1.0000
  Pt  Pt5       1.0  0.002500000026216455  0.003712985241024749  6.82482246762981e-05  1.0000
  Pt  Pt6       1.0  0.009166667272558065  0.003712985241024749  0.9997042574836901  1.0000
  Pt  Pt7       1.0  0.009166667272558065  0.007772208730774582  0.9999772504940431  1.0000
  Pt  Pt8       1.0  0.005833333758622487  0.007772208730774582  0.9996132598468124  1.0000
  Pt  Pt9       1.0  0.002500000026216455  0.007772208730774582  0.9997952552143233  1.0000
  Pt  Pt10      1.0  0.009166667272558065  0.003712985241024749  0.9999772504940431  1.0000
  Pt  Pt11      1.0  0.005833333758622487  0.003712985241024749  0.9996132598468124  1.0000
  Pt  Pt12      1.0  0.002500000026216455  0.003712985241024749  0.9997952552143233  1.0000
  Pt  Pt13      1.0  0.007500000734060731  0.0007425970741654846  0.9997952551763918  1.0000
  Pt  Pt14      1.0  0.004166666783184243  0.0007425970741654846  0.9999772505379387  1.0000
  Pt  Pt15      1.0  0.0008333333238662803  0.0007425970741654846  0.9996132598921991  1.0000
  In  In4       1.0  0.007500000734060731  0.0007425970741654846  0.9995222621660389  1.0000
  In  In5       1.0  0.004166666783184243  0.0007425970741654846  0.99915827150688  1.0000
  In  In6       1.0  0.0008333333238662803  0.0007425970741654846  0.9993402668818461  1.0000
  Si  Si4       1.0  0.007500000734060731  0.005742596985899666  0.9992492691556859  1.0000
  Si  Si5       1.0  0.004166666783184243  0.005742596985899666  0.9994312645172329  1.0000
  Si  Si6       1.0  0.0008333333238662803  0.005742596985899666  0.9990672738714932  1.0000
  Pt  Pt16      1.0  0.005833333758622487  0.007772208730774582  0.9993402668364594  1.0000
  Pt  Pt17      1.0  0.002500000026216455  0.007772208730774582  0.9995222622039704  1.0000
  Pt  Pt18      1.0  0.009166667272558065  0.007772208730774582  0.9991582717492605  1.0000
  Pt  Pt19      1.0  0.005833333758622487  0.003712985241024749  0.9993402668364594  1.0000
  Pt  Pt20      1.0  0.002500000026216455  0.003712985241024749  0.9995222622039704  1.0000
  Pt  Pt21      1.0  0.009166667272558065  0.003712985241024749  0.9991582717492605  1.0000
  Pt  Pt22      1.0  0.009166667272558065  0.007772208730774582  0.9994312644733372  1.0000
  Pt  Pt23      1.0  0.005833333758622487  0.007772208730774582  0.9990672741123827  1.0000
  Pt  Pt24      1.0  0.002500000026216455  0.007772208730774582  0.9992492691936176  1.0000
  Pt  Pt25      1.0  0.009166667272558065  0.003712985241024749  0.9994312644733372  1.0000
  Pt  Pt26      1.0  0.005833333758622487  0.003712985241024749  0.9990672741123827  1.0000
  Pt  Pt27      1.0  0.002500000026216455  0.003712985241024749  0.9992492691936176  1.0000
  Pt  Pt28      1.0  0.007500000734060731  0.0007425970741654846  0.9992492691556859  1.0000
  Pt  Pt29      1.0  0.004166666783184243  0.0007425970741654846  0.9994312645172329  1.0000
  Pt  Pt30      1.0  0.0008333333238662803  0.0007425970741654846  0.9990672738714932  1.0000
