data_image0
_chemical_formula_structural       HCo10Sn10Rh20
_chemical_formula_sum              "H1 Co10 Sn10 Rh20"
_cell_length_a       9.131036646460284
_cell_length_b       8.245770534948143
_cell_length_c       106.80606842041016
_cell_angle_alpha    62.83332576866621
_cell_angle_beta     78.55260875114153
_cell_angle_gamma    77.20449490769016

_space_group_name_H-M_alt    "P 1"
_space_group_IT_number       1

loop_
  _space_group_symop_operation_xyz
  'x, y, z'

loop_
  _atom_site_type_symbol
  _atom_site_label
  _atom_site_symmetry_multiplicity
  _atom_site_fract_x
  _atom_site_fract_y
  _atom_site_fract_z
  _atom_site_occupancy
  H   H1        1.0  0.0005052289123398459  0.007922280666630858  0.9997278830633738  1.0000
  Co  Co1       1.0  0.004250000120644575  0.00823114729328848  0.9989943761763337  1.0000
  Co  Co2       1.0  0.008249999624044472  0.006231147350813673  0.9991666794557205  1.0000
  Co  Co3       1.0  0.0003483572954855309  0.0004750280170287061  0.9996502053232754  1.0000
  Co  Co4       1.0  0.0022499998850405508  0.004231147408338865  0.9993389826999304  1.0000
  Co  Co5       1.0  0.006212363738511252  0.00233156642101985  0.9995128008040773  1.0000
  Co  Co6       1.0  0.004301293137005759  0.008266863760851142  0.9994264442795513  1.0000
  Co  Co7       1.0  0.008159420663252938  0.00639873261810563  0.9995837189650999  1.0000
  Co  Co8       1.0  0.0002500000011216854  0.0002311472023781309  0.9992528311803394  1.0000
  Co  Co9       1.0  0.0022499998850405508  0.004231147408338865  0.9989082246513943  1.0000
  Co  Co10      1.0  0.006250000044424049  0.0022311472090551622  0.9990805279287032  1.0000
  Sn  Sn1       1.0  0.00525000006673874  0.005231147379576268  0.9992528310725283  1.0000
  Sn  Sn2       1.0  0.009266886701660417  0.0032596545085418994  0.9994141555253745  1.0000
  Sn  Sn3       1.0  0.0012499999389463856  0.007231147322051076  0.9990805278037357  1.0000
  Sn  Sn4       1.0  0.0033132685906587947  0.0014256147466685846  0.9996100632847401  1.0000
  Sn  Sn5       1.0  0.0072500000310296575  0.009231147778143675  0.9989082245354303  1.0000
  Sn  Sn6       1.0  0.00324999986272586  0.0012311472378177585  0.9991666795561053  1.0000
  Sn  Sn7       1.0  0.0072500000310296575  0.009231147778143675  0.9993389825839664  1.0000
  Sn  Sn8       1.0  0.009250000017991419  0.003231147180292566  0.9989943763048326  1.0000
  Sn  Sn9       1.0  0.0010958786001178983  0.0071791024312973335  0.9995340226494779  1.0000
  Sn  Sn10      1.0  0.005280891496424978  0.00539909269293966  0.99968468890167  1.0000
  Rh  Rh1       1.0  0.0027499998941389265  0.007731147564478673  0.9992528312865842  1.0000
  Rh  Rh2       1.0  0.00672954769047251  0.0057790286133266346  0.9994201451740713  1.0000
  Rh  Rh3       1.0  0.008750000257535305  0.00973114750695348  0.99908052803178  1.0000
  Rh  Rh4       1.0  0.0006654076294481744  0.0037742753950057743  0.9995854555149657  1.0000
  Rh  Rh5       1.0  0.004749999849509546  0.0017311472234364602  0.9989082244408698  1.0000
  Rh  Rh6       1.0  0.0057499999308885845  0.008731147022098287  0.9991666796797463  1.0000
  Rh  Rh7       1.0  0.009749999787367831  0.006731147593241269  0.9993389829350375  1.0000
  Rh  Rh8       1.0  0.0017499998759421746  0.0007311472521990566  0.9989943760647405  1.0000
  Rh  Rh9       1.0  0.00372702437674859  0.004942695005636482  0.9995061868166686  1.0000
  Rh  Rh10      1.0  0.007781666873384887  0.0029713569903660753  0.9996586197940119  1.0000
  Rh  Rh11      1.0  0.004749999849509546  0.0017311472234364602  0.9993389824894059  1.0000
  Rh  Rh12      1.0  0.00864053974612005  0.009768853216220369  0.9995239822641993  1.0000
  Rh  Rh13      1.0  0.0007500000023222753  0.003731147422720163  0.9991666797648641  1.0000
  Rh  Rh14      1.0  0.0028092136217541504  0.008137638551891702  0.9996585429300561  1.0000
  Rh  Rh15      1.0  0.0067500002300621  0.005731147622003866  0.9989943765033092  1.0000
  Rh  Rh16      1.0  0.0018298307378900869  0.0007650213085434707  0.9994177616426231  1.0000
  Rh  Rh17      1.0  0.005825503024119664  0.008954302652660848  0.9995855219622  1.0000
  Rh  Rh18      1.0  0.007749999823076915  0.002731147194673864  0.9992528308655353  1.0000
  Rh  Rh19      1.0  0.009749999787367831  0.006731147593241269  0.9989082248865014  1.0000
  Rh  Rh20      1.0  0.00374999990341538  0.0047311471371486715  0.9990805281512755  1.0000
