data_image0
_chemical_formula_structural       HNi12Sb4Ni12Sb4
_chemical_formula_sum              "H1 Ni24 Sb8"
_cell_length_a       5.405869483947754
_cell_length_b       11.668297875714828
_cell_length_c       34.89516067504883
_cell_angle_alpha    112.09050391759858
_cell_angle_beta     90.0
_cell_angle_gamma    62.40003689401305

_space_group_name_H-M_alt    "P 1"
_space_group_IT_number       1

loop_
  _space_group_symop_operation_xyz
  'x, y, z'

loop_
  _atom_site_type_symbol
  _atom_site_label
  _atom_site_symmetry_multiplicity
  _atom_site_fract_x
  _atom_site_fract_y
  _atom_site_fract_z
  _atom_site_occupancy
  H   H1        1.0  0.0016501946415631219  0.0007983664782131315  0.0007209359747387382  1.0000
  Ni  Ni1       1.0  0.008376536761728608  0.00163682912524432  0.9995770774190329  1.0000
  Ni  Ni2       1.0  0.008376537452276405  0.006636828985992155  0.00020583291241939628  1.0000
  Ni  Ni3       1.0  0.008376536302965441  0.004201633283068872  0.9998996043687539  1.0000
  Ni  Ni4       1.0  0.008376536695115743  0.009201633442214203  0.0005283598996642679  1.0000
  Ni  Ni5       1.0  0.006753072449855414  0.0008250972740028081  0.00010375689161117202  1.0000
  Ni  Ni6       1.0  0.006753072501016586  0.005825097085017728  0.0007325123787436989  1.0000
  Ni  Ni7       1.0  0.0016234642981426215  0.003389901382094444  0.0004262838350782607  1.0000
  Ni  Ni8       1.0  0.0016234643457331533  0.008389901541239775  0.9997975280708964  1.0000
  Ni  Ni9       1.0  0.0016234638457734453  0.0008250972740028081  0.00010375689161117202  1.0000
  Ni  Ni10      1.0  0.001623464413774273  0.005825097085017728  0.0007325123787436989  1.0000
  Ni  Ni11      1.0  0.003246928215723129  0.004201633283068872  0.9998996043687539  1.0000
  Ni  Ni12      1.0  0.0032469279187538895  0.009201633442214203  0.0005283598996642679  1.0000
  Sb  Sb1       1.0  0.0066666672900236295  0.0033466985969492985  0.0004208510372290335  1.0000
  Sb  Sb2       1.0  0.006666668080037259  0.008346698358231302  0.9997920952230154  1.0000
  Sb  Sb3       1.0  0.0033333336703817683  0.0016800320098552975  0.99958251022939  1.0000
  Sb  Sb4       1.0  0.0033333337179722996  0.006680032169000628  0.0002112657603003754  1.0000
  Ni  Ni13      1.0  0.008376536761728608  0.00163682912524432  0.9983195665509672  1.0000
  Ni  Ni14      1.0  0.008376537452276405  0.006636828985992155  0.9989483220443538  1.0000
  Ni  Ni15      1.0  0.008376536302965441  0.004201633283068872  0.9986420935006883  1.0000
  Ni  Ni16      1.0  0.008376536695115743  0.009201633442214203  0.9992708490315986  1.0000
  Ni  Ni17      1.0  0.006753072449855414  0.0008250972740028081  0.9988462455965189  1.0000
  Ni  Ni18      1.0  0.006753072501016586  0.005825097085017728  0.9994750010836515  1.0000
  Ni  Ni19      1.0  0.0016234642981426215  0.003389901382094444  0.999168772539986  1.0000
  Ni  Ni20      1.0  0.0016234643457331533  0.008389901541239775  0.9985400172028307  1.0000
  Ni  Ni21      1.0  0.0016234638457734453  0.0008250972740028081  0.9988462455965189  1.0000
  Ni  Ni22      1.0  0.001623464413774273  0.005825097085017728  0.9994750010836515  1.0000
  Ni  Ni23      1.0  0.003246928215723129  0.004201633283068872  0.9986420935006883  1.0000
  Ni  Ni24      1.0  0.0032469279187538895  0.009201633442214203  0.9992708490315986  1.0000
  Sb  Sb5       1.0  0.0066666672900236295  0.0033466985969492985  0.9991633397421368  1.0000
  Sb  Sb6       1.0  0.006666668080037259  0.008346698358231302  0.9985345843549497  1.0000
  Sb  Sb7       1.0  0.0033333336703817683  0.0016800320098552975  0.9983249993613245  1.0000
  Sb  Sb8       1.0  0.0033333337179722996  0.006680032169000628  0.9989537548922347  1.0000
