data_image0
_chemical_formula_structural       HPd8Ti4
_chemical_formula_sum              "H1 Pd8 Ti4"
_cell_length_a       4.637462139129639
_cell_length_b       5.000176394128151
_cell_length_c       98.76083374023438
_cell_angle_alpha    90.10594080651576
_cell_angle_beta     90.0
_cell_angle_gamma    90.0

_space_group_name_H-M_alt    "P 1"
_space_group_IT_number       1

loop_
  _space_group_symop_operation_xyz
  'x, y, z'

loop_
  _atom_site_type_symbol
  _atom_site_label
  _atom_site_symmetry_multiplicity
  _atom_site_fract_x
  _atom_site_fract_y
  _atom_site_fract_z
  _atom_site_occupancy
  H   H1        1.0  3.749999767468498e-09  0.00020481033032071372  0.00016728616220927804  1.0000
  Pd  Pd1       1.0  0.009999998682582  0.009795189401467388  0.9998888037254349  1.0000
  Pd  Pd2       1.0  0.0050000037594611175  0.007917583186456524  6.357902614858245e-05  1.0000
  Pd  Pd3       1.0  3.550000081198938e-09  0.004760048189214459  4.456073260105846e-07  1.0000
  Pd  Pd4       1.0  0.0049999985379873425  0.00692974088608819  0.9997914319073679  1.0000
  Pd  Pd5       1.0  1.4500000237245125e-09  0.004123321339215145  0.9994666706247505  1.0000
  Pd  Pd6       1.0  0.0050000013495501445  0.0019804641740070105  0.9996746825710789  1.0000
  Pd  Pd7       1.0  1.4500000237245125e-09  0.009040513389280984  0.9995968496162275  1.0000
  Pd  Pd8       1.0  0.0050000013495501445  0.0011833712883466722  0.9993888375970732  1.0000
  Ti  Ti1       1.0  1.4500000237245125e-09  0.0044390603852981925  0.9997397723685975  1.0000
  Ti  Ti2       1.0  0.004999999742942829  0.0022404265071029185  0.9999387177671782  1.0000
  Ti  Ti3       1.0  1.4500000237245125e-09  0.008724774343197936  0.9993237478723805  1.0000
  Ti  Ti4       1.0  0.0050000013495501445  0.006581917736764589  0.9995317601205238  1.0000
