data_image0
_chemical_formula_structural       HAl8Os4
_chemical_formula_sum              "H1 Al8 Os4"
_cell_length_a       4.523580551147461
_cell_length_b       4.759120252739642
_cell_length_c       38.10647964477539
_cell_angle_alpha    86.69682086451643
_cell_angle_beta     90.0
_cell_angle_gamma    90.0

_space_group_name_H-M_alt    "P 1"
_space_group_IT_number       1

loop_
  _space_group_symop_operation_xyz
  'x, y, z'

loop_
  _atom_site_type_symbol
  _atom_site_label
  _atom_site_symmetry_multiplicity
  _atom_site_fract_x
  _atom_site_fract_y
  _atom_site_fract_z
  _atom_site_occupancy
  H   H1        1.0  0.005000000378822377  0.003672762576579305  0.00029613356441328436  1.0000
  Al  Al1       1.0  5.000000138783843e-11  0.0013484799698505131  0.9983888873334227  1.0000
  Al  Al2       1.0  0.005000000378822377  0.008848480110983352  0.9989119862288387  1.0000
  Al  Al3       1.0  5.000000138783843e-11  0.006201601943021574  0.998727375820346  1.0000
  Al  Al4       1.0  0.005000000378822377  0.008701601598030191  0.9982042771532001  1.0000
  Al  Al5       1.0  5.000000138783843e-11  0.006375108694239482  0.9994227647773153  1.0000
  Al  Al6       1.0  0.005000000378822377  0.003882813716094623  0.9999720589131116  1.0000
  Al  Al7       1.0  5.000000138783843e-11  0.0011515198811759353  0.9997934961172905  1.0000
  Al  Al8       1.0  0.005000000378822377  0.003701601895977295  0.9992504744903129  1.0000
  Os  Os1       1.0  5.000000138783843e-11  0.0012750411054095953  0.9990812302454407  1.0000
  Os  Os2       1.0  0.005000000378822377  0.0037750411524538744  0.9985581315754738  1.0000
  Os  Os3       1.0  0.009999999934117848  0.006023124571646154  5.976453357250706e-05  1.0000
  Os  Os4       1.0  0.005000000378822377  0.008755744075155633  0.9995955870936257  1.0000
