data_image0
_chemical_formula_structural       HRe12Ir4Re12Ir4
_chemical_formula_sum              "H1 Re24 Ir8"
_cell_length_a       8.755913453599625
_cell_length_b       5.519510269165039
_cell_length_c       103.1170654296875
_cell_angle_alpha    90.0
_cell_angle_beta     71.6278620637053
_cell_angle_gamma    71.6278620637053

_space_group_name_H-M_alt    "P 1"
_space_group_IT_number       1

loop_
  _space_group_symop_operation_xyz
  'x, y, z'

loop_
  _atom_site_type_symbol
  _atom_site_label
  _atom_site_symmetry_multiplicity
  _atom_site_fract_x
  _atom_site_fract_y
  _atom_site_fract_z
  _atom_site_occupancy
  H   H1        1.0  0.009216374707138564  0.00039181279491560665  0.9999524973305202  1.0000
  Re  Re1       1.0  0.005783625520999969  0.009608187779445063  0.9997113943905134  1.0000
  Re  Re2       1.0  0.005783625520999969  0.00460818729349452  0.9994437612256007  1.0000
  Re  Re3       1.0  0.005783625520999969  0.00460818729349452  0.9997113943905134  1.0000
  Re  Re4       1.0  0.005783625520999969  0.009608187779445063  0.9994437612256007  1.0000
  Re  Re5       1.0  0.0032836254829768804  0.003358187406996448  0.9996444861118634  1.0000
  Re  Re6       1.0  0.0032836254829768804  0.008358187555481338  0.9993768529469508  1.0000
  Re  Re7       1.0  0.000783625504364868  0.0021081873220600103  0.9995775778316234  1.0000
  Re  Re8       1.0  0.000783625504364868  0.007108187301812071  0.999845210996536  1.0000
  Re  Re9       1.0  0.000783625504364868  0.007108187301812071  0.9995775778316234  1.0000
  Re  Re10      1.0  0.000783625504364868  0.0021081873220600103  0.999845210996536  1.0000
  Re  Re11      1.0  0.008283625559023058  0.0008581873689733598  0.9997783026691633  1.0000
  Re  Re12      1.0  0.008283625559023058  0.005858187517458247  0.9995106695042506  1.0000
  Ir  Ir1       1.0  0.0032836254829768804  0.003358187406996448  0.9993768529469508  1.0000
  Ir  Ir2       1.0  0.0032836254829768804  0.008358187555481338  0.9996444861118634  1.0000
  Ir  Ir3       1.0  0.008283625559023058  0.0008581873689733598  0.9995106695042506  1.0000
  Ir  Ir4       1.0  0.008283625559023058  0.005858187517458247  0.9997783026691633  1.0000
  Re  Re13      1.0  0.005783625520999969  0.009608187779445063  0.999176128060688  1.0000
  Re  Re14      1.0  0.005783625520999969  0.00460818729349452  0.9989084948957754  1.0000
  Re  Re15      1.0  0.005783625520999969  0.00460818729349452  0.999176128060688  1.0000
  Re  Re16      1.0  0.005783625520999969  0.009608187779445063  0.9989084948957754  1.0000
  Re  Re17      1.0  0.0032836254829768804  0.003358187406996448  0.999109219782038  1.0000
  Re  Re18      1.0  0.0032836254829768804  0.008358187555481338  0.9988415866171254  1.0000
  Re  Re19      1.0  0.000783625504364868  0.0021081873220600103  0.999042311501798  1.0000
  Re  Re20      1.0  0.000783625504364868  0.007108187301812071  0.9993099446667107  1.0000
  Re  Re21      1.0  0.000783625504364868  0.007108187301812071  0.999042311501798  1.0000
  Re  Re22      1.0  0.000783625504364868  0.0021081873220600103  0.9993099446667107  1.0000
  Re  Re23      1.0  0.008283625559023058  0.0008581873689733598  0.999243036339338  1.0000
  Re  Re24      1.0  0.008283625559023058  0.005858187517458247  0.9989754031744253  1.0000
  Ir  Ir5       1.0  0.0032836254829768804  0.003358187406996448  0.9988415866171254  1.0000
  Ir  Ir6       1.0  0.0032836254829768804  0.008358187555481338  0.999109219782038  1.0000
  Ir  Ir7       1.0  0.008283625559023058  0.0008581873689733598  0.9989754031744253  1.0000
  Ir  Ir8       1.0  0.008283625559023058  0.005858187517458247  0.999243036339338  1.0000
