data_image0
_chemical_formula_structural       HZn12Sn12As24
_chemical_formula_sum              "H1 Zn12 Sn12 As24"
_cell_length_a       13.430169180913147
_cell_length_b       12.050311088562012
_cell_length_c       103.97593688964844
_cell_angle_alpha    90.0
_cell_angle_beta     108.43494753632886
_cell_angle_gamma    90.0

_space_group_name_H-M_alt    "P 1"
_space_group_IT_number       1

loop_
  _space_group_symop_operation_xyz
  'x, y, z'

loop_
  _atom_site_type_symbol
  _atom_site_label
  _atom_site_symmetry_multiplicity
  _atom_site_fract_x
  _atom_site_fract_y
  _atom_site_fract_z
  _atom_site_occupancy
  H   H1        1.0  0.00213395452733381  0.0015011322030427834  0.00014152960564409864  1.0000
  Zn  Zn1       1.0  0.005706412834042035  0.0076141731378327705  0.9997855013659902  1.0000
  Zn  Zn2       1.0  0.0027152871001003527  0.007269181209428833  2.5893060838858773e-05  1.0000
  Zn  Zn3       1.0  0.009039746315517884  0.0076141731378327705  0.9995131953058094  1.0000
  Zn  Zn4       1.0  0.008749766698929923  0.005211684462323991  2.5192537673207493e-05  1.0000
  Zn  Zn5       1.0  0.00403974609330411  0.005114172791590661  0.9995131952852677  1.0000
  Zn  Zn6       1.0  0.0007064129042148049  0.005114172791590661  0.9997855013573913  1.0000
  Zn  Zn7       1.0  0.009202381066885092  0.0022906683950182447  0.9998946851935541  1.0000
  Zn  Zn8       1.0  0.005706412834042035  0.0026141727544932926  0.9993770422551773  1.0000
  Zn  Zn9       1.0  0.002373079498759458  0.0026141727544932926  0.9996493483213296  1.0000
  Zn  Zn10      1.0  0.007373079282393416  0.00011417285264674789  0.999649348323957  1.0000
  Zn  Zn11      1.0  0.004255454849885288  0.009885827430993551  0.9999060961803022  1.0000
  Zn  Zn12      1.0  0.0007064129042148049  0.00011417285264674789  0.9993770422465785  1.0000
  Sn  Sn1       1.0  0.005706412834042035  0.0026141727544932926  0.9997855013659902  1.0000
  Sn  Sn2       1.0  0.0028816100153160025  0.0021029509166393826  6.543413446084675e-06  1.0000
  Sn  Sn3       1.0  0.009039746315517884  0.0026141727544932926  0.9995131953058094  1.0000
  Sn  Sn4       1.0  0.007373079282393416  0.005114172791590661  0.999649348323957  1.0000
  Sn  Sn5       1.0  0.004065208575367015  0.005106825657679962  0.9999212544198124  1.0000
  Sn  Sn6       1.0  0.0007064129042148049  0.005114172791590661  0.9993770422465785  1.0000
  Sn  Sn7       1.0  0.009212771899836249  0.007690513958424196  0.9999249205559068  1.0000
  Sn  Sn8       1.0  0.005706412834042035  0.0076141731378327705  0.9993770422551773  1.0000
  Sn  Sn9       1.0  0.002373079498759458  0.0076141731378327705  0.9996493483213296  1.0000
  Sn  Sn10      1.0  0.007357007378919412  0.009833578260055443  3.0543941747552766e-05  1.0000
  Sn  Sn11      1.0  0.00403974609330411  0.00011417285264674789  0.9995131952852677  1.0000
  Sn  Sn12      1.0  0.0007064129042148049  0.00011417285264674789  0.9997855013573913  1.0000
  As  As1       1.0  0.007451648809349603  0.006364172964711716  0.9994387002079893  1.0000
  As  As2       1.0  0.00411831591264684  0.006364172964711716  0.9997110065786828  1.0000
  As  As3       1.0  0.0009340709140192321  0.006312355359831816  0.999995489107445  1.0000
  As  As4       1.0  0.00744325263739211  0.006390886161767321  0.9998736214502685  1.0000
  As  As5       1.0  0.004575659925315214  0.006773721734475908  0.00010797308746108195  1.0000
  As  As6       1.0  0.000627843231065347  0.006364172964711716  0.9995876903565748  1.0000
  As  As7       1.0  0.0005026216403686882  0.004549341236794227  8.296545028288158e-05  1.0000
  As  As8       1.0  0.0056278433070858485  0.0038641729276143472  0.9995684347618387  1.0000
  As  As9       1.0  0.0022945098256099998  0.0038641729276143472  0.9998407408220195  1.0000
  As  As10      1.0  0.005721240340390706  0.00367463690529752  1.4567447132751975e-05  1.0000
  As  As11      1.0  0.0024516491719089157  0.0038641729276143472  0.9994579558206397  1.0000
  As  As12      1.0  0.00911831584247407  0.0038641729276143472  0.9997302619099608  1.0000
  As  As13      1.0  0.007451648809349603  0.0013641728905169786  0.9998471596054292  1.0000
  As  As14      1.0  0.004998602906926655  0.0020303781067216317  8.817794909670392e-05  1.0000
  As  As15      1.0  0.0007849826504608985  0.0013641728905169786  0.9995748532503808  1.0000
  As  As16      1.0  0.0072945097554372295  0.0013641728905169786  0.9994515373291118  1.0000
  As  As17      1.0  0.003961176566347924  0.0013641728905169786  0.9997238434012354  1.0000
  As  As18      1.0  0.0005265181366577088  0.0008993132575876286  2.1506114199917566e-05  1.0000
  As  As19      1.0  0.005514086814046201  0.008371962328937601  8.293036996222937e-06  1.0000
  As  As20      1.0  0.0022945098256099998  0.008864172692664344  0.9994322819978338  1.0000
  As  As21      1.0  0.008961176203788612  0.008864172692664344  0.9997045877885851  1.0000
  As  As22      1.0  0.009497378036544183  0.009403656851870185  0.00010303377072606592  1.0000
  As  As23      1.0  0.005784982360998222  0.008864172692664344  0.9995941088593289  1.0000
  As  As24      1.0  0.0024630326571722224  0.008893530932122537  0.9998683726542986  1.0000
