data_image0
_chemical_formula_structural       HAl4Fe6Si6Al4Fe6Si6
_chemical_formula_sum              "H1 Al8 Fe12 Si12"
_cell_length_a       4.6286020916491974
_cell_length_b       7.500620155487141
_cell_length_c       108.16688537597656
_cell_angle_alpha    101.89992990754538
_cell_angle_beta     100.60816577783471
_cell_angle_gamma    106.77767703149836

_space_group_name_H-M_alt    "P 1"
_space_group_IT_number       1

loop_
  _space_group_symop_operation_xyz
  'x, y, z'

loop_
  _atom_site_type_symbol
  _atom_site_label
  _atom_site_symmetry_multiplicity
  _atom_site_fract_x
  _atom_site_fract_y
  _atom_site_fract_z
  _atom_site_occupancy
  H   H1        1.0  0.0099561797651021  0.0013997860083472108  0.00016524919929660406  1.0000
  Al  Al1       1.0  0.00586686444010408  0.009605753819237197  0.9994532169127447  1.0000
  Al  Al2       1.0  0.000532494067369755  0.002841291525896185  0.9990535309713255  1.0000
  Al  Al3       1.0  0.0094746813859863  0.007389088223797314  0.9988826679344693  1.0000
  Al  Al4       1.0  0.004140311439693605  0.0006246263351883458  0.9990710681580476  1.0000
  Fe  Fe1       1.0  0.003652503933509223  0.0024419202934226583  0.9992787200403267  1.0000
  Fe  Fe2       1.0  0.006354671917844847  0.007788459995913565  0.9992455653076922  1.0000
  Fe  Fe3       1.0  0.001354808395622832  0.0006823857799980397  0.9994491019529188  1.0000
  Fe  Fe4       1.0  0.008652367603552997  0.009547994779159547  0.999075183124601  1.0000
  Fe  Fe5       1.0  0.00040137683551379037  0.004270821561926705  0.9994341017643971  1.0000
  Fe  Fe6       1.0  0.00960579886801852  0.005959558457588157  0.999090183854121  1.0000
  Si  Si1       1.0  0.004572961141253326  0.00663700218951617  0.9990192406288735  1.0000
  Si  Si2       1.0  0.007245692652436976  0.004786282895843394  0.9992371317284674  1.0000
  Si  Si3       1.0  0.005434214312102729  0.00359337756017733  0.9989169580013997  1.0000
  Si  Si4       1.0  0.0017953977910792778  0.008977458588076357  0.999248220792722  1.0000
  Si  Si5       1.0  0.008211778043251143  0.0012529212965278229  0.9992760645493757  1.0000
  Si  Si6       1.0  0.00276148294874084  0.005444097123671468  0.999287153338201  1.0000
  Al  Al5       1.0  0.006329845649707813  0.0003942464478859509  5.5500667053809427e-05  1.0000
  Al  Al6       1.0  0.000532494067369755  0.002841291525896185  0.9996416171271765  1.0000
  Al  Al7       1.0  0.0094746813859863  0.007389088223797314  0.999470754365842  1.0000
  Al  Al8       1.0  0.004140311439693605  0.0006246263351883458  0.9996591545894202  1.0000
  Fe  Fe7       1.0  0.0037563195750777373  0.002403969918829445  0.9998692833319226  1.0000
  Fe  Fe8       1.0  0.0062979208752846514  0.0077931505704740235  0.9998344600763427  1.0000
  Fe  Fe9       1.0  0.0014774543629395922  0.00102242997300284  2.8498669248104113e-05  1.0000
  Fe  Fe10      1.0  0.008652367603552997  0.009547994779159547  0.9996632695559736  1.0000
  Fe  Fe11      1.0  4.381969681523793e-05  0.003801320519561453  8.144389287207537e-06  1.0000
  Fe  Fe12      1.0  0.00960579886801852  0.005959558457588157  0.9996782702854935  1.0000
  Si  Si7       1.0  0.004572961141253326  0.00663700218951617  0.9996073273357677  1.0000
  Si  Si8       1.0  0.0073959160701827864  0.0048637097546544135  0.9998344628206207  1.0000
  Si  Si9       1.0  0.005434214312102729  0.00359337756017733  0.999505044708294  1.0000
  Si  Si10      1.0  0.0017994058357784519  0.008889104503739025  0.9998461318549879  1.0000
  Si  Si11      1.0  0.008142420771980257  0.0011664084731661316  0.9998512031793545  1.0000
  Si  Si12      1.0  0.002945858684931379  0.0054655247173290965  0.9998930612180241  1.0000
