data_image0
_chemical_formula_structural       COFe24W12
_chemical_formula_sum              "C1 O1 Fe24 W12"
_cell_length_a       4.663096793041869
_cell_length_b       12.137121069648659
_cell_length_c       33.76161193847656
_cell_angle_alpha    98.81105145542834
_cell_angle_beta     75.08672278778555
_cell_angle_gamma    67.40584063963647

_space_group_name_H-M_alt    "P 1"
_space_group_IT_number       1

loop_
  _space_group_symop_operation_xyz
  'x, y, z'

loop_
  _atom_site_type_symbol
  _atom_site_label
  _atom_site_symmetry_multiplicity
  _atom_site_fract_x
  _atom_site_fract_y
  _atom_site_fract_z
  _atom_site_occupancy
  C   C1        1.0  0.008672516643334684  0.008153600147082479  0.00027387135690623777  1.0000
  O   O1        1.0  0.008672516643334684  0.008153600147082479  0.000629304460581505  1.0000
  Fe  Fe1       1.0  0.0009542998772450157  0.006738472356425791  0.9990991676084667  1.0000
  Fe  Fe2       1.0  0.0008523281091271515  0.00013255730685698638  0.9973315228796603  1.0000
  Fe  Fe3       1.0  0.0008523284015914254  0.0034658906118872415  0.9982259900451835  1.0000
  Fe  Fe4       1.0  0.0008523279900433636  0.008465890764377294  0.9982259902977186  1.0000
  Fe  Fe5       1.0  0.0009934244229127557  0.00171284659713623  0.9990918552602613  1.0000
  Fe  Fe6       1.0  0.0008523282644087379  0.005132557329383926  0.9973315228842085  1.0000
  Fe  Fe7       1.0  0.009147672466571962  0.007064338747236659  0.9985207477321124  1.0000
  Fe  Fe8       1.0  0.009134314526936967  0.00043189692664172676  0.9994559888984684  1.0000
  Fe  Fe9       1.0  0.009147671914202363  0.0037310053122432897  0.9976262805686711  1.0000
  Fe  Fe10      1.0  0.002556984081867847  0.008162786979625199  0.9974738047349333  1.0000
  Fe  Fe11      1.0  0.0025569842130960495  0.0014961197630701608  0.9983682718598115  1.0000
  Fe  Fe12      1.0  0.002287684616474614  0.004929169562683814  0.9993533609055824  1.0000
  Fe  Fe13      1.0  0.0072156670140028165  0.006685162527114394  0.9997141402703196  1.0000
  Fe  Fe14      1.0  0.0074430163777247215  0.00986744278151793  0.9979312324452161  1.0000
  Fe  Fe15      1.0  0.007443015690488068  0.003200776258099495  0.9988256996373556  1.0000
  Fe  Fe16      1.0  0.004261640660582771  0.007064338747236659  0.9985207478477877  1.0000
  Fe  Fe17      1.0  0.004057272858266661  0.0004306123279102621  0.999455524209983  1.0000
  Fe  Fe18      1.0  0.0042616401082131725  0.0037310053122432897  0.9976262804636643  1.0000
  Fe  Fe19      1.0  0.00914767199483762  0.005435661460704322  0.9980837084282598  1.0000
  Fe  Fe20      1.0  0.009147671311239818  0.008768995242265992  0.9989781756547186  1.0000
  Fe  Fe21      1.0  0.008828276804577173  0.00251155345043623  0.9998244944442285  1.0000
  Fe  Fe22      1.0  0.0025000851975777185  0.006684640595251963  0.9997144888554379  1.0000
  Fe  Fe23      1.0  0.002556984571735531  0.00986744278151793  0.9979312323402093  1.0000
  Fe  Fe24      1.0  0.0025569842978663644  0.003200776258099495  0.9988256997383373  1.0000
  W   W1        1.0  0.007817943764117563  0.008712074171250387  0.9997263456024348  1.0000
  W   W2        1.0  0.007518994829687445  0.0021256241736702665  0.9980508176401336  1.0000
  W   W3        1.0  0.0075189947599382835  0.005458957435379485  0.9989452848161464  1.0000
  W   W4        1.0  0.004185661170061353  0.006014513354446681  0.9977526617448366  1.0000
  W   W5        1.0  0.004185661722430954  0.00934784678944005  0.9986471291289598  1.0000
  W   W6        1.0  0.004386965296105717  0.0025826214395291655  0.9994863204296824  1.0000
  W   W7        1.0  0.00418566117363001  0.004806157223388368  0.998401162664753  1.0000
  W   W8        1.0  0.004208829694746869  0.008117349102719695  0.9992965419896472  1.0000
  W   W9        1.0  0.004185661447995385  0.001472823788394999  0.9975066954719248  1.0000
  W   W10       1.0  0.007518994497411685  0.007583935432451143  0.9978048512313051  1.0000
  W   W11       1.0  0.007518994526331779  0.0009172683025381797  0.998699318364591  1.0000
  W   W12       1.0  0.007637205110847603  0.0042191484980960816  0.9995465889825127  1.0000
