data_image0
_chemical_formula_structural       HAg24Se12
_chemical_formula_sum              "H1 Ag24 Se12"
_cell_length_a       8.570492683374862
_cell_length_b       9.021389657822041
_cell_length_c       104.71253967285156
_cell_angle_alpha    67.77872599644964
_cell_angle_beta     71.45229289738373
_cell_angle_gamma    74.27529306884553

_space_group_name_H-M_alt    "P 1"
_space_group_IT_number       1

loop_
  _space_group_symop_operation_xyz
  'x, y, z'

loop_
  _atom_site_type_symbol
  _atom_site_label
  _atom_site_symmetry_multiplicity
  _atom_site_fract_x
  _atom_site_fract_y
  _atom_site_fract_z
  _atom_site_occupancy
  H   H1        1.0  0.00768419674548364  0.0034756024687354996  0.9997687505540014  1.0000
  Ag  Ag1       1.0  0.005296520883774798  0.0014780044300745326  0.99919930202615  1.0000
  Ag  Ag2       1.0  0.00862985411269629  0.004811337662283467  0.9988309647503443  1.0000
  Ag  Ag3       1.0  0.0020628622796336044  0.008042237727914953  0.9995745044654689  1.0000
  Ag  Ag4       1.0  0.007268624102448279  0.007740470147816895  0.9986027074211071  1.0000
  Ag  Ag5       1.0  0.0006019571261859321  0.0010738040229958837  0.9993393808367078  1.0000
  Ag  Ag6       1.0  0.003935290355107426  0.004407137255204818  0.9989710441301237  1.0000
  Ag  Ag7       1.0  0.00907443871261475  0.0048044963703597916  0.99938422598777  1.0000
  Ag  Ag8       1.0  0.002407771749939014  0.008137830168563492  0.9990158895181904  1.0000
  Ag  Ag9       1.0  0.005741104965273898  0.0014711634777477157  0.9986475526273011  1.0000
  Ag  Ag10      1.0  0.00015572642422548676  0.00427147555476398  0.9990909128769294  1.0000
  Ag  Ag11      1.0  0.0034890595758568675  0.007604808900171868  0.9987225761686692  1.0000
  Ag  Ag12      1.0  0.0068860216185907385  0.0006877577848061025  0.9995124730731682  1.0000
  Ag  Ag13      1.0  0.003193355146423734  0.0063599912569113305  0.9993077570928949  1.0000
  Ag  Ag14      1.0  0.0065266884352861545  0.009693324149523406  0.9989394198265933  1.0000
  Ag  Ag15      1.0  0.00984427342760312  0.002912742861923967  0.9996487981057443  1.0000
  Ag  Ag16      1.0  0.006571200381391144  0.00538559413968332  0.9996158977102253  1.0000
  Ag  Ag17      1.0  0.009548136741629704  0.008405674286425677  0.999281999221416  1.0000
  Ag  Ag18      1.0  0.0028814702837867165  0.0017390078220078063  0.9989136619958772  1.0000
  Ag  Ag19      1.0  0.0063401776571427775  0.007761136654268706  0.9992578068327642  1.0000
  Ag  Ag20      1.0  0.009673510872477661  0.00109446996345293  0.9988894699418749  1.0000
  Ag  Ag21      1.0  0.0028591308000753433  0.004531853069686101  0.9995969085567995  1.0000
  Ag  Ag22      1.0  0.00637211976348305  0.004778231949284087  0.9991303299243715  1.0000
  Ag  Ag23      1.0  0.009705452972424235  0.008111565294691975  0.9987619932146193  1.0000
  Ag  Ag24      1.0  0.003032149682106883  0.0012435955473639197  0.9994872424013076  1.0000
  Se  Se1       1.0  0.005896552890698265  0.004028670592510198  0.9994485489238969  1.0000
  Se  Se2       1.0  0.009308176689106263  0.007586529080445167  0.9990527264163854  1.0000
  Se  Se3       1.0  0.002641509982043751  0.0009198627292262497  0.9986843894782577  1.0000
  Se  Se4       1.0  0.0024500704880478937  0.0038403546254780216  0.9992580491564186  1.0000
  Se  Se5       1.0  0.00578340400614953  0.0071736875180900975  0.9988897118841487  1.0000
  Se  Se6       1.0  0.009441314104891302  0.0003066749811086342  0.9996315098154307  1.0000
  Se  Se7       1.0  0.00332489339244938  0.00963413649216056  0.999170335407691  1.0000
  Se  Se8       1.0  0.006658226527863028  0.0029674702541405964  0.9988019985041294  1.0000
  Se  Se9       1.0  0.009808780972707687  0.005943462125463242  0.9996056795686041  1.0000
  Se  Se10      1.0  0.005288145798483748  0.008504684429863275  0.9995131556085066  1.0000
  Se  Se11      1.0  0.008541408001387233  0.0017387199570703202  0.9991464103157679  1.0000
  Se  Se12      1.0  0.00187474163705209  0.00507205296288135  0.9987780732872065  1.0000
