data_image0
_chemical_formula_structural       COSi4Pt12
_chemical_formula_sum              "C1 O1 Si4 Pt12"
_cell_length_a       5.585876941680908
_cell_length_b       5.698429107666016
_cell_length_c       100.85270690917969
_cell_angle_alpha    90.0
_cell_angle_beta     90.0
_cell_angle_gamma    90.0

_space_group_name_H-M_alt    "P 1"
_space_group_IT_number       1

loop_
  _space_group_symop_operation_xyz
  'x, y, z'

loop_
  _atom_site_type_symbol
  _atom_site_label
  _atom_site_symmetry_multiplicity
  _atom_site_fract_x
  _atom_site_fract_y
  _atom_site_fract_z
  _atom_site_occupancy
  C   C1        1.0  0.007899464703071844  0.0034102755392213797  0.00017174069250197027  1.0000
  O   O1        1.0  0.007899464703071844  0.0034102755392213797  0.0002907263368783912  1.0000
  Si  Si1       1.0  0.005152860231263434  0.0012742524285860844  0.9998649206469704  1.0000
  Si  Si2       1.0  9.719335656079662e-05  0.004579228125884903  0.9994788811512375  1.0000
  Si  Si3       1.0  0.009902806702210854  0.00627425204941696  0.9998649206469704  1.0000
  Si  Si4       1.0  0.004958468953960469  0.009579228073585713  0.9994788811512375  1.0000
  Pt  Pt1       1.0  0.003112474252381656  0.0022722190256376485  0.999323947217203  1.0000
  Pt  Pt2       1.0  0.007899464703071844  0.0034102755392213797  0.0  1.0000
  Pt  Pt3       1.0  0.0019431880060370827  0.007272218646468524  0.9996338153807757  1.0000
  Pt  Pt4       1.0  0.006943188426191862  0.008519370615654344  0.999706345223976  1.0000
  Pt  Pt5       1.0  0.0071562028973147914  0.008410283004930684  0.0  1.0000
  Pt  Pt6       1.0  0.0019431880060370827  0.007272218646468524  0.999323947217203  1.0000
  Pt  Pt7       1.0  0.008112474505808348  0.0035193706679535336  0.999706345223976  1.0000
  Pt  Pt8       1.0  0.003112474252381656  0.0022722190256376485  0.9996338153807757  1.0000
  Pt  Pt9       1.0  0.0010637033512953637  0.00042077169923968277  0.9998672232098184  1.0000
  Pt  Pt10      1.0  0.00585602993439802  0.005456851999757834  0.9994788811512375  1.0000
  Pt  Pt11      1.0  0.003991953905280776  0.005420773076996456  0.9998672232098184  1.0000
  Pt  Pt12      1.0  0.00919963299760219  0.00045685229720947426  0.9994788811512375  1.0000
