data_image0
_chemical_formula_structural       HPd8Se8
_chemical_formula_sum              "H1 Pd8 Se8"
_cell_length_a       6.89821195602417
_cell_length_b       6.89821195602417
_cell_length_c       98.34758758544922
_cell_angle_alpha    90.0
_cell_angle_beta     90.0
_cell_angle_gamma    90.0

_space_group_name_H-M_alt    "P 1"
_space_group_IT_number       1

loop_
  _space_group_symop_operation_xyz
  'x, y, z'

loop_
  _atom_site_type_symbol
  _atom_site_label
  _atom_site_symmetry_multiplicity
  _atom_site_fract_x
  _atom_site_fract_y
  _atom_site_fract_z
  _atom_site_occupancy
  H   H1        1.0  0.006796233905771496  0.0032667110783087304  8.24879427785253e-05  1.0000
  Pd  Pd1       1.0  0.003251375105078257  0.00015783615035723844  0.9994364828961807  1.0000
  Pd  Pd2       1.0  0.0012870667470374344  0.007315227908784919  0.9997960362054099  1.0000
  Pd  Pd3       1.0  0.0004392762932307034  0.002370818981019658  0.999796236205565  1.0000
  Pd  Pd4       1.0  0.008470786309207853  0.009559303425428465  0.9994364828961807  1.0000
  Pd  Pd5       1.0  0.005867777302045907  0.009842164051481623  0.9997963404480702  1.0000
  Pd  Pd6       1.0  0.0008610806990424979  0.004858570032597157  0.9994364828961807  1.0000
  Pd  Pd7       1.0  0.0058610808421523265  0.004858570032597157  0.9996166321268419  1.0000
  Pd  Pd8       1.0  0.005869517841581149  0.004820533060327449  0.999950642992014  1.0000
  Se  Se1       1.0  0.00893492712506236  0.006801714742179555  0.9996008575691501  1.0000
  Se  Se2       1.0  0.0077229505099989295  0.0017128889612807406  0.9999637836082685  1.0000
  Se  Se3       1.0  0.004026380980249746  0.007930007750093854  0.9999629114863798  1.0000
  Se  Se4       1.0  0.0027872342892237495  0.0029154247829776716  0.9996008575691501  1.0000
  Se  Se5       1.0  0.0021623962571472397  0.003524176460289665  1.0351523181787679e-06  1.0000
  Se  Se6       1.0  0.003917935592532841  0.007932416315507191  0.9996324066845337  1.0000
  Se  Se7       1.0  0.007804226091771812  0.0017847236146778522  0.9996324066845337  1.0000
  Se  Se8       1.0  0.00956072372297041  0.0061178101535820555  0.0  1.0000
