data_image0
_chemical_formula_structural       COAl4Re8Al4Re8Al4Re8Al4Re8
_chemical_formula_sum              "C1 O1 Al16 Re32"
_cell_length_a       8.512351989746094
_cell_length_b       10.133111036008167
_cell_length_c       99.7932357788086
_cell_angle_alpha    102.12313113624192
_cell_angle_beta     90.0
_cell_angle_gamma    77.87686886375808

_space_group_name_H-M_alt    "P 1"
_space_group_IT_number       1

loop_
  _space_group_symop_operation_xyz
  'x, y, z'

loop_
  _atom_site_type_symbol
  _atom_site_label
  _atom_site_symmetry_multiplicity
  _atom_site_fract_x
  _atom_site_fract_y
  _atom_site_fract_z
  _atom_site_occupancy
  C   C1        1.0  0.00410157819310058  0.009459734492798706  0.00019262003531824937  1.0000
  O   O1        1.0  0.00410157819310058  0.009459734492798706  0.00031286831287333515  1.0000
  Al  Al1       1.0  0.00021108170659089566  2.1696948859931043e-05  0.9996042058905373  1.0000
  Al  Al2       1.0  0.0027110817060438538  2.1696948859931043e-05  0.9993909561188804  1.0000
  Al  Al3       1.0  0.003961081679487098  0.005021696669969484  0.9994975809748703  1.0000
  Al  Al4       1.0  0.0014610817757664653  0.005021696669969484  0.9992843312032134  1.0000
  Re  Re1       1.0  0.004383245006874423  0.0033330433604201824  0.9992483207180153  1.0000
  Re  Re2       1.0  0.0018832451031537908  0.0033330433604201824  0.9994615704896722  1.0000
  Re  Re3       1.0  0.004788918232747174  0.00171035045692918  0.999426966608312  1.0000
  Re  Re4       1.0  0.0022889183290265413  0.00171035045692918  0.9996402163799689  1.0000
  Re  Re5       1.0  0.0031332451262270217  0.008333042883009789  0.9995681953414287  1.0000
  Re  Re6       1.0  0.0006332452225063893  0.008333042883009789  0.9993549455697718  1.0000
  Re  Re7       1.0  0.003538918255847677  0.006710350364527168  0.9993203416966218  1.0000
  Re  Re8       1.0  0.0010389183521270445  0.006710350364527168  0.9995335914682787  1.0000
  Al  Al5       1.0  0.0002218662855633638  0.00997830305282448  4.4575270290976205e-05  1.0000
  Al  Al6       1.0  0.00272447655049199  0.009968911928365427  0.9998131163026699  1.0000
  Al  Al7       1.0  0.0039583199421152045  0.005033576873619576  0.9999424261144503  1.0000
  Al  Al8       1.0  0.0014610817757664653  0.005021696669969484  0.9997108307465272  1.0000
  Re  Re9       1.0  0.004383245006874423  0.0033330433604201824  0.9996748202613291  1.0000
  Re  Re10      1.0  0.0018837700068816759  0.0033320176980899544  0.9998885588363725  1.0000
  Re  Re11      1.0  0.004779898688425173  0.0017474019310960908  0.9998603204714656  1.0000
  Re  Re12      1.0  0.002308707946783524  0.0016309276552740654  3.4779487214634014e-05  1.0000
  Re  Re13      1.0  0.0031735473352365456  0.00817213863987984  0.9999852400231606  1.0000
  Re  Re14      1.0  0.0006352625496128697  0.008326660214049384  0.9997783876994601  1.0000
  Re  Re15      1.0  0.003538918255847677  0.006710350364527168  0.9997468412399356  1.0000
  Re  Re16      1.0  0.0010152804737363502  0.006804283939603877  0.9999542446701707  1.0000
  Al  Al9       1.0  0.0052110816097644865  2.1696948859931043e-05  0.9996042058905373  1.0000
  Al  Al10      1.0  0.007711081732301863  2.1696948859931043e-05  0.9993909561188804  1.0000
  Al  Al11      1.0  0.00896108236219534  0.005021696669969484  0.9994975809748703  1.0000
  Al  Al12      1.0  0.006461081802024475  0.005021696669969484  0.9992843312032134  1.0000
  Re  Re17      1.0  0.009383245689582667  0.0033330433604201824  0.9992483207180153  1.0000
  Re  Re18      1.0  0.0068832451294118  0.0033330433604201824  0.9994615704896722  1.0000
  Re  Re19      1.0  0.009788918040188438  0.00171035045692918  0.999426966608312  1.0000
  Re  Re20      1.0  0.007288918355284551  0.00171035045692918  0.9996402163799689  1.0000
  Re  Re21      1.0  0.008133245808935265  0.008333042883009789  0.9995681953414287  1.0000
  Re  Re22      1.0  0.005633245248764398  0.008333042883009789  0.9993549455697718  1.0000
  Re  Re23      1.0  0.008538918063288941  0.006710350364527168  0.9993203416966218  1.0000
  Re  Re24      1.0  0.006038918378385053  0.006710350364527168  0.9995335914682787  1.0000
  Al  Al13      1.0  0.005221866311821373  0.00997830305282448  4.4575270290976205e-05  1.0000
  Al  Al14      1.0  0.007724477233200232  0.009968911928365427  0.9998131163026699  1.0000
  Al  Al15      1.0  0.00895831974955647  0.005033576873619576  0.9999424261144503  1.0000
  Al  Al16      1.0  0.006461081802024475  0.005021696669969484  0.9997108307465272  1.0000
  Re  Re25      1.0  0.009383245689582667  0.0033330433604201824  0.9996748202613291  1.0000
  Re  Re26      1.0  0.00688377025195643  0.0033320176980899544  0.9998885588363725  1.0000
  Re  Re27      1.0  0.009779899371133416  0.0017474019310960908  0.9998603204714656  1.0000
  Re  Re28      1.0  0.007308708410675022  0.0016309276552740654  3.4779487214634014e-05  1.0000
  Re  Re29      1.0  0.00817354714267781  0.00817213863987984  0.9999852400231606  1.0000
  Re  Re30      1.0  0.005635262794687623  0.008326660214049384  0.9997783876994601  1.0000
  Re  Re31      1.0  0.008538918063288941  0.006710350364527168  0.9997468412399356  1.0000
  Re  Re32      1.0  0.006015280937627848  0.006804283939603877  0.9999542446701707  1.0000
