data_image0
_chemical_formula_structural       Rh4Sn2V2Rh4Sn2V2H
_chemical_formula_sum              "Rh8 Sn4 V4 H1"
_cell_length_a       8.205523490905762
_cell_length_b       4.698842199780943
_cell_length_c       41.28449630737305
_cell_angle_alpha    91.7638707936055
_cell_angle_beta     90.0
_cell_angle_gamma    115.88533695828828

_space_group_name_H-M_alt    "P 1"
_space_group_IT_number       1

loop_
  _space_group_symop_operation_xyz
  'x, y, z'

loop_
  _atom_site_type_symbol
  _atom_site_label
  _atom_site_symmetry_multiplicity
  _atom_site_fract_x
  _atom_site_fract_y
  _atom_site_fract_z
  _atom_site_occupancy
  Rh  Rh1       1.0  0.0017516168221064746  0.006816463499177964  0.9996596348849547  1.0000
  Rh  Rh2       1.0  0.004863704803802861  0.009265730186299118  3.246078773439753e-05  1.0000
  Rh  Rh3       1.0  0.000532829663064935  0.0019520155505652673  0.9987787343387459  1.0000
  Rh  Rh4       1.0  0.003657829501779132  0.004452015356582453  0.9992134541156205  1.0000
  Sn  Sn1       1.0  0.0002258744952387538  0.0007342695888571644  0.9994197095148986  1.0000
  Sn  Sn2       1.0  0.003970329532640034  0.005702015480026062  0.998561374330612  1.0000
  V   V1        1.0  0.003520973385317486  0.003896072074448544  0.9998473619533046  1.0000
  V   V2        1.0  0.002095329707151938  0.00820201572691328  0.9989960944699695  1.0000
  Rh  Rh5       1.0  0.006751616674557162  0.006816463499177964  0.9996596348849547  1.0000
  Rh  Rh6       1.0  0.009863704713003284  0.009265730186299118  3.246078773439753e-05  1.0000
  Rh  Rh7       1.0  0.005532829731873989  0.0019520155505652673  0.9987787343387459  1.0000
  Rh  Rh8       1.0  0.008657829410979555  0.004452015356582453  0.9992134541156205  1.0000
  Sn  Sn3       1.0  0.005225874461188912  0.0007342695888571644  0.9994197095148986  1.0000
  Sn  Sn4       1.0  0.008970329441840457  0.005702015480026062  0.998561374330612  1.0000
  V   V3        1.0  0.008520973294517908  0.003896072074448544  0.9998473619533046  1.0000
  V   V4        1.0  0.0070953297759609926  0.00820201572691328  0.9989960944699695  1.0000
  H   H1        1.0  0.00013629517584565489  0.00535626800724827  0.00011683095239466731  1.0000
