data_image0
_chemical_formula_structural       HV6Ir18V6Ir18
_chemical_formula_sum              "H1 V12 Ir36"
_cell_length_a       9.489853858947754
_cell_length_b       7.007186085186552
_cell_length_c       105.03593444824219
_cell_angle_alpha    85.24291013415225
_cell_angle_beta     90.0
_cell_angle_gamma    47.37854576999633

_space_group_name_H-M_alt    "P 1"
_space_group_IT_number       1

loop_
  _space_group_symop_operation_xyz
  'x, y, z'

loop_
  _atom_site_type_symbol
  _atom_site_label
  _atom_site_symmetry_multiplicity
  _atom_site_fract_x
  _atom_site_fract_y
  _atom_site_fract_z
  _atom_site_occupancy
  H   H1        1.0  0.0018805271178183728  0.001227793965564098  3.6400076620042204e-05  1.0000
  V   V1        1.0  0.007500533238168524  0.008335524101054816  0.9993088417591833  1.0000
  V   V2        1.0  0.0008338662389151372  0.0016688576913043097  0.9990864672495382  1.0000
  V   V3        1.0  0.004167199843929217  0.005002191077959865  0.9988640932006694  1.0000
  V   V4        1.0  0.0058338662174880936  0.005002191077959865  0.9991976543614878  1.0000
  V   V5        1.0  0.009167200396837553  0.008335524101054816  0.9989752803146303  1.0000
  V   V6        1.0  0.0025005330050290897  0.0016688576913043097  0.9987529060887198  1.0000
  Ir  Ir1       1.0  0.007508894965656695  0.006660495695628598  0.9990870250321653  1.0000
  Ir  Ir2       1.0  0.0008422281847618331  0.009993829445844756  0.9988646509812851  1.0000
  Ir  Ir3       1.0  0.004175561571417387  0.0033271626725336467  0.9993093996464918  1.0000
  Ir  Ir4       1.0  0.009167199765105728  0.003343886096730528  0.9993082839765561  1.0000
  Ir  Ir5       1.0  0.0025005331659911693  0.006677219483386083  0.9990859093602183  1.0000
  Ir  Ir6       1.0  0.005833866632530647  1.0552550307129526e-05  0.998863535137203  1.0000
  Ir  Ir7       1.0  0.0008255048885923122  0.005002191077959865  0.9991976543614878  1.0000
  Ir  Ir8       1.0  0.004158838282831618  0.008335524101054816  0.9989752803146303  1.0000
  Ir  Ir9       1.0  0.007492171487706871  0.0016688576913043097  0.9987529060887198  1.0000
  Ir  Ir10      1.0  0.005825505275110074  0.006677219483386083  0.9987523481994  1.0000
  Ir  Ir11      1.0  0.0091588379565394  1.0552550307129526e-05  0.9991970965817559  1.0000
  Ir  Ir12      1.0  0.0024921712775409187  0.003343886096730528  0.9989747222482688  1.0000
  Ir  Ir13      1.0  0.004167200293880738  0.009993829445844756  0.9991982121421035  1.0000
  Ir  Ir14      1.0  0.0075005336805362924  0.0033271626725336467  0.9989758379182043  1.0000
  Ir  Ir15      1.0  0.0008338664780918838  0.006660495695628598  0.9987534638713469  1.0000
  Ir  Ir16      1.0  0.0025088947554907414  0.008335524101054816  0.9993088417591833  1.0000
  Ir  Ir17      1.0  0.005842227960365994  0.0016688576913043097  0.9990864672495382  1.0000
  Ir  Ir18      1.0  0.00917556195793515  0.005002191077959865  0.9988640932006694  1.0000
  V   V7        1.0  0.00748726775770414  0.008277011930418618  0.9999542070131058  1.0000
  V   V8        1.0  0.0008295498627448684  0.001714215148626832  0.9997543132568893  1.0000
  V   V9        1.0  0.004167199843929217  0.005002191077959865  0.9995312160897752  1.0000
  V   V10       1.0  0.005903337909735296  0.004897594692354901  0.9998611748232247  1.0000
  V   V11       1.0  0.009167200396837553  0.008335524101054816  0.9996424029200017  1.0000
  V   V12       1.0  0.0025005330050290897  0.0016688576913043097  0.9994200286940911  1.0000
  Ir  Ir19      1.0  0.007502146998213687  0.006682637263498301  0.9997521031204293  1.0000
  Ir  Ir20      1.0  0.0008422281847618331  0.009993829445844756  0.9995317738703909  1.0000
  Ir  Ir21      1.0  0.004209453218082728  0.003427305804307275  0.9999654152662336  1.0000
  Ir  Ir22      1.0  0.00913813288683719  0.003358600121472287  0.9999625494607763  1.0000
  Ir  Ir23      1.0  0.0024173717260394974  0.006747454302119071  0.9997524408014442  1.0000
  Ir  Ir24      1.0  0.005833866632530647  1.0552550307129526e-05  0.9995306577425743  1.0000
  Ir  Ir25      1.0  0.0008244389778216118  0.005030869829039727  0.999867568288216  1.0000
  Ir  Ir26      1.0  0.004158838282831618  0.008335524101054816  0.9996424029200017  1.0000
  Ir  Ir27      1.0  0.007492171487706871  0.0016688576913043097  0.9994200286940911  1.0000
  Ir  Ir28      1.0  0.005825505275110074  0.006677219483386083  0.9994194708047712  1.0000
  Ir  Ir29      1.0  0.009095749352853746  6.1706502147711e-06  0.9998716020854673  1.0000
  Ir  Ir30      1.0  0.0024921712775409187  0.003343886096730528  0.9996418451373745  1.0000
  Ir  Ir31      1.0  0.004241907350413981  0.009859016811368053  0.9998735397024725  1.0000
  Ir  Ir32      1.0  0.0075005336805362924  0.0033271626725336467  0.9996429608073102  1.0000
  Ir  Ir33      1.0  0.0008338664780918838  0.006660495695628598  0.9994205864767183  1.0000
  Ir  Ir34      1.0  0.0024880648963335377  0.008428630517349182  0.9999638323053899  1.0000
  Ir  Ir35      1.0  0.005821705868109714  0.0017023977929928504  0.9997520054813266  1.0000
  Ir  Ir36      1.0  0.00917556195793515  0.005002191077959865  0.9995312160897752  1.0000
