data_image0
_chemical_formula_structural       COSi12W6
_chemical_formula_sum              "C1 O1 Si12 W6"
_cell_length_a       4.557306338300884
_cell_length_b       6.461290309988435
_cell_length_c       100.0210952758789
_cell_angle_alpha    87.02444420014369
_cell_angle_beta     85.7793752885996
_cell_angle_gamma    80.15535056080543

_space_group_name_H-M_alt    "P 1"
_space_group_IT_number       1

loop_
  _space_group_symop_operation_xyz
  'x, y, z'

loop_
  _atom_site_type_symbol
  _atom_site_label
  _atom_site_symmetry_multiplicity
  _atom_site_fract_x
  _atom_site_fract_y
  _atom_site_fract_z
  _atom_site_occupancy
  C   C1        1.0  0.0042225776109698744  0.00753145436062537  5.138932234686919e-05  1.0000
  O   O1        1.0  0.0042225776109698744  0.00753145436062537  0.0001713636605697401  1.0000
  Si  Si1       1.0  0.005031917023498177  0.005001612574420457  0.999184502857498  1.0000
  Si  Si2       1.0  0.008365250007312348  0.0007158982682087336  0.9993274303960099  1.0000
  Si  Si3       1.0  0.0016985838398798367  0.006430184424653462  0.9994703579301243  1.0000
  Si  Si4       1.0  0.0027671385524442645  0.0026024217490754555  0.9993746167139125  1.0000
  Si  Si5       1.0  0.006100471535721609  0.008316707685904779  0.9995175441830803  1.0000
  Si  Si6       1.0  0.009433804784705114  0.006888136421312852  0.9992316894062314  1.0000
  Si  Si7       1.0  0.005031917115825772  0.0021444697524160648  0.999613285468884  1.0000
  Si  Si8       1.0  0.008328161824743007  0.007849562295606578  0.9997562346500785  1.0000
  Si  Si9       1.0  0.0017004804998286592  0.003588836928157563  0.9998972794481907  1.0000
  Si  Si10      1.0  0.002862974760424029  0.009769411462388312  0.999810642325915  1.0000
  Si  Si11      1.0  0.006090744926081914  0.005511452370570136  0.9999445785145933  1.0000
  Si  Si12      1.0  0.009433805356634727  0.004030993306487921  0.9996604714210703  1.0000
  W   W1        1.0  0.0005661946100844841  0.00023058865254374936  0.999565414893783  1.0000
  W   W2        1.0  0.0038995277789810154  0.008802017319871047  0.9992795597509397  1.0000
  W   W3        1.0  0.007232860780238771  0.004516302940454189  0.9994224872896387  1.0000
  W   W4        1.0  0.000591280965179369  0.007377615819752832  0.9999732775619147  1.0000
  W   W5        1.0  0.003932071330480715  0.005959748902780357  0.9997010057866874  1.0000
  W   W6        1.0  0.007238161240507431  0.0017083081425680142  0.9998428537780747  1.0000
