data_image0
_chemical_formula_structural       COPt8W4Pt8W4Pt8W4Pt8W4
_chemical_formula_sum              "C1 O1 Pt32 W16"
_cell_length_a       5.619956970214844
_cell_length_b       17.224145428268404
_cell_length_c       101.78519439697266
_cell_angle_alpha    103.33671179159298
_cell_angle_beta     90.0
_cell_angle_gamma    90.0

_space_group_name_H-M_alt    "P 1"
_space_group_IT_number       1

loop_
  _space_group_symop_operation_xyz
  'x, y, z'

loop_
  _atom_site_type_symbol
  _atom_site_label
  _atom_site_symmetry_multiplicity
  _atom_site_fract_x
  _atom_site_fract_y
  _atom_site_fract_z
  _atom_site_occupancy
  C   C1        1.0  0.002500000477265045  0.003550063308564001  0.0002761165167739775  1.0000
  O   O1        1.0  0.002500000477265045  0.003550063308564001  0.0003940120947093474  1.0000
  Pt  Pt1       1.0  0.0024999999801139563  0.004215454992867771  0.999750719682921  1.0000
  Pt  Pt2       1.0  0.0024999999801139563  0.00921545556189835  0.9995555463799705  1.0000
  Pt  Pt3       1.0  4.9999997793567366e-11  0.0033453634488641807  0.9995215826731547  1.0000
  Pt  Pt4       1.0  4.9999997793567366e-11  0.00834536335106205  0.9997167559242284  1.0000
  Pt  Pt5       1.0  4.9999997793567366e-11  0.0017154549306300513  0.999457959763019  1.0000
  Pt  Pt6       1.0  4.9999997793567366e-11  0.0067154552773830605  0.9996531330314457  1.0000
  Pt  Pt7       1.0  0.0024999999801139563  0.0008453632199182838  0.9996191693267992  1.0000
  Pt  Pt8       1.0  0.0024999999801139563  0.0058453635111019005  0.9998143425930567  1.0000
  W   W1        1.0  4.9999997793567366e-11  0.005030409029707266  0.9995873578392854  1.0000
  W   W2        1.0  4.9999997793567366e-11  3.0409002478263315e-05  0.999782531163385  1.0000
  W   W3        1.0  0.0024999999801139563  0.002530409189747116  0.9996849445081137  1.0000
  W   W4        1.0  0.0024999999801139563  0.007530409314222555  0.9994897711878102  1.0000
  Pt  Pt9       1.0  0.0025000008086991034  0.00410400990941147  0.00014124765047259996  1.0000
  Pt  Pt10      1.0  0.0024999999801139563  0.009255311708407335  0.9999410423490225  1.0000
  Pt  Pt11      1.0  2.499999988453415e-10  0.0033349455214391377  0.9999082845594097  1.0000
  Pt  Pt12      1.0  6.499999811938805e-10  0.008430107119152954  0.00010635024220741065  1.0000
  Pt  Pt13      1.0  4.9999997793567366e-11  0.0017154549306300513  0.9998483063430726  1.0000
  Pt  Pt14      1.0  0.009999999920455825  0.0067363653729415034  3.8559951405064196e-05  1.0000
  Pt  Pt15      1.0  0.002499999151528809  0.0009491147765547793  3.7048364041124924e-05  1.0000
  Pt  Pt16      1.0  0.002500000145830986  0.005810762450901196  0.0001805042322947207  1.0000
  W   W5        1.0  2.499999988453415e-10  0.004978464539835213  0.999981629331902  1.0000
  W   W6        1.0  0.009999999257587707  0.009969591788274192  0.00015574500707475066  1.0000
  W   W7        1.0  0.002500000145830986  0.002519330653384241  6.121872844409489e-05  1.0000
  W   W8        1.0  0.0024999999801139563  0.007530409314222555  0.9998801177678639  1.0000
  Pt  Pt17      1.0  0.007500000106058898  0.004215454992867771  0.999750719682921  1.0000
  Pt  Pt18      1.0  0.007500000106058898  0.00921545556189835  0.9995555463799705  1.0000
  Pt  Pt19      1.0  0.004999999960227913  0.0033453634488641807  0.9995215826731547  1.0000
  Pt  Pt20      1.0  0.004999999960227913  0.00834536335106205  0.9997167559242284  1.0000
  Pt  Pt21      1.0  0.004999999960227913  0.0017154549306300513  0.999457959763019  1.0000
  Pt  Pt22      1.0  0.004999999960227913  0.0067154552773830605  0.9996531330314457  1.0000
  Pt  Pt23      1.0  0.007500000106058898  0.0008453632199182838  0.9996191693267992  1.0000
  Pt  Pt24      1.0  0.007500000106058898  0.0058453635111019005  0.9998143425930567  1.0000
  W   W9        1.0  0.004999999960227913  0.005030409029707266  0.9995873578392854  1.0000
  W   W10       1.0  0.004999999960227913  3.0409002478263315e-05  0.999782531163385  1.0000
  W   W11       1.0  0.007500000106058898  0.002530409189747116  0.9996849445081137  1.0000
  W   W12       1.0  0.007500000106058898  0.007530409314222555  0.9994897711878102  1.0000
  Pt  Pt25      1.0  0.007500000768927016  0.00410400990941147  0.00014124765047259996  1.0000
  Pt  Pt26      1.0  0.007500000106058898  0.009255311708407335  0.9999410423490225  1.0000
  Pt  Pt27      1.0  0.004999999960227913  0.0033349455214391377  0.9999082845594097  1.0000
  Pt  Pt28      1.0  0.005000000623096031  0.008430107119152954  0.00010635024220741065  1.0000
  Pt  Pt29      1.0  0.004999999960227913  0.0017154549306300513  0.9998483063430726  1.0000
  Pt  Pt30      1.0  0.004999999960227913  0.0067363653729415034  3.8559951405064196e-05  1.0000
  Pt  Pt31      1.0  0.007499998780322663  0.0009491147765547793  3.7048364041124924e-05  1.0000
  Pt  Pt32      1.0  0.007500000106058898  0.005810762450901196  0.0001805042322947207  1.0000
  W   W13       1.0  0.004999999960227913  0.004978464539835213  0.999981629331902  1.0000
  W   W14       1.0  0.0049999996287938536  0.009969591788274192  0.00015574500707475066  1.0000
  W   W15       1.0  0.007500000106058898  0.002519330653384241  6.121872844409489e-05  1.0000
  W   W16       1.0  0.007500000106058898  0.007530409314222555  0.9998801177678639  1.0000
