data_image0
_chemical_formula_structural       HAs24
_chemical_formula_sum              "H1 As24"
_cell_length_a       6.680486679077148
_cell_length_b       11.371525302697579
_cell_length_c       100.85584259033203
_cell_angle_alpha    99.76394803445474
_cell_angle_beta     90.0
_cell_angle_gamma    72.91815260772236

_space_group_name_H-M_alt    "P 1"
_space_group_IT_number       1

loop_
  _space_group_symop_operation_xyz
  'x, y, z'

loop_
  _atom_site_type_symbol
  _atom_site_label
  _atom_site_symmetry_multiplicity
  _atom_site_fract_x
  _atom_site_fract_y
  _atom_site_fract_z
  _atom_site_occupancy
  H   H1        1.0  0.00961513408815657  0.005079840923646632  0.00013890400783230324  1.0000
  As  As1       1.0  0.006098930821926348  0.007828379798329014  0.9995722991757792  1.0000
  As  As2       1.0  0.0010989316249244365  0.007828379798329014  0.9997635117372713  1.0000
  As  As3       1.0  0.007159066629578749  0.009041442468058984  0.9997867070193043  1.0000
  As  As4       1.0  0.002159066874939276  0.009041442468058984  0.9995954944578122  1.0000
  As  As5       1.0  0.007765598093773702  0.0011617132001497806  0.999636036697586  1.0000
  As  As6       1.0  0.002765598060315448  0.0011617132001497806  0.999444824136094  1.0000
  As  As7       1.0  0.008825734032016547  0.002374775608698858  0.9994680194131328  1.0000
  As  As8       1.0  0.003825733719739514  0.002374775608698858  0.9996592319746249  1.0000
  As  As9       1.0  0.009432264635753616  0.004495046455709248  0.9996997742165964  1.0000
  As  As10      1.0  0.0044322648811141434  0.004495046455709248  0.9995085616551043  1.0000
  As  As11      1.0  0.005492400131128982  0.005708109125439219  0.9997229694986293  1.0000
  As  As12      1.0  0.0004924000976707288  0.005708109125439219  0.9995317569371371  1.0000
  As  As13      1.0  0.005645825639773517  0.0071351451128288095  0.9999850967350228  1.0000
  As  As14      1.0  0.0003976214140327932  0.007473453768992685  0.00013186334032824247  1.0000
  As  As15      1.0  0.006907656892282449  0.00881315225853747  0.00011635257646981393  1.0000
  As  As16      1.0  0.0020499966364858286  0.008611937105166924  9.49506650672888e-07  1.0000
  As  As17      1.0  0.00767268359950686  0.0009585576468606096  0.9999846613925013  1.0000
  As  As18      1.0  0.002765598060315448  0.0011617132001497806  0.9998272492590782  1.0000
  As  As19      1.0  0.008825734032016547  0.002374775608698858  0.999850444536117  1.0000
  As  As20      1.0  0.0040624592201634014  0.002324448836437587  3.3712257185209536e-05  1.0000
  As  As21      1.0  0.009132662939333373  0.0041400539123053574  7.916303132873748e-05  1.0000
  As  As22      1.0  0.004256193178845682  0.0042023009805491306  0.9999233347165393  1.0000
  As  As23      1.0  0.00543982125947747  0.005473284169960601  0.0001222302941012653  1.0000
  As  As24      1.0  0.00038486532522577244  0.005445110412850686  0.9999487896121841  1.0000
