data_image0
_chemical_formula_structural       HAl4Au4Al4Au4Al4Au4
_chemical_formula_sum              "H1 Al12 Au12"
_cell_length_a       6.445474624633789
_cell_length_b       7.340266062294613
_cell_length_c       35.7082405090332
_cell_angle_alpha    62.14903889838156
_cell_angle_beta     90.0
_cell_angle_gamma    92.20341907637976

_space_group_name_H-M_alt    "P 1"
_space_group_IT_number       1

loop_
  _space_group_symop_operation_xyz
  'x, y, z'

loop_
  _atom_site_type_symbol
  _atom_site_label
  _atom_site_symmetry_multiplicity
  _atom_site_fract_x
  _atom_site_fract_y
  _atom_site_fract_z
  _atom_site_occupancy
  H   H1        1.0  0.004266533677037854  0.005295840870471319  0.9997597949761252  1.0000
  Al  Al1       1.0  0.005478745592791144  0.008202140571089101  0.9992131874355162  1.0000
  Al  Al2       1.0  0.004136847070317639  0.0018587567965698234  0.9993698150073269  1.0000
  Al  Al3       1.0  0.009261925336471105  0.0032116234815962558  0.9987093761740872  1.0000
  Al  Al4       1.0  0.0007852190530133841  0.006832804782224422  0.9988650454558667  1.0000
  Au  Au1       1.0  0.0031636870781714074  0.0048873275779714575  0.9994890158875526  1.0000
  Au  Au2       1.0  0.007044294814271694  0.0052657104742151375  0.9989967227224429  1.0000
  Au  Au3       1.0  0.0018385643769436486  0.009943444438413997  0.9990450994200489  1.0000
  Au  Au4       1.0  0.007717058347336009  0.0004551754182224481  0.9994270241434686  1.0000
  Al  Al5       1.0  0.005449754029130985  0.008202866224009881  0.9982308074195169  1.0000
  Al  Al6       1.0  0.004458553877915051  0.0017971337530082363  0.9983658041605784  1.0000
  Al  Al7       1.0  0.009170233426447093  0.0031933836237581325  0.9977515521519114  1.0000
  Al  Al8       1.0  0.0007380746250914179  0.006806616353259985  0.9978847276211696  1.0000
  Au  Au5       1.0  0.0030306308348973508  0.004778411268755789  0.9985596687153225  1.0000
  Au  Au6       1.0  0.006877676783163737  0.005221588708262328  0.9980369428647727  1.0000
  Au  Au7       1.0  0.001839965731709236  3.182600129772711e-05  0.9980551665810897  1.0000
  Au  Au8       1.0  0.00806834218044671  0.00996817409242526  0.998541444987798  1.0000
  Al  Al9       1.0  0.005449754029130985  0.008202866224009881  0.9972704756125027  1.0000
  Al  Al10      1.0  0.004458553877915051  0.0017971337530082363  0.9974054723535641  1.0000
  Al  Al11      1.0  0.009170233426447093  0.0031933836237581325  0.9967912203448972  1.0000
  Al  Al12      1.0  0.0007380746250914179  0.006806616353259985  0.9969243958141554  1.0000
  Au  Au9       1.0  0.0030306308348973508  0.004778411268755789  0.9975993369083084  1.0000
  Au  Au10      1.0  0.006877676783163737  0.005221588708262328  0.9970766110577585  1.0000
  Au  Au11      1.0  0.001839965731709236  3.182600129772711e-05  0.9970948347740756  1.0000
  Au  Au12      1.0  0.00806834218044671  0.00996817409242526  0.9975811131807837  1.0000
