data_image0
_chemical_formula_structural       Re6V18H
_chemical_formula_sum              "Re6 V18 H1"
_cell_length_a       6.031065464019775
_cell_length_b       7.386516588654395
_cell_length_c       102.47827911376953
_cell_angle_alpha    94.34775316225374
_cell_angle_beta     90.0
_cell_angle_gamma    114.09484223099271

_space_group_name_H-M_alt    "P 1"
_space_group_IT_number       1

loop_
  _space_group_symop_operation_xyz
  'x, y, z'

loop_
  _atom_site_type_symbol
  _atom_site_label
  _atom_site_symmetry_multiplicity
  _atom_site_fract_x
  _atom_site_fract_y
  _atom_site_fract_z
  _atom_site_occupancy
  Re  Re1       1.0  0.002009461250139771  0.0035637105638535757  0.9997730112250817  1.0000
  Re  Re2       1.0  0.007836014042307866  0.005217944203695172  0.9995062789278157  1.0000
  Re  Re3       1.0  0.006207721130094313  0.001956668925287728  1.0691793899186586e-05  1.0000
  Re  Re4       1.0  0.0049193476221037445  0.009384611313872238  0.9996383325201227  1.0000
  Re  Re5       1.0  0.0007526809395856053  0.0010512777172046056  0.9993742253389167  1.0000
  Re  Re6       1.0  0.00903868426061919  0.007620692839882952  0.9999010629212443  1.0000
  V   V1        1.0  0.005093474206811794  0.004718107428827579  0.9999639995460492  1.0000
  V   V2        1.0  0.0009610143557551461  0.006467944447625892  0.9997043591860147  1.0000
  V   V3        1.0  0.006794347487784712  0.008134611069941518  0.9994402522619236  1.0000
  V   V4        1.0  0.004711014071293179  0.003967944236958452  0.9993081986711313  1.0000
  V   V5        1.0  0.003045497085292004  0.000615541500407923  0.9998361472061424  1.0000
  V   V6        1.0  0.008877681044269828  0.002301277614642826  0.9995723055952225  1.0000
  V   V7        1.0  0.0070238704727434076  0.003593398872816545  0.9997693841180468  1.0000
  V   V8        1.0  0.0028360141249230498  0.005217944203695172  0.9995062789278157  1.0000
  V   V9        1.0  0.0009441223941144303  0.001434139663624682  1.264373417542229e-05  1.0000
  V   V10       1.0  0.009711013737744028  0.003967944236958452  0.9993081986711313  1.0000
  V   V11       1.0  0.008025193443053276  0.0006153888358125209  0.9998361190352366  1.0000
  V   V12       1.0  0.0038776807601353658  0.002301277614642826  0.9995723055952225  1.0000
  V   V13       1.0  8.065247134625009e-05  0.004718135148227562  0.9999639839934523  1.0000
  V   V14       1.0  0.005961014176626899  0.006467944447625892  0.9997043591860147  1.0000
  V   V15       1.0  0.0017943475124920563  0.008134611069941518  0.9994402522619236  1.0000
  V   V16       1.0  0.0099193475973964  0.009384611313872238  0.9996383325201227  1.0000
  V   V17       1.0  0.005752680799062583  0.0010512777172046056  0.9993742253389167  1.0000
  V   V18       1.0  0.0040555247168615255  0.007656316703964117  0.9999139394839145  1.0000
  H   H1        1.0  0.001547104609960766  0.007638504771923535  5.3873544353705616e-05  1.0000
