data_image0
_chemical_formula_structural       CONb12
_chemical_formula_sum              "C1 O1 Nb12"
_cell_length_a       4.720798015594482
_cell_length_b       4.72079778874522
_cell_length_c       104.69063568115234
_cell_angle_alpha    90.0
_cell_angle_beta     90.0
_cell_angle_gamma    59.99999841041417

_space_group_name_H-M_alt    "P 1"
_space_group_IT_number       1

loop_
  _space_group_symop_operation_xyz
  'x, y, z'

loop_
  _atom_site_type_symbol
  _atom_site_label
  _atom_site_symmetry_multiplicity
  _atom_site_fract_x
  _atom_site_fract_y
  _atom_site_fract_z
  _atom_site_occupancy
  C   C1        1.0  1.1808607615373672e-07  0.009999972408839389  0.00016544472781722735  1.0000
  O   O1        1.0  1.1808607615373672e-07  0.009999972408839389  0.0002800678231492454  1.0000
  Nb  Nb1       1.0  0.0066667306241289595  0.006666695503135056  0.9991120584475556  1.0000
  Nb  Nb2       1.0  6.429999569187566e-08  2.850000187634667e-08  0.9994802402914923  1.0000
  Nb  Nb3       1.0  0.003333397706408243  0.0033333618751801262  0.9992961493695239  1.0000
  Nb  Nb4       1.0  0.0066667306241289595  0.006666695503135056  0.9993881946881729  1.0000
  Nb  Nb5       1.0  6.429999569187566e-08  2.850000187634667e-08  0.9992041040508749  1.0000
  Nb  Nb6       1.0  0.003333397706408243  0.0033333618751801262  0.9990200131289065  1.0000
  Nb  Nb7       1.0  0.0066667306241289595  0.006666695503135056  0.9996643309287903  1.0000
  Nb  Nb8       1.0  1.1808607615373672e-07  0.009999972408839389  0.0  1.0000
  Nb  Nb9       1.0  0.0033335611609118234  0.003333198314634229  0.9998548266494977  1.0000
  Nb  Nb10      1.0  0.0066665920521208856  0.006666832183256975  0.9999326760259484  1.0000
  Nb  Nb11      1.0  0.009999935267606586  1.5680000759121965e-07  0.9997512800784083  1.0000
  Nb  Nb12      1.0  0.003333397706408243  0.0033333618751801262  0.9995722856101412  1.0000
