data_image0
_chemical_formula_structural       CORh6W2Rh6W2
_chemical_formula_sum              "C1 O1 Rh12 W4"
_cell_length_a       5.517900466918945
_cell_length_b       5.517900225158262
_cell_length_c       100.7138442993164
_cell_angle_alpha    90.0
_cell_angle_beta     90.0
_cell_angle_gamma    120.00000144935188

_space_group_name_H-M_alt    "P 1"
_space_group_IT_number       1

loop_
  _space_group_symop_operation_xyz
  'x, y, z'

loop_
  _atom_site_type_symbol
  _atom_site_label
  _atom_site_symmetry_multiplicity
  _atom_site_fract_x
  _atom_site_fract_y
  _atom_site_fract_z
  _atom_site_occupancy
  C   C1        1.0  0.008305153458719058  0.0016948747740242066  0.00016698487739157542  1.0000
  O   O1        1.0  0.008305153458719058  0.0016948747740242066  0.00028613398541675426  1.0000
  Rh  Rh1       1.0  0.008318490311282619  0.006665571816421791  0.9993466373563388  1.0000
  Rh  Rh2       1.0  0.001662438178723142  0.008337545719030353  0.999564466824934  1.0000
  Rh  Rh3       1.0  0.006646516704268611  0.008337545719030353  0.999564466824934  1.0000
  Rh  Rh4       1.0  0.003334411677708926  0.0016814932436019301  0.9993466373563388  1.0000
  Rh  Rh5       1.0  0.00831849037203645  0.0016814932436019301  0.9993466373563388  1.0000
  Rh  Rh6       1.0  0.0016624381458556776  0.003353467146210492  0.999564466824934  1.0000
  W   W1        1.0  0.0033237976972058936  0.006676186454614052  0.9993466373563388  1.0000
  W   W2        1.0  0.006657130851973578  0.00334285289780371  0.999564466824934  1.0000
  Rh  Rh7       1.0  0.008337536740780515  0.006703815229009758  0.9997834879266467  1.0000
  Rh  Rh8       1.0  0.0017132006064873096  0.008286851778639167  0.9999999946736041  1.0000
  Rh  Rh9       1.0  0.006545184109329838  0.008286862692632608  0.999999997632713  1.0000
  Rh  Rh10      1.0  0.0032962008637254492  0.0016624791181004352  0.9997834908857555  1.0000
  Rh  Rh11      1.0  0.008337561938417363  0.001662454366722453  0.999783494436686  1.0000
  Rh  Rh12      1.0  0.0017131847832351488  0.0034548667205572636  0.0  1.0000
  W   W3        1.0  0.0033238148879510634  0.006676145137353168  0.9997901157385576  1.0000
  W   W4        1.0  0.0066570914764141655  0.003342894994635554  0.9999850239503165  1.0000
