data_image0
_chemical_formula_structural       V6Au2V6Au2CO
_chemical_formula_sum              "V12 Au4 C1 O1"
_cell_length_a       4.8841681480407715
_cell_length_b       4.8841681480407715
_cell_length_c       104.18917846679688
_cell_angle_alpha    90.0
_cell_angle_beta     90.0
_cell_angle_gamma    90.0

_space_group_name_H-M_alt    "P 1"
_space_group_IT_number       1

loop_
  _space_group_symop_operation_xyz
  'x, y, z'

loop_
  _atom_site_type_symbol
  _atom_site_label
  _atom_site_symmetry_multiplicity
  _atom_site_fract_x
  _atom_site_fract_y
  _atom_site_fract_z
  _atom_site_occupancy
  V   V1        1.0  0.003749999893218123  1.0959999833936782e-07  0.9992891390696034  1.0000
  V   V2        1.0  0.00874999987796357  1.0959999833936782e-07  0.9992891390696034  1.0000
  V   V3        1.0  0.0012499999961863616  0.005000109436169235  0.9991719442812921  1.0000
  V   V4        1.0  0.0012499999961863616  0.005000109436169235  0.9994063338579148  1.0000
  V   V5        1.0  0.006249999694908924  0.0025001094437965125  0.9995235286462262  1.0000
  V   V6        1.0  0.006249999694908924  0.007500109619223882  0.9995235286462262  1.0000
  Au  Au1       1.0  0.006249999694908924  0.005000109436169235  0.9992891390696034  1.0000
  Au  Au2       1.0  0.0012499999961863616  1.0959999833936782e-07  0.9995235286462262  1.0000
  V   V7        1.0  0.003760389769837339  2.174999900570699e-07  0.9997596624976823  1.0000
  V   V8        1.0  0.008739555847678228  1.916999949928691e-07  0.9997596522002252  1.0000
  V   V9        1.0  0.0012499999961863616  0.005000109436169235  0.9996407228624565  1.0000
  V   V10       1.0  0.0012500918095322755  0.004999533576761843  0.9998617869573817  1.0000
  V   V11       1.0  0.006249485997808421  0.0021380004677412317  0.9999802540537381  1.0000
  V   V12       1.0  0.006249487904627651  0.00786209102907269  0.9999802597745477  1.0000
  Au  Au3       1.0  0.006249900158945129  0.005000182276663813  0.9997540131982463  1.0000
  Au  Au4       1.0  0.001250513311923018  0.009999890136703257  0.0  1.0000
  C   C1        1.0  0.0012500918095322755  0.004999533576761843  5.3745289531178466e-05  1.0000
  O   O1        1.0  0.0012500918095322755  0.004999533576761843  0.0001689206320694561  1.0000
