data_image0
_chemical_formula_structural       HFe2Rh4Sn2Fe2Rh4Sn2
_chemical_formula_sum              "H1 Fe4 Rh8 Sn4"
_cell_length_a       8.235590934753418
_cell_length_b       4.571696702163082
_cell_length_c       98.44611358642578
_cell_angle_alpha    89.4803031025378
_cell_angle_beta     90.0
_cell_angle_gamma    116.76662079159593

_space_group_name_H-M_alt    "P 1"
_space_group_IT_number       1

loop_
  _space_group_symop_operation_xyz
  'x, y, z'

loop_
  _atom_site_type_symbol
  _atom_site_label
  _atom_site_symmetry_multiplicity
  _atom_site_fract_x
  _atom_site_fract_y
  _atom_site_fract_z
  _atom_site_occupancy
  H   H1        1.0  0.001350905204304152  0.006615299893075523  5.01575294309646e-05  1.0000
  Fe  Fe1       1.0  0.0038880377422140073  0.006760894957288622  0.9999293316384158  1.0000
  Fe  Fe2       1.0  0.002712840610331362  0.002052527014420931  0.9995747669272219  1.0000
  Rh  Rh1       1.0  0.0011503404725679957  0.005802527105690801  0.9994844698294769  1.0000
  Rh  Rh2       1.0  0.002311205920764158  0.00044747283726553135  0.99985120573375  1.0000
  Rh  Rh3       1.0  0.00041215944579521676  0.0028693462514515562  0.9999987913979402  1.0000
  Rh  Rh4       1.0  0.004275340610331362  0.008302527014420932  0.9996650643583068  1.0000
  Sn  Sn1       1.0  0.004587840655966297  0.00955252719696067  0.9993941724290046  1.0000
  Sn  Sn2       1.0  0.00081415215482857  0.004462998026818446  0.999746596463351  1.0000
  Fe  Fe3       1.0  0.00888803795029058  0.006760894957288622  0.9999293316384158  1.0000
  Fe  Fe4       1.0  0.007712840818407935  0.002052527014420931  0.9995747669272219  1.0000
  Rh  Rh5       1.0  0.006150340624102022  0.005802527105690801  0.9994844698294769  1.0000
  Rh  Rh6       1.0  0.007311205902670543  0.00044747283726553135  0.99985120573375  1.0000
  Rh  Rh7       1.0  0.005412159682143063  0.0028693462514515562  0.9999987913979402  1.0000
  Rh  Rh8       1.0  0.009275340818407935  0.008302527014420932  0.9996650643583068  1.0000
  Sn  Sn3       1.0  0.00958784086404287  0.00955252719696067  0.9993941724290046  1.0000
  Sn  Sn4       1.0  0.005814152447718963  0.004462998026818446  0.999746596463351  1.0000
