data_image0
_chemical_formula_structural       HAs2Cu6Se8
_chemical_formula_sum              "H1 As2 Cu6 Se8"
_cell_length_a       6.952235698699951
_cell_length_b       6.952235640752372
_cell_length_c       102.30668640136719
_cell_angle_alpha    90.0
_cell_angle_beta     90.0
_cell_angle_gamma    108.97668331363535

_space_group_name_H-M_alt    "P 1"
_space_group_IT_number       1

loop_
  _space_group_symop_operation_xyz
  'x, y, z'

loop_
  _atom_site_type_symbol
  _atom_site_label
  _atom_site_symmetry_multiplicity
  _atom_site_fract_x
  _atom_site_fract_y
  _atom_site_fract_z
  _atom_site_occupancy
  H   H1        1.0  0.006455809552347698  0.005406709846141706  6.403322723475567e-05  1.0000
  As  As1       1.0  0.001906290944948106  0.009956233111504254  2.8879854733293652e-06  1.0000
  As  As2       1.0  0.0068448939584182635  0.005017629837971983  0.999598878218585  1.0000
  Cu  Cu1       1.0  0.006844894016401753  1.7629950369698652e-05  0.999401514095336  1.0000
  Cu  Cu2       1.0  0.001880149807699414  0.005047742049460483  0.9998035249358256  1.0000
  Cu  Cu3       1.0  0.0018448939517202558  0.005017629837971983  0.999401514095336  1.0000
  Cu  Cu4       1.0  0.006814778830678478  0.009982369799380482  0.9998035255184331  1.0000
  Cu  Cu5       1.0  0.0018448939092336292  1.7629950369698652e-05  0.999598878218585  1.0000
  Cu  Cu6       1.0  0.006455809552347698  0.005406709846141706  0.9999436059225587  1.0000
  Se  Se1       1.0  0.008153859438841579  0.008938144352141781  0.9999999994173925  1.0000
  Se  Se2       1.0  0.0029895241246694617  0.003782684085147611  0.999598878218585  1.0000
  Se  Se3       1.0  0.003155105900491994  0.008707417790342144  0.9994050790707468  1.0000
  Se  Se4       1.0  0.008150468743024811  0.0037120550777110153  0.9997981090163258  1.0000
  Se  Se5       1.0  0.0029243739346619425  0.003708662340021666  0.0  1.0000
  Se  Se6       1.0  0.008079839494098476  0.008872999822048854  0.999598878218585  1.0000
  Se  Se7       1.0  0.0030578328735596273  0.008804690058931676  0.999795673716895  1.0000
  Se  Se8       1.0  0.00815510586468259  0.0037074180056641194  0.9993979491199252  1.0000
