data_image0
_chemical_formula_structural       Sb8Rh4Sb8Rh4H
_chemical_formula_sum              "Sb16 Rh8 H1"
_cell_length_a       6.741428852081299
_cell_length_b       6.820814612056239
_cell_length_c       103.42717742919922
_cell_angle_alpha    90.0
_cell_angle_beta     90.0
_cell_angle_gamma    116.36749045840402

_space_group_name_H-M_alt    "P 1"
_space_group_IT_number       1

loop_
  _space_group_symop_operation_xyz
  'x, y, z'

loop_
  _atom_site_type_symbol
  _atom_site_label
  _atom_site_symmetry_multiplicity
  _atom_site_fract_x
  _atom_site_fract_y
  _atom_site_fract_z
  _atom_site_occupancy
  Sb  Sb1       1.0  0.006530367721536434  0.003246467359902835  0.9990273401029123  1.0000
  Sb  Sb2       1.0  0.0034244110567317747  0.001753532658384677  0.9993505354147305  1.0000
  Sb  Sb3       1.0  0.003424411312429009  0.006753532981464051  0.9992064473531778  1.0000
  Sb  Sb4       1.0  0.006530367632455242  0.008246467530586278  0.9988832520413595  1.0000
  Sb  Sb5       1.0  0.008470226549305286  0.0012688293219603151  0.9992053013890406  1.0000
  Sb  Sb6       1.0  0.0014845521247566552  0.003731170848723128  0.9988821060772224  1.0000
  Sb  Sb7       1.0  0.0014845520714015775  0.00873117071461471  0.9990284863551973  1.0000
  Sb  Sb8       1.0  0.00847022659956206  0.0062688291878518956  0.9993516816670155  1.0000
  Rh  Rh1       1.0  0.007262359609171626  0.00212704777095031  0.9994397488812854  1.0000
  Rh  Rh2       1.0  0.0026924194453948557  0.0028729522473372017  0.9991165535694672  1.0000
  Rh  Rh3       1.0  0.002692419563537369  0.007872952418020645  0.9994404289102932  1.0000
  Rh  Rh4       1.0  0.007262359588570588  0.007127048094029685  0.9991172338866228  1.0000
  Sb  Sb9       1.0  0.006530367721536434  0.003246467359902835  0.9996737307265487  1.0000
  Sb  Sb10      1.0  0.0034688557034266813  0.0016981917522951365  0.9999993626168793  1.0000
  Sb  Sb11      1.0  0.0034000742404951007  0.006735716068346098  0.9998490174240121  1.0000
  Sb  Sb12      1.0  0.006530367632455242  0.008246467530586278  0.9995296429531438  1.0000
  Sb  Sb13      1.0  0.008515448141354926  0.0012982642912954254  0.9998482832232022  1.0000
  Sb  Sb14      1.0  0.0014845521247566552  0.003731170848723128  0.9995284967008589  1.0000
  Sb  Sb15      1.0  0.0014845520714015775  0.00873117071461471  0.9996748769788337  1.0000
  Sb  Sb16      1.0  0.008429011567501199  0.0063159798794065886  0.0  1.0000
  Rh  Rh5       1.0  0.007346603578347009  0.002359534621936759  6.092829390560493e-05  1.0000
  Rh  Rh6       1.0  0.0026924194453948557  0.0028729522473372017  0.9997629441931036  1.0000
  Rh  Rh7       1.0  0.0024663236879841695  0.007812996810735977  6.52672247521043e-05  1.0000
  Rh  Rh8       1.0  0.007262359588570588  0.007127048094029685  0.9997636242221114  1.0000
  H   H1        1.0  0.006530367721536434  0.003246467359902835  0.9998187601672405  1.0000
