data_image0
_chemical_formula_structural       Pt4Rh12CO
_chemical_formula_sum              "Pt4 Rh12 C1 O1"
_cell_length_a       4.7504143714904785
_cell_length_b       4.750414180532885
_cell_length_c       102.97695922851562
_cell_angle_alpha    90.0
_cell_angle_beta     90.0
_cell_angle_gamma    109.3108123835831

_space_group_name_H-M_alt    "P 1"
_space_group_IT_number       1

loop_
  _space_group_symop_operation_xyz
  'x, y, z'

loop_
  _atom_site_type_symbol
  _atom_site_label
  _atom_site_symmetry_multiplicity
  _atom_site_fract_x
  _atom_site_fract_y
  _atom_site_fract_z
  _atom_site_occupancy
  Pt  Pt1       1.0  0.00499999994516959  0.005000000166190784  0.9992084975015736  1.0000
  Pt  Pt2       1.0  5.000000027586862e-11  5.000000087039146e-11  0.9994753611872617  1.0000
  Pt  Pt3       1.0  0.00499999994516959  0.005000000166190784  0.999739038205036  1.0000
  Pt  Pt4       1.0  0.00999999989033918  0.010000000332381569  0.0  1.0000
  Rh  Rh1       1.0  0.004999999828325849  5.000000087039146e-11  0.9990750658034335  1.0000
  Rh  Rh2       1.0  1.3337836575563056e-10  0.005000000166190784  0.9993419291997138  1.0000
  Rh  Rh3       1.0  1.3337836575563056e-10  0.005000000166190784  0.9990750658034335  1.0000
  Rh  Rh4       1.0  0.004999999828325849  5.000000087039146e-11  0.9993419291997138  1.0000
  Rh  Rh5       1.0  5.000000027586862e-11  5.000000087039146e-11  0.9992084975015736  1.0000
  Rh  Rh6       1.0  0.00499999994516959  0.005000000166190784  0.9994753611872617  1.0000
  Rh  Rh7       1.0  0.004999999828325849  5.000000087039146e-11  0.9996087925959941  1.0000
  Rh  Rh8       1.0  0.010000000011667324  0.0049999997507138225  0.9998781975704795  1.0000
  Rh  Rh9       1.0  1.3337836575563056e-10  0.005000000166190784  0.9996087925959941  1.0000
  Rh  Rh10      1.0  0.004999999882497148  0.010000000332381569  0.9998781854153571  1.0000
  Rh  Rh11      1.0  0.00999999989033918  0.010000000332381569  0.9997402282493971  1.0000
  Rh  Rh12      1.0  0.004999999807774483  0.0049999997507138225  0.9999924447232266  1.0000
  C   C1        1.0  0.0024999997648590113  0.007499999833809215  7.240980037927316e-05  1.0000
  O   O1        1.0  0.0024999997648590113  0.007499999833809215  0.00018894095850043963  1.0000
