data_image0
_chemical_formula_structural       HHf12
_chemical_formula_sum              "H1 Hf12"
_cell_length_a       5.09865665435791
_cell_length_b       5.565560817718506
_cell_length_c       102.13278198242188
_cell_angle_alpha    90.0
_cell_angle_beta     90.0
_cell_angle_gamma    90.0

_space_group_name_H-M_alt    "P 1"
_space_group_IT_number       1

loop_
  _space_group_symop_operation_xyz
  'x, y, z'

loop_
  _atom_site_type_symbol
  _atom_site_label
  _atom_site_symmetry_multiplicity
  _atom_site_fract_x
  _atom_site_fract_y
  _atom_site_fract_z
  _atom_site_occupancy
  H   H1        1.0  0.005000000277643781  0.004999999812582897  0.00014686749350925258  1.0000
  Hf  Hf1       1.0  0.0025000001388218907  0.0033333333199463975  0.9993707644329489  1.0000
  Hf  Hf2       1.0  0.0025000001388218907  0.008333333467202692  0.9992134554682361  1.0000
  Hf  Hf3       1.0  0.00750000023380529  0.006666666639892795  0.9993707644329489  1.0000
  Hf  Hf4       1.0  0.00750000023380529  0.0016666666599731987  0.9992134554682361  1.0000
  Hf  Hf5       1.0  0.0025000001388218907  0.0033333333199463975  0.9996853820705746  1.0000
  Hf  Hf6       1.0  0.0025000001388218907  0.008333333467202692  0.9995280733976616  1.0000
  Hf  Hf7       1.0  0.00750000023380529  0.006666666639892795  0.9996853820705746  1.0000
  Hf  Hf8       1.0  0.00750000023380529  0.0016666666599731987  0.9995280733976616  1.0000
  Hf  Hf9       1.0  0.0025000001388218907  0.0033333333199463975  0.0  1.0000
  Hf  Hf10      1.0  0.0025000001388218907  0.008333333467202692  0.9998426907434875  1.0000
  Hf  Hf11      1.0  0.00750000023380529  0.006666666639892795  0.0  1.0000
  Hf  Hf12      1.0  0.00750000023380529  0.0016666666599731987  0.9998426907434875  1.0000
