data_image0
_chemical_formula_structural       COCa36Zn12
_chemical_formula_sum              "C1 O1 Ca36 Zn12"
_cell_length_a       13.434494972229004
_cell_length_b       13.231146215127398
_cell_length_c       114.4289779663086
_cell_angle_alpha    60.808095632739
_cell_angle_beta     90.0
_cell_angle_gamma    90.0

_space_group_name_H-M_alt    "P 1"
_space_group_IT_number       1

loop_
  _space_group_symop_operation_xyz
  'x, y, z'

loop_
  _atom_site_type_symbol
  _atom_site_label
  _atom_site_symmetry_multiplicity
  _atom_site_fract_x
  _atom_site_fract_y
  _atom_site_fract_z
  _atom_site_occupancy
  C   C1        1.0  0.006443351248792422  0.0017413856828844072  0.9997620650910392  1.0000
  O   O1        1.0  0.006443351248792422  0.0017413856828844072  0.9998669338448458  1.0000
  Ca  Ca1       1.0  0.004375153154423884  0.0075098201844290636  0.9995849376339813  1.0000
  Ca  Ca2       1.0  0.004315488314778873  0.0008507420884775429  0.9992763074940878  1.0000
  Ca  Ca3       1.0  0.004315488314778873  0.004184075672299238  0.9989527517014751  1.0000
  Ca  Ca4       1.0  0.0006845117074045603  0.00751740901423303  0.9991145293714604  1.0000
  Ca  Ca5       1.0  0.0006845117074045603  0.0008507420884775429  0.9987909735242436  1.0000
  Ca  Ca6       1.0  0.0007176219374749815  0.004221566684647818  0.9994370589502294  1.0000
  Ca  Ca7       1.0  0.0014215232827733252  0.008148844161297158  0.9987517787175689  1.0000
  Ca  Ca8       1.0  0.0013929406221274672  0.0015154340001516707  0.9993921710137269  1.0000
  Ca  Ca9       1.0  0.0014215232827733252  0.004815510819363367  0.9990753344965402  1.0000
  Ca  Ca10      1.0  0.003578477016703025  0.006885973222134492  0.9989919466127725  1.0000
  Ca  Ca11      1.0  0.0035701296680243876  0.00018448909275069463  0.9996230089105778  1.0000
  Ca  Ca12      1.0  0.003578477016703025  0.0035526402027179047  0.999315502373555  1.0000
  Ca  Ca13      1.0  0.003578477016703025  0.008148844161297158  0.9992371121665254  1.0000
  Ca  Ca14      1.0  0.003578477016703025  0.0014821774774295751  0.9989135563056672  1.0000
  Ca  Ca15      1.0  0.0035431376981965544  0.0047610534669949205  0.9995543464632624  1.0000
  Ca  Ca16      1.0  0.0014413233835074088  0.00701218968478314  0.9994688295562635  1.0000
  Ca  Ca17      1.0  0.0014215232827733252  0.00021930669952551063  0.9991537247126641  1.0000
  Ca  Ca18      1.0  0.0014215232827733252  0.0035526402027179047  0.9988301689245985  1.0000
  Ca  Ca19      1.0  0.009282379839972616  0.009221572502858173  0.9994370555384519  1.0000
  Ca  Ca20      1.0  0.00931548805966939  0.00251740884007374  0.9991145293396112  1.0000
  Ca  Ca21      1.0  0.00931548805966939  0.00585074202074893  0.9987909735697342  1.0000
  Ca  Ca22      1.0  0.005684512006880911  0.00585074202074893  0.9992763070186907  1.0000
  Ca  Ca23      1.0  0.005684512006880911  0.009184075362682722  0.9989527517606072  1.0000
  Ca  Ca24      1.0  0.005624833025297135  0.002509806625805818  0.9995849378360716  1.0000
  Ca  Ca25      1.0  0.006456854859261555  0.009761031548725754  0.9995543482619187  1.0000
  Ca  Ca26      1.0  0.006421523304956759  0.0031488441483964714  0.999237112125582  1.0000
  Ca  Ca27      1.0  0.006421523304956759  0.006482177812847467  0.9989135563284222  1.0000
  Ca  Ca28      1.0  0.008578476761593542  0.005219306873684801  0.9991537247445132  1.0000
  Ca  Ca29      1.0  0.008578476761593542  0.008552640215618593  0.998830168965542  1.0000
  Ca  Ca30      1.0  0.0085586691739507  0.0020121849953829984  0.9994688308208302  1.0000
  Ca  Ca31      1.0  0.008607049023755014  0.0065154215961400145  0.999392171234044  1.0000
  Ca  Ca32      1.0  0.008578476761593542  0.00981551115478126  0.9990753345192951  1.0000
  Ca  Ca33      1.0  0.008578476761593542  0.0031488441483964714  0.9987517786766255  1.0000
  Ca  Ca34      1.0  0.006421523304956759  0.008552640215618593  0.9993155024144985  1.0000
  Ca  Ca35      1.0  0.006421523304956759  0.0018859733704924067  0.9989919465627346  1.0000
  Ca  Ca36      1.0  0.006429847083737456  0.005184484691197156  0.9996230092004779  1.0000
  Zn  Zn1       1.0  0.00256606088915886  0.009203455421455368  0.9994363302079579  1.0000
  Zn  Zn2       1.0  0.0025284893626710244  0.00251740884007374  0.9991145293396112  1.0000
  Zn  Zn3       1.0  0.0025284893626710244  0.00585074202074893  0.9987909735697342  1.0000
  Zn  Zn4       1.0  0.0024715106595124088  0.00585074202074893  0.9992763070186907  1.0000
  Zn  Zn5       1.0  0.0024715106595124088  0.009184075362682722  0.9989527517606072  1.0000
  Zn  Zn6       1.0  0.0025080803266913413  0.002460290075740043  0.9995792747904148  1.0000
  Zn  Zn7       1.0  0.007491922767897612  0.007460291217450944  0.9995792711214844  1.0000
  Zn  Zn8       1.0  0.0075284893848544575  0.0008507420884775429  0.9992763074940878  1.0000
  Zn  Zn9       1.0  0.0075284893848544575  0.004184075672299238  0.9989527517014751  1.0000
  Zn  Zn10      1.0  0.007471510681695842  0.00751740901423303  0.9991145293714604  1.0000
  Zn  Zn11      1.0  0.007471510681695842  0.0008507420884775429  0.9987909735242436  1.0000
  Zn  Zn12      1.0  0.007433933609349667  0.004203439282694493  0.9994363331599955  1.0000
