data_image0
_chemical_formula_structural       CORh2Zn26
_chemical_formula_sum              "C1 O1 Rh2 Zn26"
_cell_length_a       6.752082362920197
_cell_length_b       7.809732830920053
_cell_length_c       103.72562408447266
_cell_angle_alpha    88.36478491283832
_cell_angle_beta     86.5423091072557
_cell_angle_gamma    78.884703551534

_space_group_name_H-M_alt    "P 1"
_space_group_IT_number       1

loop_
  _space_group_symop_operation_xyz
  'x, y, z'

loop_
  _atom_site_type_symbol
  _atom_site_label
  _atom_site_symmetry_multiplicity
  _atom_site_fract_x
  _atom_site_fract_y
  _atom_site_fract_z
  _atom_site_occupancy
  C   C1        1.0  0.009182829091430996  0.006884844550077179  0.9999948365613058  1.0000
  O   O1        1.0  0.009182829091430996  0.006884844550077179  0.00011052662752249925  1.0000
  Rh  Rh1       1.0  0.0019208559401974348  0.003115474512288495  0.9994280650966767  1.0000
  Rh  Rh2       1.0  0.009329143648439252  0.006923869693078419  0.999827523605702  1.0000
  Zn  Zn1       1.0  0.0031708561194989113  0.0012404745511843092  0.9992248510193379  1.0000
  Zn  Zn2       1.0  0.0006708560372613786  0.004990474473392681  0.9996312794602493  1.0000
  Zn  Zn3       1.0  0.0027368803455404445  0.004813449898021399  0.9998833313150207  1.0000
  Zn  Zn4       1.0  0.005631376919248771  0.0010586625088052346  0.9994452277802449  1.0000
  Zn  Zn5       1.0  0.0027337766454721  0.0014027521431671536  0.9996560303193774  1.0000
  Zn  Zn6       1.0  0.005233776509049948  0.007652752459195646  0.9992496016058597  1.0000
  Zn  Zn7       1.0  0.005806195086364732  0.009136696819324337  0.9998326187309895  1.0000
  Zn  Zn8       1.0  0.00821033522160673  0.005172286637321176  0.9994109026876509  1.0000
  Zn  Zn9       1.0  0.001107935292227266  0.004828197246058096  0.9992001004476052  1.0000
  Zn  Zn10      1.0  0.008607935527754863  0.008578197654464149  0.9996065288747317  1.0000
  Zn  Zn11      1.0  0.006557753381502223  0.005763350836605405  0.99970881650736  1.0000
  Zn  Zn12      1.0  0.009069307860097952  0.0019993513383925274  0.9993041392184174  1.0000
  Zn  Zn13      1.0  0.0020415479039483757  0.006507311078984206  0.9994040050287195  1.0000
  Zn  Zn14      1.0  0.009268410966942588  0.00027636196324515126  0.9998510932966705  1.0000
  Zn  Zn15      1.0  0.0023299520768912604  0.008056329109030072  0.9999504399320253  1.0000
  Zn  Zn16      1.0  0.004772403647148498  0.004231598172382143  0.9995519909638636  1.0000
  Zn  Zn17      1.0  0.001800163953274016  0.009723638548477909  0.9994521254651143  1.0000
  Zn  Zn18      1.0  0.009307133576916747  0.0035873337367296042  0.9998666779810197  1.0000
  Zn  Zn19      1.0  0.002454778934347505  0.007860463887352245  0.9996905534607169  1.0000
  Zn  Zn20      1.0  0.005046586145090439  0.004025429449464909  0.9992839765905275  1.0000
  Zn  Zn21      1.0  0.006098533445417186  0.006111071638342113  0.9999629272065735  1.0000
  Zn  Zn22      1.0  0.0087951265215365  0.002205519818210921  0.9995721535877241  1.0000
  Zn  Zn23      1.0  0.005336710350018507  0.007680055862324252  0.9995027651895353  1.0000
  Zn  Zn24      1.0  0.002673481802345813  0.0013655692031763007  0.9999143471463949  1.0000
  Zn  Zn25      1.0  0.008505001794623922  0.008550893765137863  0.9993533652916774  1.0000
  Zn  Zn26      1.0  0.005882769126077275  0.002551597028689615  0.9997920815970571  1.0000
