data_image0
_chemical_formula_structural       COAl3Cu3Al3Cu3Al3Cu3Al3Cu3Al3Cu3Al3Cu3Al3Cu3Al3Cu3
_chemical_formula_sum              "C1 O1 Al24 Cu24"
_cell_length_a       8.542279243469238
_cell_length_b       8.542278944892027
_cell_length_c       101.38633728027344
_cell_angle_alpha    90.0
_cell_angle_beta     90.0
_cell_angle_gamma    59.999998843768196

_space_group_name_H-M_alt    "P 1"
_space_group_IT_number       1

loop_
  _space_group_symop_operation_xyz
  'x, y, z'

loop_
  _atom_site_type_symbol
  _atom_site_label
  _atom_site_symmetry_multiplicity
  _atom_site_fract_x
  _atom_site_fract_y
  _atom_site_fract_z
  _atom_site_occupancy
  C   C1        1.0  0.004166666644355149  0.0016666648622245498  0.00013055470219152662  1.0000
  O   O1        1.0  0.004166666644355149  0.0016666648622245498  0.0002489134972319024  1.0000
  Al  Al1       1.0  0.003333333817491683  0.0033333340047536557  0.9991417376523921  1.0000
  Al  Al2       1.0  7.999999429381164e-10  6.000000008144824e-10  0.9994857060323232  1.0000
  Al  Al3       1.0  0.0016666673740592833  0.0016666673800507592  0.9993137219893317  1.0000
  Cu  Cu1       1.0  0.003333333817491683  0.0033333340047536557  0.9993997141578015  1.0000
  Cu  Cu2       1.0  7.999999429381164e-10  6.000000008144824e-10  0.9992277298208619  1.0000
  Cu  Cu3       1.0  0.0016666673740592833  0.0016666673800507592  0.9990557454839223  1.0000
  Al  Al4       1.0  0.003333333817491683  0.0033333340047536557  0.9996576903692628  1.0000
  Al  Al5       1.0  4.8999998494959236e-09  2.1000001229099977e-09  0.0  1.0000
  Al  Al6       1.0  0.0016666648339612538  0.0016666646104419288  0.9998488248377783  1.0000
  Cu  Cu4       1.0  0.0033333291149695555  0.003333327710188132  0.9999194352894631  1.0000
  Cu  Cu5       1.0  0.009999998534703087  0.01  0.9997376795293971  1.0000
  Cu  Cu6       1.0  0.0016666673740592833  0.0016666673800507592  0.999571698200793  1.0000
  Al  Al7       1.0  0.0033333340093758025  0.008333334004753655  0.9991417376523921  1.0000
  Al  Al8       1.0  8.123020420196661e-10  0.005000000503565242  0.9994857060323232  1.0000
  Al  Al9       1.0  0.0016666670668974758  0.00666666750594207  0.9993137219893317  1.0000
  Cu  Cu7       1.0  0.0033333340093758025  0.008333334004753655  0.9993997141578015  1.0000
  Cu  Cu8       1.0  8.123020420196661e-10  0.005000000503565242  0.9992277298208619  1.0000
  Cu  Cu9       1.0  0.0016666670668974758  0.00666666750594207  0.9990557454839223  1.0000
  Al  Al10      1.0  0.0033333340093758025  0.008333334004753655  0.9996576903692628  1.0000
  Al  Al11      1.0  4.8540571671606195e-09  0.005000002014260967  0.0  1.0000
  Al  Al12      1.0  0.0016666644009081357  0.00666666498811586  0.9998488248377783  1.0000
  Cu  Cu10      1.0  0.0033333291809623643  0.008333327961970753  0.9999194352894631  1.0000
  Cu  Cu11      1.0  0.00999999903070186  0.004999999496434758  0.9997376795293971  1.0000
  Cu  Cu12      1.0  0.0016666670668974758  0.00666666750594207  0.999571698200793  1.0000
  Al  Al13      1.0  0.008333333765159651  0.0033333340047536557  0.9991417376523921  1.0000
  Al  Al14      1.0  0.00500000051986851  6.000000008144824e-10  0.9994857060323232  1.0000
  Al  Al15      1.0  0.00666666732172725  0.0016666673800507592  0.9993137219893317  1.0000
  Cu  Cu13      1.0  0.008333333765159651  0.0033333340047536557  0.9993997141578015  1.0000
  Cu  Cu14      1.0  0.00500000051986851  6.000000008144824e-10  0.9992277298208619  1.0000
  Cu  Cu15      1.0  0.00666666732172725  0.0016666673800507592  0.9990557454839223  1.0000
  Al  Al16      1.0  0.008333333765159651  0.0033333340047536557  0.9996576903692628  1.0000
  Al  Al17      1.0  0.005000004566971437  2.1000001229099977e-09  0.0  1.0000
  Al  Al18      1.0  0.006666664345528949  0.0016666646104419288  0.9998488248377783  1.0000
  Cu  Cu16      1.0  0.008333329062637522  0.003333327710188132  0.9999194352894631  1.0000
  Cu  Cu17      1.0  0.004999999023135391  0.01  0.9997376795293971  1.0000
  Cu  Cu18      1.0  0.00666666732172725  0.0016666673800507592  0.999571698200793  1.0000
  Al  Al19      1.0  0.008333333520943497  0.008333334004753655  0.9991417376523921  1.0000
  Al  Al20      1.0  0.00500000075997001  0.005000000503565242  0.9994857060323232  1.0000
  Al  Al21      1.0  0.006666667014565443  0.00666666750594207  0.9993137219893317  1.0000
  Cu  Cu19      1.0  0.008333333520943497  0.008333334004753655  0.9993997141578015  1.0000
  Cu  Cu20      1.0  0.00500000075997001  0.005000000503565242  0.9992277298208619  1.0000
  Cu  Cu21      1.0  0.006666667014565443  0.00666666750594207  0.9990557454839223  1.0000
  Al  Al22      1.0  0.008333333520943497  0.008333334004753655  0.9996576903692628  1.0000
  Al  Al23      1.0  0.0050000043656248635  0.005000002014260967  0.0  1.0000
  Al  Al24      1.0  0.006666663912475832  0.00666666498811586  0.9998488248377783  1.0000
  Cu  Cu22      1.0  0.008333328692530059  0.008333327961970753  0.9999194352894631  1.0000
  Cu  Cu23      1.0  0.0049999986469336215  0.004999999496434758  0.9997376795293971  1.0000
  Cu  Cu24      1.0  0.006666667014565443  0.00666666750594207  0.999571698200793  1.0000
