data_image0
_chemical_formula_structural       HSb18
_chemical_formula_sum              "H1 Sb18"
_cell_length_a       8.841442108154297
_cell_length_b       7.269455272729714
_cell_length_c       108.35216522216797
_cell_angle_alpha    93.2801071928638
_cell_angle_beta     90.0
_cell_angle_gamma    107.70170257721199

_space_group_name_H-M_alt    "P 1"
_space_group_IT_number       1

loop_
  _space_group_symop_operation_xyz
  'x, y, z'

loop_
  _atom_site_type_symbol
  _atom_site_label
  _atom_site_symmetry_multiplicity
  _atom_site_fract_x
  _atom_site_fract_y
  _atom_site_fract_z
  _atom_site_occupancy
  H   H1        1.0  0.004119720466922467  0.004782988947523552  8.027908768239255e-05  1.0000
  Sb  Sb1       1.0  0.001388888935111349  0.000555555622469022  0.9994590546972012  1.0000
  Sb  Sb2       1.0  0.004722222246684151  0.0038888890541516783  0.9997540200133747  1.0000
  Sb  Sb3       1.0  0.003086363766125416  0.007284754837911521  2.79645198143305e-05  1.0000
  Sb  Sb4       1.0  0.004166666657896405  0.0016666666990006907  0.9992624112531395  1.0000
  Sb  Sb5       1.0  0.0025000001211071612  0.005000000366452272  0.9995573762951675  1.0000
  Sb  Sb6       1.0  0.0007871260967224823  0.00812104634643463  0.999847057666715  1.0000
  Sb  Sb7       1.0  0.0036111112986826556  0.009444445076754248  0.9996556984431056  1.0000
  Sb  Sb8       1.0  0.002079965541969755  0.0033063735582215576  0.9999354406203494  1.0000
  Sb  Sb9       1.0  0.00027777775546902284  0.006111111139852465  0.9993607331249927  1.0000
  Sb  Sb10      1.0  0.0063888891584237715  0.000555555622469022  0.9994590546972012  1.0000
  Sb  Sb11      1.0  0.009722222364660527  0.0038888890541516783  0.9997540200133747  1.0000
  Sb  Sb12      1.0  0.008086363673429693  0.007284754837911521  2.79645198143305e-05  1.0000
  Sb  Sb13      1.0  0.00916666677587278  0.0016666666990006907  0.9992624112531395  1.0000
  Sb  Sb14      1.0  0.007500000344419585  0.005000000366452272  0.9995573762951675  1.0000
  Sb  Sb15      1.0  0.005787126109362809  0.00812104634643463  0.999847057666715  1.0000
  Sb  Sb16      1.0  0.008611111521995079  0.009444445076754248  0.9996556984431056  1.0000
  Sb  Sb17      1.0  0.007079965659946129  0.0033063735582215576  0.9999354406203494  1.0000
  Sb  Sb18      1.0  0.005277777768109349  0.006111111139852465  0.9993607331249927  1.0000
