data_image0
_chemical_formula_structural       Re3V6W3Re3V6W3Re3V6W3Re3V6W3H
_chemical_formula_sum              "Re12 V24 W12 H1"
_cell_length_a       8.654194831848145
_cell_length_b       8.654194687562669
_cell_length_c       101.79753875732422
_cell_angle_alpha    90.0
_cell_angle_beta     90.0
_cell_angle_gamma    120.00000055151581

_space_group_name_H-M_alt    "P 1"
_space_group_IT_number       1

loop_
  _space_group_symop_operation_xyz
  'x, y, z'

loop_
  _atom_site_type_symbol
  _atom_site_label
  _atom_site_symmetry_multiplicity
  _atom_site_fract_x
  _atom_site_fract_y
  _atom_site_fract_z
  _atom_site_occupancy
  Re  Re1       1.0  1.9499999673783544e-08  1.5999999218930604e-09  0.9995060060731599  1.0000
  Re  Re2       1.0  0.0033333527280104067  0.001666668298657845  0.9991589385131817  1.0000
  Re  Re3       1.0  0.0016666937317612953  0.003333333863523361  0.9998641537487202  1.0000
  V   V1        1.0  0.00999998038693487  1.3600000224891308e-08  0.9997654471244319  1.0000
  V   V2        1.0  0.0033333527280104067  0.001666668298657845  0.9994192391099751  1.0000
  V   V3        1.0  0.0016666861788141483  0.0033333348576296625  0.999072171549997  1.0000
  V   V4        1.0  0.003333374403180163  0.001666632013777836  0.999925730699882  1.0000
  V   V5        1.0  0.0016666861788141483  0.0033333348576296625  0.9995927727435838  1.0000
  V   V6        1.0  1.9499999673783544e-08  1.5999999218930604e-09  0.9992457054763664  1.0000
  W   W1        1.0  0.0016666861788141483  0.0033333348576296625  0.9993324721467904  1.0000
  W   W2        1.0  2.542447759086384e-08  0.009999998608251176  0.0  1.0000
  W   W3        1.0  0.0033333527280104067  0.001666668298657845  0.9996795394140079  1.0000
  Re  Re4       1.0  1.951756381903059e-08  0.005000001292338191  0.9995060060731599  1.0000
  Re  Re5       1.0  0.0033333527620484026  0.006666668224099872  0.9991589385131817  1.0000
  Re  Re6       1.0  0.0016666936672677258  0.0083333336647021  0.9998641537487202  1.0000
  V   V7        1.0  0.009999980377394536  0.005000013718666962  0.9997654471244319  1.0000
  V   V8        1.0  0.0033333527620484026  0.006666668224099872  0.9994192391099751  1.0000
  V   V9        1.0  0.0016666862007989245  0.008333334658808401  0.999072171549997  1.0000
  V   V10       1.0  0.003333374569605695  0.0066666319392198635  0.999925730699882  1.0000
  V   V11       1.0  0.0016666862007989245  0.008333334658808401  0.9995927727435838  1.0000
  V   V12       1.0  1.951756381903059e-08  0.005000001292338191  0.9992457054763664  1.0000
  W   W4        1.0  0.0016666862007989245  0.008333334658808401  0.9993324721467904  1.0000
  W   W5        1.0  2.534423534983498e-08  0.004999998310019287  0.0  1.0000
  W   W6        1.0  0.0033333527620484026  0.006666668224099872  0.9996795394140079  1.0000
  Re  Re7       1.0  0.005000019447555149  1.5999999218930604e-09  0.9995060060731599  1.0000
  Re  Re8       1.0  0.008333352435297167  0.001666668298657845  0.9991589385131817  1.0000
  Re  Re9       1.0  0.006666693327608497  0.003333333863523361  0.9998641537487202  1.0000
  V   V13       1.0  0.004999980249187463  1.3600000224891308e-08  0.9997654471244319  1.0000
  V   V14       1.0  0.008333352435297167  0.001666668298657845  0.9994192391099751  1.0000
  V   V15       1.0  0.006666686076370019  0.0033333348576296625  0.999072171549997  1.0000
  V   V16       1.0  0.008333373895236602  0.001666632013777836  0.999925730699882  1.0000
  V   V17       1.0  0.006666686076370019  0.0033333348576296625  0.9995927727435838  1.0000
  V   V18       1.0  0.005000019447555149  1.5999999218930604e-09  0.9992457054763664  1.0000
  W   W7        1.0  0.006666686076370019  0.0033333348576296625  0.9993324721467904  1.0000
  W   W8        1.0  0.005000025404124178  0.009999998608251176  0.0  1.0000
  W   W9        1.0  0.008333352435297167  0.001666668298657845  0.9996795394140079  1.0000
  Re  Re10      1.0  0.00500001922485058  0.005000001292338191  0.9995060060731599  1.0000
  Re  Re11      1.0  0.008333352759605124  0.006666668224099872  0.9991589385131817  1.0000
  Re  Re12      1.0  0.00666669358978481  0.0083333336647021  0.9998641537487202  1.0000
  V   V19       1.0  0.004999980454877452  0.005000013718666962  0.9997654471244319  1.0000
  V   V20       1.0  0.008333352759605124  0.006666668224099872  0.9994192391099751  1.0000
  V   V21       1.0  0.006666685908085685  0.008333334658808401  0.999072171549997  1.0000
  V   V22       1.0  0.008333374219544557  0.0066666319392198635  0.999925730699882  1.0000
  V   V23       1.0  0.006666685908085685  0.008333334658808401  0.9995927727435838  1.0000
  V   V24       1.0  0.00500001922485058  0.005000001292338191  0.9992457054763664  1.0000
  W   W10       1.0  0.006666685908085685  0.008333334658808401  0.9993324721467904  1.0000
  W   W11       1.0  0.005000025051522111  0.004999998310019287  0.0  1.0000
  W   W12       1.0  0.008333352759605124  0.006666668224099872  0.9996795394140079  1.0000
  H   H1        1.0  3.417252526502611e-08  0.002499982752255667  4.229338699120807e-05  1.0000
