data_image0
_chemical_formula_structural       COTi2Ga2Pt2Ti2Ga2Pt2Ti2Ga2Pt2Ti2Ga2Pt2
_chemical_formula_sum              "C1 O1 Ti8 Ga8 Pt8"
_cell_length_a       5.545598030090332
_cell_length_b       8.879877943034554
_cell_length_c       105.5195083618164
_cell_angle_alpha    59.99999962340044
_cell_angle_beta     90.0
_cell_angle_gamma    90.0

_space_group_name_H-M_alt    "P 1"
_space_group_IT_number       1

loop_
  _space_group_symop_operation_xyz
  'x, y, z'

loop_
  _atom_site_type_symbol
  _atom_site_label
  _atom_site_symmetry_multiplicity
  _atom_site_fract_x
  _atom_site_fract_y
  _atom_site_fract_z
  _atom_site_occupancy
  C   C1        1.0  0.008746863274359796  0.0031004034532778075  0.9998013134514281  1.0000
  O   O1        1.0  0.008746863274359796  0.0031004034532778075  0.9999150367288105  1.0000
  Ti  Ti1       1.0  0.0012484149608302676  0.000793119004153336  0.9993476083699478  1.0000
  Ti  Ti2       1.0  0.006252172056753066  0.0007924405127194712  0.999347715435517  1.0000
  Ga  Ga1       1.0  0.003745001286870069  0.004173965462323465  0.9996205360842785  1.0000
  Ga  Ga2       1.0  0.008751585049246077  0.0024245932867661348  0.9994941995260647  1.0000
  Pt  Pt1       1.0  0.008746863274359796  0.00422654494557067  0.9996117751796774  1.0000
  Pt  Pt2       1.0  0.00375315943100244  0.0024376835391688913  0.9994917643269113  1.0000
  Ti  Ti3       1.0  0.0012499355651377022  0.0007734549841883606  0.9989302198555264  1.0000
  Ti  Ti4       1.0  0.006249935108343432  0.0007734549841883606  0.9989302198555264  1.0000
  Ga  Ga3       1.0  0.0037499353367405675  0.00410678845235206  0.9992107330384146  1.0000
  Ga  Ga4       1.0  0.008749935215824437  0.002440121627441371  0.9990704760271409  1.0000
  Pt  Pt3       1.0  0.008749935215824437  0.00410678845235206  0.9992107330384146  1.0000
  Pt  Pt4       1.0  0.0037499353367405675  0.002440121627441371  0.9990704760271409  1.0000
  Ti  Ti5       1.0  0.0012484149608302676  0.005793119115570047  0.9993476083200703  1.0000
  Ti  Ti6       1.0  0.006252172056753066  0.005792440442478502  0.9993477159581515  1.0000
  Ga  Ga5       1.0  0.003745001286870069  0.009173965694845295  0.9996205360293051  1.0000
  Ga  Ga6       1.0  0.008751585049246077  0.007424593034867486  0.9994941994914743  1.0000
  Pt  Pt5       1.0  0.008746863274359796  0.00922654469367202  0.999611775145087  1.0000
  Pt  Pt6       1.0  0.00375315943100244  0.007437683529480482  0.9994917642821296  1.0000
  Ti  Ti7       1.0  0.0012499355651377022  0.0057734550350525115  0.9989302195257626  1.0000
  Ti  Ti8       1.0  0.006249935108343432  0.0057734550350525115  0.9989302195257626  1.0000
  Ga  Ga7       1.0  0.0037499353367405675  0.009106788200453412  0.9992107330038242  1.0000
  Ga  Ga8       1.0  0.008749935215824437  0.007440121617752962  0.9990704765472276  1.0000
  Pt  Pt7       1.0  0.008749935215824437  0.009106788200453412  0.9992107330038242  1.0000
  Pt  Pt8       1.0  0.0037499353367405675  0.007440121617752962  0.9990704765472276  1.0000
