data_image0
_chemical_formula_structural       Re2Ir6Re2Ir6H
_chemical_formula_sum              "Re4 Ir12 H1"
_cell_length_a       5.550826549530029
_cell_length_b       5.5508267536939675
_cell_length_c       100.85204315185547
_cell_angle_alpha    90.0
_cell_angle_beta     90.0
_cell_angle_gamma    119.9999987833004

_space_group_name_H-M_alt    "P 1"
_space_group_IT_number       1

loop_
  _space_group_symop_operation_xyz
  'x, y, z'

loop_
  _atom_site_type_symbol
  _atom_site_label
  _atom_site_symmetry_multiplicity
  _atom_site_fract_x
  _atom_site_fract_y
  _atom_site_fract_z
  _atom_site_occupancy
  Re  Re1       1.0  0.0033410100041553867  0.0066589887947920414  0.9995671747321577  1.0000
  Re  Re2       1.0  0.0066743438058224245  0.003325655699109017  0.999348664748728  1.0000
  Ir  Ir1       1.0  0.0016819376431201085  0.0033408438787248403  0.999348664748728  1.0000
  Ir  Ir2       1.0  0.006659155025870013  0.008318061252825642  0.999348664748728  1.0000
  Ir  Ir3       1.0  0.001681937508635345  0.008318061252825642  0.999348664748728  1.0000
  Ir  Ir4       1.0  0.008333415928294261  0.006643800615176218  0.9995671747321577  1.0000
  Ir  Ir5       1.0  0.0033561986504074084  0.0016665832410754167  0.9995671747321577  1.0000
  Ir  Ir6       1.0  0.008333415832080313  0.0016665832410754167  0.9995671747321577  1.0000
  Re  Re3       1.0  0.003341010978341845  0.006658990344685364  0.9999980679857573  1.0000
  Re  Re4       1.0  0.006674341353066942  0.0033256541492156944  0.9997887946143164  1.0000
  Ir  Ir7       1.0  0.001666584043840112  0.003310134679902144  0.9997844187704948  1.0000
  Ir  Ir8       1.0  0.006689863484431286  0.008333415271026995  0.9997844193615056  1.0000
  Ir  Ir9       1.0  0.0016665840110029668  0.008333416820920316  0.9997844193615056  1.0000
  Ir  Ir10      1.0  0.008286042691758401  0.006549059511092723  0.0  1.0000
  Ir  Ir11      1.0  0.0034509424995058944  0.0017139565054304791  0.0  1.0000
  Ir  Ir12      1.0  0.008286045039690623  0.0017139534056438337  0.0  1.0000
  H   H1        1.0  0.005025998612221984  0.004974002120402855  0.0001480889803515109  1.0000
