data_image0
_chemical_formula_structural       HRh6Sn2Rh6Sn2
_chemical_formula_sum              "H1 Rh12 Sn4"
_cell_length_a       8.098448753356934
_cell_length_b       4.790399838451977
_cell_length_c       41.25524139404297
_cell_angle_alpha    85.91438891772712
_cell_angle_beta     90.0
_cell_angle_gamma    115.00134261146437

_space_group_name_H-M_alt    "P 1"
_space_group_IT_number       1

loop_
  _space_group_symop_operation_xyz
  'x, y, z'

loop_
  _atom_site_type_symbol
  _atom_site_label
  _atom_site_symmetry_multiplicity
  _atom_site_fract_x
  _atom_site_fract_y
  _atom_site_fract_z
  _atom_site_occupancy
  H   H1        1.0  0.0041640334582898515  0.006657857841351271  0.00011100554521613598  1.0000
  Rh  Rh1       1.0  0.0032845367112280086  0.0031386417318264004  0.9996287923970273  1.0000
  Rh  Rh2       1.0  0.0002008306469470506  0.0008062752378687876  0.999993329748092  1.0000
  Rh  Rh3       1.0  0.0017315859536598747  0.006924785764607038  0.9998245513836616  1.0000
  Rh  Rh4       1.0  0.0044781042303413555  0.007916360891864626  0.9987494681034416  1.0000
  Rh  Rh5       1.0  0.0013531041276322578  0.005416360960722485  0.9991849395276173  1.0000
  Rh  Rh6       1.0  0.0029156042733775173  0.0016663610640092748  0.9989672040816739  1.0000
  Sn  Sn1       1.0  0.00479916956188153  0.0091937249708566  0.9993909445515007  1.0000
  Sn  Sn2       1.0  0.0010406041362394903  0.004166360995151415  0.9985317326574982  1.0000
  Rh  Rh7       1.0  0.008284536748028048  0.0031386417318264004  0.9996287923970273  1.0000
  Rh  Rh8       1.0  0.005200831005500353  0.0008062752378687876  0.999993329748092  1.0000
  Rh  Rh9       1.0  0.006731586098356754  0.006924785764607038  0.9998245513836616  1.0000
  Rh  Rh10      1.0  0.009478104497141633  0.007916360891864626  0.9987494681034416  1.0000
  Rh  Rh11      1.0  0.006353104495956078  0.005416360960722485  0.9991849395276173  1.0000
  Rh  Rh12      1.0  0.007915604540177795  0.0016663610640092748  0.9989672040816739  1.0000
  Sn  Sn3       1.0  0.009799169598681568  0.0091937249708566  0.9993909445515007  1.0000
  Sn  Sn4       1.0  0.006040604504563311  0.004166360995151415  0.9985317326574982  1.0000
