data_image0
_chemical_formula_structural       CONa10
_chemical_formula_sum              "C1 O1 Na10"
_cell_length_a       6.64182984585931
_cell_length_b       7.278446555121908
_cell_length_c       106.30648803710938
_cell_angle_alpha    75.79258734121449
_cell_angle_beta     68.53851671462043
_cell_angle_gamma    90.00000003492887

_space_group_name_H-M_alt    "P 1"
_space_group_IT_number       1

loop_
  _space_group_symop_operation_xyz
  'x, y, z'

loop_
  _atom_site_type_symbol
  _atom_site_label
  _atom_site_symmetry_multiplicity
  _atom_site_fract_x
  _atom_site_fract_y
  _atom_site_fract_z
  _atom_site_occupancy
  C   C1        1.0  0.007935137314665847  0.0023460565554013066  0.9997967146261846  1.0000
  O   O1        1.0  0.007935137314665847  0.0023460565554013066  0.9999095954572197  1.0000
  Na  Na1       1.0  0.003921397301278539  0.008591818584849148  0.9997659833518774  1.0000
  Na  Na2       1.0  0.005850088612409845  0.0025034079926458505  0.9994415922338933  1.0000
  Na  Na3       1.0  0.009816578111515902  0.0004965921718428027  0.999615220641046  1.0000
  Na  Na4       1.0  0.007850088515984044  0.006503408035094535  0.9991000659506382  1.0000
  Na  Na5       1.0  0.0018500883110755385  0.004503408013870193  0.999270829221403  1.0000
  Na  Na6       1.0  0.004183421885469172  0.007503407780402428  0.9994415925378706  1.0000
  Na  Na7       1.0  0.006183421996965401  0.0015034078493815397  0.9991000657335848  1.0000
  Na  Na8       1.0  0.00018342179508688402  0.009503408332235327  0.999270828950955  1.0000
  Na  Na9       1.0  0.008179369974566504  0.005496722621956769  0.9996152215371079  1.0000
  Na  Na10      1.0  0.002309330219676412  0.0035915129012589263  0.9997659977880371  1.0000
