data_image0
_chemical_formula_structural       COAs40Rh20
_chemical_formula_sum              "C1 O1 As40 Rh20"
_cell_length_a       6.747971656102893
_cell_length_b       13.827174275730824
_cell_length_c       106.41952514648438
_cell_angle_alpha    82.27176931555687
_cell_angle_beta     89.20092767921759
_cell_angle_gamma    76.23801047993193

_space_group_name_H-M_alt    "P 1"
_space_group_IT_number       1

loop_
  _space_group_symop_operation_xyz
  'x, y, z'

loop_
  _atom_site_type_symbol
  _atom_site_label
  _atom_site_symmetry_multiplicity
  _atom_site_fract_x
  _atom_site_fract_y
  _atom_site_fract_z
  _atom_site_occupancy
  C   C1        1.0  0.0032309027475853074  0.004050717898583366  0.9999498989233834  1.0000
  O   O1        1.0  0.0032309027475853074  0.004050717898583366  6.26604143050046e-05  1.0000
  As  As1       1.0  0.0035892473514771207  0.004233047993164788  0.999366168648932  1.0000
  As  As2       1.0  0.001542392497181625  0.008224302918468845  0.9995994349868177  1.0000
  As  As3       1.0  0.0003245038863598261  0.002274225565541213  0.999822855384269  1.0000
  As  As4       1.0  0.00758924752884209  0.006233048376928388  0.9989098672929042  1.0000
  As  As5       1.0  0.005589247724398339  0.00023304809188976803  0.999138018061909  1.0000
  As  As6       1.0  0.0038961311010730013  0.008089467329494214  0.9990567009992637  1.0000
  As  As7       1.0  0.0018961310123905165  0.0020894674856285237  0.999284851480766  1.0000
  As  As8       1.0  0.009896130798642988  0.006089467504176068  0.999513001751948  1.0000
  As  As9       1.0  0.007757391225793137  0.00987515912350394  0.9997520777705734  1.0000
  As  As10      1.0  0.005896131189755486  0.004089467597504538  0.9988285501294886  1.0000
  As  As11      1.0  0.00041075250611927335  6.022449943329731e-05  0.9988839197458639  1.0000
  As  As12      1.0  0.00841075261214032  0.0040602244124997005  0.9991120702986519  1.0000
  As  As13      1.0  0.006410752239219102  0.008060224721606099  0.9993402208785491  1.0000
  As  As14      1.0  0.004410752434775351  0.002060224572511272  0.9995683719252243  1.0000
  As  As15      1.0  0.00241088878068514  0.006068388310462424  0.999779889543193  1.0000
  As  As16      1.0  0.00010386899634982436  0.006203805186630579  0.9991933877757712  1.0000
  As  As17      1.0  0.008103869146783174  0.00020380517877251637  0.9994215385063675  1.0000
  As  As18      1.0  0.006089990533440336  0.004183990600161096  0.999652355147886  1.0000
  As  As19      1.0  0.004103868969418204  0.008203805594358418  0.9987370864195053  1.0000
  As  As20      1.0  0.0021038690228550863  0.0022038051900467814  0.9989652371907198  1.0000
  As  As21      1.0  0.009190108502065327  0.00797739975461486  0.9990834641672096  1.0000
  As  As22      1.0  0.007190108129144109  0.0019773996722031355  0.9993116146531311  1.0000
  As  As23      1.0  0.005190108324700358  0.005977399914626432  0.9995397652336908  1.0000
  As  As24      1.0  0.0037569834500837487  0.009743142237764487  0.9997738991560646  1.0000
  As  As25      1.0  0.0011901082894547556  0.003977399786079643  0.9988553136154851  1.0000
  As  As26      1.0  0.0022910795961958103  0.006353497140257654  0.9988835819725174  1.0000
  As  As27      1.0  0.00029107959633792996  0.0003534971160429879  0.9991117327371378  1.0000
  As  As28      1.0  0.008291079578004531  0.004353497281597957  0.9993398830055785  1.0000
  As  As29      1.0  0.00629107977356078  0.008353496980246082  0.9995680341557305  1.0000
  As  As30      1.0  0.0038973448004667732  0.0023682008560734036  0.9997997434343974  1.0000
  As  As31      1.0  0.004809891834473332  0.0063158727334613534  0.9991666242944528  1.0000
  As  As32      1.0  0.002809891745790847  0.0003158728895956626  0.9993947747759551  1.0000
  As  As33      1.0  0.0008174548234594587  0.00430982013257224  0.9996228272767733  1.0000
  As  As34      1.0  0.006919170631031454  0.00820889492792021  0.9998504524837633  1.0000
  As  As35      1.0  0.006809891638917083  0.002315873034813228  0.9989384737043921  1.0000
  As  As36      1.0  0.0017089204390497922  0.007939775383160604  0.9993665065223994  1.0000
  As  As37      1.0  0.009773503387106995  0.0019207528590009949  0.9996000125383268  1.0000
  As  As38      1.0  0.007705531300314803  0.00587672756056549  0.9998162811867579  1.0000
  As  As39      1.0  0.005708920190056661  0.009939775273161358  0.9989102051753759  1.0000
  As  As40      1.0  0.00370892038561291  0.0039397756678417025  0.9991383559325043  1.0000
  Rh  Rh1       1.0  0.0028239885657988383  0.006114035844328535  0.99936116743884  1.0000
  Rh  Rh2       1.0  0.0008362685141969107  7.559350590372656e-05  0.9995894937036259  1.0000
  Rh  Rh3       1.0  0.008796022867056167  0.0041195790426722416  0.9998027216809178  1.0000
  Rh  Rh4       1.0  0.006823988743163808  0.008114035684316965  0.9989048660923132  1.0000
  Rh  Rh5       1.0  0.004823988370242589  0.0021140358737928243  0.9991330168535298  1.0000
  Rh  Rh6       1.0  0.005174136950242267  0.005182985872157016  0.9990032103769784  1.0000
  Rh  Rh7       1.0  0.0031741371457985165  0.009182986114580315  0.999231360957538  1.0000
  Rh  Rh8       1.0  0.001174137128175715  0.00318298599049165  0.9994595114438736  1.0000
  Rh  Rh9       1.0  0.009115316195535583  0.0071605629470296115  0.9996863137826048  1.0000
  Rh  Rh10      1.0  0.007174137323163486  0.0011829858349382042  0.9987750597923306  1.0000
  Rh  Rh11      1.0  0.0011760114694467645  0.008179237222864894  0.9988889210465758  1.0000
  Rh  Rh12      1.0  0.009176011397818602  0.002179236833223539  0.9991170720640847  1.0000
  Rh  Rh13      1.0  0.007176011593374852  0.00617923680375925  0.9993452226493948  1.0000
  Rh  Rh14      1.0  0.005153671761401147  0.00018758169234940307  0.999567124166199  1.0000
  Rh  Rh15      1.0  0.0031813508406262772  0.004226492765468911  0.9997856212677197  1.0000
  Rh  Rh16      1.0  0.008825862817818924  0.009110286682602298  0.9992468780840217  1.0000
  Rh  Rh17      1.0  0.006825863013375174  0.003110286805395058  0.999475028565855  1.0000
  Rh  Rh18      1.0  0.004871431794273516  0.007113292280475971  0.9997014996029051  1.0000
  Rh  Rh19      1.0  0.002825862836010204  0.0011102866935190432  0.9987905769474837  1.0000
  Rh  Rh20      1.0  0.0008258628894470862  0.0051102869526131155  0.9990187272478321  1.0000
