data_image0
_chemical_formula_structural       COSi4Pt4Si4Pt4Si4Pt4Si4Pt4
_chemical_formula_sum              "C1 O1 Si16 Pt16"
_cell_length_a       7.2986674308776855
_cell_length_b       5.684826850891113
_cell_length_c       106.00980377197266
_cell_angle_alpha    90.0
_cell_angle_beta     90.0
_cell_angle_gamma    90.0

_space_group_name_H-M_alt    "P 1"
_space_group_IT_number       1

loop_
  _space_group_symop_operation_xyz
  'x, y, z'

loop_
  _atom_site_type_symbol
  _atom_site_label
  _atom_site_symmetry_multiplicity
  _atom_site_fract_x
  _atom_site_fract_y
  _atom_site_fract_z
  _atom_site_occupancy
  C   C1        1.0  0.0037500001531220735  0.009967718488449788  1.67394846619091e-05  1.0000
  O   O1        1.0  0.0037500001531220735  0.009967718488449788  0.00012993622955790235  1.0000
  Si  Si1       1.0  0.001250000051040691  0.006764578324713097  0.9994425338911704  1.0000
  Si  Si2       1.0  0.0037500001531220735  0.0031949567262341233  0.9993481985849574  1.0000
  Si  Si3       1.0  0.001250000051040691  0.001764578449220874  0.9990651288502659  1.0000
  Si  Si4       1.0  0.0037500001531220735  0.008194957093204416  0.9991594638753509  1.0000
  Pt  Pt1       1.0  0.001250000051040691  0.004927253421442271  0.9992218967779728  1.0000
  Pt  Pt2       1.0  0.0037500001531220735  0.005032281957156995  0.999002696228772  1.0000
  Pt  Pt3       1.0  0.001250000051040691  0.009927253460760517  0.9992857656823355  1.0000
  Pt  Pt4       1.0  0.0037500001531220735  3.2281800088794755e-05  0.9989388270432814  1.0000
  Si  Si5       1.0  0.001250000051040691  0.006230850179576388  0.0  1.0000
  Si  Si6       1.0  0.0037500001531220735  0.003369738778383999  0.9999240780144638  1.0000
  Si  Si7       1.0  0.001250000051040691  0.001764578449220874  0.9996312686007768  1.0000
  Si  Si8       1.0  0.0037500001531220735  0.008194957093204416  0.9997256033447339  1.0000
  Pt  Pt5       1.0  0.0012499999234389634  0.005027129956384637  0.9997748721483907  1.0000
  Pt  Pt6       1.0  0.0037500001531220735  0.005032281957156995  0.9995688356981549  1.0000
  Pt  Pt7       1.0  0.0012500001786424188  0.009967718488449788  0.9998533535230905  1.0000
  Pt  Pt8       1.0  0.0037500001531220735  3.2281800088794755e-05  0.9995049667937923  1.0000
  Si  Si9       1.0  0.00625  0.006764578324713097  0.9994425338911704  1.0000
  Si  Si10      1.0  0.008749999591674471  0.0031949567262341233  0.9993481985849574  1.0000
  Si  Si11      1.0  0.00625  0.001764578449220874  0.9990651288502659  1.0000
  Si  Si12      1.0  0.008749999591674471  0.008194957093204416  0.9991594638753509  1.0000
  Pt  Pt9       1.0  0.00625  0.004927253421442271  0.9992218967779728  1.0000
  Pt  Pt10      1.0  0.008749999591674471  0.005032281957156995  0.999002696228772  1.0000
  Pt  Pt11      1.0  0.00625  0.009927253460760517  0.9992857656823355  1.0000
  Pt  Pt12      1.0  0.008749999591674471  3.2281800088794755e-05  0.9989388270432814  1.0000
  Si  Si13      1.0  0.00625  0.006230850179576388  0.0  1.0000
  Si  Si14      1.0  0.008749999591674471  0.003369738778383999  0.9999240780144638  1.0000
  Si  Si15      1.0  0.00625  0.001764578449220874  0.9996312686007768  1.0000
  Si  Si16      1.0  0.008749999591674471  0.008194957093204416  0.9997256033447339  1.0000
  Pt  Pt13      1.0  0.00625  0.005027129956384637  0.9997748721483907  1.0000
  Pt  Pt14      1.0  0.008749999591674471  0.005032281957156995  0.9995688356981549  1.0000
  Pt  Pt15      1.0  0.00625  0.009967718488449788  0.9998533535230905  1.0000
  Pt  Pt16      1.0  0.008749999591674471  3.2281800088794755e-05  0.9995049667937923  1.0000
