data_image0
_chemical_formula_structural       HFe4As4Fe4As4Fe4As4
_chemical_formula_sum              "H1 Fe12 As12"
_cell_length_a       5.420888900756836
_cell_length_b       6.882977724574427
_cell_length_c       103.2951431274414
_cell_angle_alpha    118.92941010064754
_cell_angle_beta     90.0
_cell_angle_gamma    90.0

_space_group_name_H-M_alt    "P 1"
_space_group_IT_number       1

loop_
  _space_group_symop_operation_xyz
  'x, y, z'

loop_
  _atom_site_type_symbol
  _atom_site_label
  _atom_site_symmetry_multiplicity
  _atom_site_fract_x
  _atom_site_fract_y
  _atom_site_fract_z
  _atom_site_occupancy
  H   H1        1.0  0.009684404997551112  0.009750123917139922  0.00025150693974798286  1.0000
  Fe  Fe1       1.0  0.009996064456976813  0.002245960747969556  0.9994783672256506  1.0000
  Fe  Fe2       1.0  3.9355999596278424e-06  0.00824342719703783  0.9995105185363511  1.0000
  Fe  Fe3       1.0  0.004996064401999995  0.003243427432029213  0.9995105185900881  1.0000
  Fe  Fe4       1.0  0.005003935707953641  0.007245960512978174  0.9994783674604297  1.0000
  As  As1       1.0  0.008008199605521538  0.006005014928829372  0.9992772028850481  1.0000
  As  As2       1.0  0.001991800332629542  0.004484373325377202  0.9993893528744805  1.0000
  As  As3       1.0  0.0030081995505447192  0.009484373399585007  0.999389353119226  1.0000
  As  As4       1.0  0.006991800559408917  0.0010050148546215671  0.9992772029288187  1.0000
  Fe  Fe5       1.0  0.009996064456976813  0.002245960747969556  0.9998006978151226  1.0000
  Fe  Fe6       1.0  3.9355999596278424e-06  0.00824342719703783  0.9998328488373067  1.0000
  Fe  Fe7       1.0  0.004996064401999995  0.003243427432029213  0.9998328491795601  1.0000
  Fe  Fe8       1.0  0.005003935707953641  0.007245960512978174  0.9998006974728693  1.0000
  As  As5       1.0  0.008008199605521538  0.006005014928829372  0.9995995328974876  1.0000
  As  As6       1.0  0.001991800332629542  0.004484373325377202  0.9997116831754362  1.0000
  As  As7       1.0  0.0030081995505447192  0.009484373399585007  0.9997116831316656  1.0000
  As  As8       1.0  0.006991800559408917  0.0010050148546215671  0.9995995329412583  1.0000
  Fe  Fe9       1.0  0.009769362736431106  0.00256543694332273  8.440960798411337e-05  1.0000
  Fe  Fe10      1.0  0.009684404997551112  0.008359295882111938  0.0001083252166182177  1.0000
  Fe  Fe11      1.0  0.005316492320332239  0.0033592750915585794  0.0001082795841109465  1.0000
  Fe  Fe12      1.0  0.005230069105640639  0.007566304475850683  8.458582234345934e-05  1.0000
  As  As9       1.0  0.00804443345201289  0.00579911609797235  0.9998983652817673  1.0000
  As  As10      1.0  0.0019863031662117224  0.005250382773752395  7.044890396046489e-05  1.0000
  As  As11      1.0  0.003013945315262585  0.00024987634722538403  7.057803863209118e-05  1.0000
  As  As12      1.0  0.00695510215880331  0.0007981228759747344  0.9998982023270288  1.0000
