data_image0
_chemical_formula_structural       COCa4In16Rh4Ca4In16Rh4
_chemical_formula_sum              "C1 O1 Ca8 In32 Rh8"
_cell_length_a       15.904858131785033
_cell_length_b       8.85673999786377
_cell_length_c       100.2602310180664
_cell_angle_alpha    90.0
_cell_angle_beta     74.22878230608764
_cell_angle_gamma    90.0

_space_group_name_H-M_alt    "P 1"
_space_group_IT_number       1

loop_
  _space_group_symop_operation_xyz
  'x, y, z'

loop_
  _atom_site_type_symbol
  _atom_site_label
  _atom_site_symmetry_multiplicity
  _atom_site_fract_x
  _atom_site_fract_y
  _atom_site_fract_z
  _atom_site_occupancy
  C   C1        1.0  0.0029914152408648327  0.00032090693405690125  0.999810227729924  1.0000
  O   O1        1.0  0.0029914152408648327  0.00032090693405690125  0.9999299165057911  1.0000
  Ca  Ca1       1.0  0.003746501563292075  0.007820905598599758  0.9996115606400044  1.0000
  Ca  Ca2       1.0  0.008764441109336892  0.007820902233668372  0.9994017746486361  1.0000
  Ca  Ca3       1.0  0.0028514633154334335  0.002820907365188735  0.9996498681592355  1.0000
  Ca  Ca4       1.0  0.0076809777405065695  0.00282091073012012  0.9994673558566406  1.0000
  In  In1       1.0  0.005580673474811622  0.000375397528787661  0.9995917808910834  1.0000
  In  In2       1.0  0.0007279610398699995  0.00032090625055521366  0.999337516559324  1.0000
  In  In3       1.0  0.005580672501268566  0.005266411628422203  0.9995917809330592  1.0000
  In  In4       1.0  0.0007279610398699995  0.0053209058509696115  0.999337516559324  1.0000
  In  In5       1.0  0.005393879281844859  0.007820905598599758  0.9993519208719503  1.0000
  In  In6       1.0  0.00024122493960469885  0.007820906439832603  0.9996161204007245  1.0000
  In  In7       1.0  0.0009422532606916524  0.002820907365188735  0.9995764358879881  1.0000
  In  In8       1.0  0.006062042812498287  0.0028209061033394657  0.9993231118655885  1.0000
  In  In9       1.0  0.002170824317286187  0.00964175914171099  0.999499098401646  1.0000
  In  In10      1.0  0.007321702871356987  0.009633341765851384  0.9996611708526353  1.0000
  In  In11      1.0  0.004142628201134183  0.0008187952208922667  0.9993937892728406  1.0000
  In  In12      1.0  0.00915516287951668  0.0008599657347354598  0.9996052595905958  1.0000
  In  In13      1.0  0.0021708255342150072  0.006000053317337795  0.9994990983491759  1.0000
  In  In14      1.0  0.007321703844900043  0.006008476581827325  0.999661171999658  1.0000
  In  In15      1.0  0.0041426286879057105  0.004823017143517823  0.9993937892518526  1.0000
  In  In16      1.0  0.009155163853059737  0.00478184426370725  0.9996052601431191  1.0000
  Rh  Rh1       1.0  0.0016971470649795287  0.007820905598599758  0.9992957284564388  1.0000
  Rh  Rh2       1.0  0.006585651749536314  0.00782090307490122  0.9995082269057368  1.0000
  Rh  Rh3       1.0  0.0047284212273446405  0.0028209071548805234  0.9995540732825342  1.0000
  Rh  Rh4       1.0  0.0097587751510565  0.0028209061033394657  0.9993793048703524  1.0000
  Ca  Ca5       1.0  0.0037260298999060664  0.007820905598599758  0.9992082497243363  1.0000
  Ca  Ca6       1.0  0.008726029968054081  0.007820905598599758  0.9989926662224482  1.0000
  Ca  Ca7       1.0  0.0027298921262890645  0.0028209061033394657  0.9992511998976707  1.0000
  Ca  Ca8       1.0  0.007729891951051315  0.0028209061033394657  0.9990356164062767  1.0000
  In  In17      1.0  0.005727960803785809  0.00032090625055521366  0.9991219330705535  1.0000
  In  In18      1.0  0.0007279610398699995  0.00032090625055521366  0.9989063496446544  1.0000
  In  In19      1.0  0.005727960803785809  0.0053209058509696115  0.9991219330705535  1.0000
  In  In20      1.0  0.0007279610398699995  0.0053209058509696115  0.9989063496446544  1.0000
  In  In21      1.0  0.005393879281844859  0.007820905598599758  0.9989207539572807  1.0000
  In  In22      1.0  0.00039387915285040326  0.007820905598599758  0.9991363374617923  1.0000
  In  In23      1.0  0.0010620429877360369  0.0028209061033394657  0.999107528442313  1.0000
  In  In24      1.0  0.006062042812498287  0.0028209061033394657  0.9988919449509189  1.0000
  In  In25      1.0  0.0022983998332297383  0.009679093055427688  0.9990542208153727  1.0000
  In  In26      1.0  0.007298399657991989  0.009679093055427688  0.9992698042386482  1.0000
  In  In27      1.0  0.004157521949579629  0.000962718751665641  0.9989740616052091  1.0000
  In  In28      1.0  0.009157521774341879  0.000962718751665641  0.9991896450284846  1.0000
  In  In29      1.0  0.0022983998332297383  0.00596271856238825  0.9990542208153727  1.0000
  In  In30      1.0  0.007298399657991989  0.00596271856238825  0.9992698042386482  1.0000
  In  In31      1.0  0.004157521949579629  0.004679093560167396  0.9989740616052091  1.0000
  In  In32      1.0  0.009157521774341879  0.004679093560167396  0.9991896450284846  1.0000
  Rh  Rh5       1.0  0.0016971470649795287  0.007820905598599758  0.9988645612445195  1.0000
  Rh  Rh6       1.0  0.006697146768048897  0.007820905598599758  0.9990801449702917  1.0000
  Rh  Rh7       1.0  0.004758774839522721  0.0028209061033394657  0.9991637211708152  1.0000
  Rh  Rh8       1.0  0.0097587751510565  0.0028209061033394657  0.9989481376584332  1.0000
