data_image0
_chemical_formula_structural       Al8Fe12Si12CO
_chemical_formula_sum              "Al8 Fe12 Si12 C1 O1"
_cell_length_a       4.628602156756036
_cell_length_b       8.777616882445479
_cell_length_c       102.36671447753906
_cell_angle_alpha    99.60120254937908
_cell_angle_beta     84.71328128240509
_cell_angle_gamma    112.33832955770167

_space_group_name_H-M_alt    "P 1"
_space_group_IT_number       1

loop_
  _space_group_symop_operation_xyz
  'x, y, z'

loop_
  _atom_site_type_symbol
  _atom_site_label
  _atom_site_symmetry_multiplicity
  _atom_site_fract_x
  _atom_site_fract_y
  _atom_site_fract_z
  _atom_site_occupancy
  Al  Al1       1.0  0.005908353026284312  0.0016698912164262794  3.1414421995810753e-05  1.0000
  Al  Al2       1.0  0.005882012684372022  0.006369826112321428  0.999513723942333  1.0000
  Al  Al3       1.0  0.0005476425663306567  0.009589401947574282  0.9995120414978943  1.0000
  Al  Al4       1.0  0.0009586828141895188  0.004787870597760759  1.7469461902857747e-05  1.0000
  Al  Al5       1.0  0.009489829309604757  0.0004105982112123729  0.9991192778995516  1.0000
  Al  Al6       1.0  0.009489829738846638  0.005410598478947536  0.9996462511587262  1.0000
  Al  Al7       1.0  0.004155459944195705  0.008630174777811061  0.9996445687195706  1.0000
  Al  Al8       1.0  0.004155459595776885  0.003630174481100232  0.9991175954596448  1.0000
  Fe  Fe1       1.0  0.0036676524607639244  0.006304308652194616  0.9992079020470194  1.0000
  Fe  Fe2       1.0  0.0036676519809800143  0.0013043082395811179  0.999734875148862  1.0000
  Fe  Fe3       1.0  0.006369819869902462  0.003695691941227044  0.9994234176458808  1.0000
  Fe  Fe4       1.0  0.005966863247334416  0.00875899734793926  0.9999359196250018  1.0000
  Fe  Fe5       1.0  0.0013699568402418124  0.006873155701114636  0.9994533008255394  1.0000
  Fe  Fe6       1.0  0.0012068343422131592  0.002003779101991618  0.9999768164614663  1.0000
  Fe  Fe7       1.0  0.008667515338872134  0.003126844892307024  0.9991780185768594  1.0000
  Fe  Fe8       1.0  0.008667515464935483  0.008126844725407182  0.999704992122214  1.0000
  Fe  Fe9       1.0  0.00041652534190895064  0.008539836529541954  0.9992507582180482  1.0000
  Fe  Fe10      1.0  0.00035037849566748106  0.003486052758805428  0.9997715734240037  1.0000
  Fe  Fe11      1.0  0.009620946432966952  0.0014601634843663656  0.9993805611777467  1.0000
  Fe  Fe12      1.0  0.009649621431553453  0.006459799962602567  0.9998814284849601  1.0000
  Si  Si1       1.0  0.004588109471704368  0.0011957177550692452  0.9992812910839963  1.0000
  Si  Si2       1.0  0.0045074099289737725  0.006178725329829693  0.9998072829585644  1.0000
  Si  Si3       1.0  0.007260840686293805  0.002122899923398165  0.999574067064777  1.0000
  Si  Si4       1.0  0.007260840974052369  0.007122899988303659  0.9990470939587617  1.0000
  Si  Si5       1.0  0.005449362959996977  0.008804282838352414  0.9993500283173501  1.0000
  Si  Si6       1.0  0.005489954350025382  0.003867742497607324  0.9998793746018179  1.0000
  Si  Si7       1.0  0.001810546082775758  0.004312769799157626  0.9993631402374292  1.0000
  Si  Si8       1.0  0.001405268982767894  0.009339750382519602  0.9999177821898092  1.0000
  Si  Si9       1.0  0.008226925873982716  0.005687230330653362  0.9992681794503985  1.0000
  Si  Si10      1.0  0.008255827299171497  0.0006956718047611287  0.9997921774959984  1.0000
  Si  Si11      1.0  0.002776631331124925  0.00787710043821816  0.9990572523349802  1.0000
  Si  Si12      1.0  0.0027766311949187997  0.0028771003733126647  0.9995842257314971  1.0000
  C   C1        1.0  0.006548995278948769  0.005502089263346528  5.1404697108136425e-05  1.0000
  O   O1        1.0  0.006548995278948769  0.005502089263346528  0.00016863053931613335  1.0000
