data_image0
_chemical_formula_structural       COAl45V7
_chemical_formula_sum              "C1 O1 Al45 V7"
_cell_length_a       11.084075202599173
_cell_length_b       11.106390256721234
_cell_length_c       98.58424377441406
_cell_angle_alpha    88.60403146551504
_cell_angle_beta     83.88142422009905
_cell_angle_gamma    74.07857308111303

_space_group_name_H-M_alt    "P 1"
_space_group_IT_number       1

loop_
  _space_group_symop_operation_xyz
  'x, y, z'

loop_
  _atom_site_type_symbol
  _atom_site_label
  _atom_site_symmetry_multiplicity
  _atom_site_fract_x
  _atom_site_fract_y
  _atom_site_fract_z
  _atom_site_occupancy
  C   C1        1.0  0.00480089571528459  0.00018716725312026798  9.195077282953168e-05  1.0000
  O   O1        1.0  0.00480089571528459  0.00018716725312026798  0.00021367432478124307  1.0000
  Al  Al1       1.0  0.00494819282886833  0.004699280281034964  0.9992528241547359  1.0000
  Al  Al2       1.0  0.005155408366367886  0.006194267195824127  0.9996166222992982  1.0000
  Al  Al3       1.0  0.00515540817563565  0.007105260388027571  0.9993524823060621  1.0000
  Al  Al4       1.0  0.008820128647464226  0.007003665082358261  0.9992463430670684  1.0000
  Al  Al5       1.0  0.009948199898319356  0.0018212230278882985  0.9992845491208878  1.0000
  Al  Al6       1.0  0.008568282206068674  0.0005761160385314159  0.9998003823066427  1.0000
  Al  Al7       1.0  0.0012834722573012963  0.002916087476084914  0.9999054523622414  1.0000
  Al  Al8       1.0  0.002995797553651256  0.00529071398284918  0.999688009276395  1.0000
  Al  Al9       1.0  0.006489112636692705  0.008818388679728312  0.9994141223609092  1.0000
  Al  Al10      1.0  0.006379409895728284  0.009812833115739461  0.9998760842233811  1.0000
  Al  Al11      1.0  0.00648911267192014  0.007851147430779075  0.9996945715084399  1.0000
  Al  Al12      1.0  0.0036144886912758785  0.0005423993380088558  0.9998997434314638  1.0000
  Al  Al13      1.0  0.0014345199474274852  0.0032590663328763876  0.9993441061485955  1.0000
  Al  Al14      1.0  0.008833257842832315  0.007982026885351707  0.9998012905684064  1.0000
  Al  Al15      1.0  0.006379409852019558  0.0013851873141630618  0.9994201841510016  1.0000
  Al  Al16      1.0  0.0039234488718036375  0.006449436508739442  0.9998904648327439  1.0000
  Al  Al17      1.0  0.006180151743308605  0.0019441105216511335  0.9997038498131036  1.0000
  Al  Al18      1.0  0.007483791992708748  0.0058093809904912926  0.9994497429656224  1.0000
  Al  Al19      1.0  0.005129547294900447  0.0006278944396827957  0.9992351202238731  1.0000
  Al  Al20      1.0  0.0012703431898618417  0.0013328886725513301  0.9995258761016647  1.0000
  Al  Al21      1.0  0.0036144887026331868  0.0020751582739254888  0.9994553240928341  1.0000
  Al  Al22      1.0  0.0015353184930958779  0.007817430686656074  0.9997939326413382  1.0000
  Al  Al23      1.0  0.002772393369392413  0.007469245937225813  0.9995184962737907  1.0000
  Al  Al24      1.0  0.008833257715384795  0.009560658629905997  0.9993435703563234  1.0000
  Al  Al25      1.0  0.0035065744336736943  0.002613658424508157  0.999731583148139  1.0000
  Al  Al26      1.0  0.007107803737499925  0.0031028330475413963  0.999906305663654  1.0000
  Al  Al27      1.0  0.008669081101908829  0.007634480446375649  0.9995253403091018  1.0000
  Al  Al28      1.0  0.0026198089605677824  0.005084166137564272  0.9994197037945718  1.0000
  Al  Al29      1.0  0.009472104049925534  0.0027516799800973266  0.9997372999133999  1.0000
  Al  Al30      1.0  0.0073312072458646465  0.003424301190829751  0.999350950188151  1.0000
  Al  Al31      1.0  5.180042931553964e-05  0.005446773564027782  0.9994347230964993  1.0000
  Al  Al32      1.0  0.0012834723058123053  0.0038898820456973026  0.9996231033908227  1.0000
  Al  Al33      1.0  0.004974053615770655  0.00026565245031436073  0.9996343262109977  1.0000
  Al  Al34      1.0  0.0012703431587818453  0.00041152027584019125  0.9997930243747535  1.0000
  Al  Al35      1.0  0.00494819243962141  0.0037882867400279917  0.9995169641558797  1.0000
  Al  Al36      1.0  0.008568282254579843  0.0015007446146074854  0.999532288852834  1.0000
  Al  Al37      1.0  0.0029957975039220917  0.006858456081294059  0.9992334465787153  1.0000
  Al  Al38      1.0  0.008820128864840151  0.005477459554305662  0.999688862579833  1.0000
  Al  Al39      1.0  0.0006314965651867085  0.00564186705029325  0.9998570144301444  1.0000
  Al  Al40      1.0  0.006597026519458018  0.005779888605882419  0.9998627314936576  1.0000
  Al  Al41      1.0  0.0037241914632913866  0.009508359726691621  0.9994492623027901  1.0000
  Al  Al42      1.0  0.00015540127199680003  0.009072323925765501  0.999584897334881  1.0000
  Al  Al43      1.0  0.0071078037873739085  0.004035091046761505  0.999635999875125  1.0000
  Al  Al44      1.0  0.0015353183606772176  0.009392802513448078  0.9993371576091078  1.0000
  Al  Al45      1.0  0.003724191492061953  0.008580713956507538  0.999718230437276  1.0000
  V   V1        1.0  0.0026572333810155483  0.0010893642525820167  0.999254234810819  1.0000
  V   V2        1.0  0.009242413652773245  0.0035203034319454293  0.9994957428230703  1.0000
  V   V3        1.0  0.0008611873965630685  0.007373243347306607  0.9993737036346269  1.0000
  V   V4        1.0  0.0074463675962759285  0.009804182788272666  0.9996152116470235  1.0000
  V   V5        1.0  0.009242413375108992  0.004370209964878108  0.9992493146482674  1.0000
  V   V6        1.0  0.005051800597545699  0.004196773689597051  0.9997971571678184  1.0000
  V   V7        1.0  0.0008611873362078538  0.006523336814373929  0.9996201318134806  1.0000
