data_image0
_chemical_formula_structural       Au4In8H
_chemical_formula_sum              "Au4 In8 H1"
_cell_length_a       4.778785228729248
_cell_length_b       4.778785228729248
_cell_length_c       36.208885192871094
_cell_angle_alpha    90.0
_cell_angle_beta     90.0
_cell_angle_gamma    90.0

_space_group_name_H-M_alt    "P 1"
_space_group_IT_number       1

loop_
  _space_group_symop_operation_xyz
  'x, y, z'

loop_
  _atom_site_type_symbol
  _atom_site_label
  _atom_site_symmetry_multiplicity
  _atom_site_fract_x
  _atom_site_fract_y
  _atom_site_fract_z
  _atom_site_occupancy
  Au  Au1       1.0  4.9999999127884754e-11  5.999999895346171e-10  0.9985933788463678  1.0000
  Au  Au2       1.0  0.005000000031181902  0.005000000420955675  0.9976601518293096  1.0000
  Au  Au3       1.0  0.009999999282816257  0.00999999694417362  0.0003944875690348719  1.0000
  Au  Au4       1.0  0.005000000031181902  0.005000000420955675  0.999526605863426  1.0000
  In  In1       1.0  0.005000000031181902  5.999999895346171e-10  0.9971935381150138  1.0000
  In  In2       1.0  4.9999999127884754e-11  0.005000000420955675  0.9971935381150138  1.0000
  In  In3       1.0  4.9999999127884754e-11  0.005000000420955675  0.998126765132072  1.0000
  In  In4       1.0  0.005000000031181902  5.999999895346171e-10  0.998126765132072  1.0000
  In  In5       1.0  0.005000000031181902  5.999999895346171e-10  0.9990599921491303  1.0000
  In  In6       1.0  4.9999999127884754e-11  0.005000000420955675  0.9990599921491303  1.0000
  In  In7       1.0  4.500000037671264e-10  0.005000005877788498  0.0  1.0000
  In  In8       1.0  0.005000001590276994  0.009999999282816257  0.0  1.0000
  H   H1        1.0  0.007500000436546626  0.0025000027440073625  0.00041426256607973375  1.0000
