data_image0
_chemical_formula_structural       HFe3Pt3Fe3Pt3Fe3Pt3Fe3Pt3
_chemical_formula_sum              "H1 Fe12 Pt12"
_cell_length_a       5.34834623336792
_cell_length_b       6.50585072824894
_cell_length_c       101.9804916381836
_cell_angle_alpha    91.12026358682215
_cell_angle_beta     90.0
_cell_angle_gamma    90.0

_space_group_name_H-M_alt    "P 1"
_space_group_IT_number       1

loop_
  _space_group_symop_operation_xyz
  'x, y, z'

loop_
  _atom_site_type_symbol
  _atom_site_label
  _atom_site_symmetry_multiplicity
  _atom_site_fract_x
  _atom_site_fract_y
  _atom_site_fract_z
  _atom_site_occupancy
  H   H1        1.0  0.002500000243785938  0.004403099720331497  3.519871900793065e-05  1.0000
  Fe  Fe1       1.0  2.4999999892426435e-10  0.006712660887278566  0.9992788745375664  1.0000
  Fe  Fe2       1.0  2.4999999892426435e-10  4.59942027145347e-05  0.999577535648335  1.0000
  Fe  Fe3       1.0  2.4999999892426435e-10  0.0033793275539452322  0.999428204946844  1.0000
  Pt  Pt1       1.0  0.002500000243785938  0.006712660887278566  0.9995028704364125  1.0000
  Pt  Pt2       1.0  0.002500000243785938  4.59942027145347e-05  0.9993535397494888  1.0000
  Pt  Pt3       1.0  0.002500000243785938  0.0033793275539452322  0.9992042090479979  1.0000
  Fe  Fe4       1.0  2.4999999892426435e-10  0.006712660887278566  0.9997268660430232  1.0000
  Fe  Fe5       1.0  0.009999999582081249  0.00046424380172767696  5.790326100555699e-07  1.0000
  Fe  Fe6       1.0  4.499999773054269e-10  0.0032569980697191954  0.9998983075468009  1.0000
  Pt  Pt4       1.0  0.002499999895520312  0.006539120602002031  0.9999464469442858  1.0000
  Pt  Pt5       1.0  0.0025000007661843773  0.009954006352103745  0.9997924238360525  1.0000
  Pt  Pt6       1.0  0.002500000243785938  0.0033793275539452322  0.9996522008456902  1.0000
  Fe  Fe7       1.0  0.00500000013930625  0.006712660887278566  0.9992788745375664  1.0000
  Fe  Fe8       1.0  0.00500000013930625  4.59942027145347e-05  0.999577535648335  1.0000
  Fe  Fe9       1.0  0.00500000013930625  0.0033793275539452322  0.999428204946844  1.0000
  Pt  Pt7       1.0  0.007499999860693749  0.006712660887278566  0.9995028704364125  1.0000
  Pt  Pt8       1.0  0.007499999860693749  4.59942027145347e-05  0.9993535397494888  1.0000
  Pt  Pt9       1.0  0.007499999860693749  0.0033793275539452322  0.9992042090479979  1.0000
  Fe  Fe10      1.0  0.00500000013930625  0.006712660887278566  0.9997268660430232  1.0000
  Fe  Fe11      1.0  0.004999999442774998  0.00046424380172767696  5.790326100555699e-07  1.0000
  Fe  Fe12      1.0  0.00500000013930625  0.0032569980697191954  0.9998983075468009  1.0000
  Pt  Pt10      1.0  0.007499999860693749  0.006539120602002031  0.9999464469442858  1.0000
  Pt  Pt11      1.0  0.007500000557225001  0.009954006352103745  0.9997924238360525  1.0000
  Pt  Pt12      1.0  0.007499999860693749  0.0033793275539452322  0.9996522008456902  1.0000
