data_image0
_chemical_formula_structural       CONa16Ge8Se20
_chemical_formula_sum              "C1 O1 Na16 Ge8 Se20"
_cell_length_a       10.228598324821528
_cell_length_b       10.950626278652665
_cell_length_c       105.41960144042969
_cell_angle_alpha    113.74683489446734
_cell_angle_beta     97.97510887230767
_cell_angle_gamma    90.13970820213937

_space_group_name_H-M_alt    "P 1"
_space_group_IT_number       1

loop_
  _space_group_symop_operation_xyz
  'x, y, z'

loop_
  _atom_site_type_symbol
  _atom_site_label
  _atom_site_symmetry_multiplicity
  _atom_site_fract_x
  _atom_site_fract_y
  _atom_site_fract_z
  _atom_site_occupancy
  C   C1        1.0  0.00958411670605288  0.00959234019264975  0.00031312538669551977  1.0000
  O   O1        1.0  0.00958411670605288  0.00959234019264975  0.00042695587504954006  1.0000
  Na  Na1       1.0  0.006484192661975542  0.003277454827942969  0.9998629345281053  1.0000
  Na  Na2       1.0  0.0014841924740285912  0.0032774549049227083  0.9993029563123568  1.0000
  Na  Na3       1.0  0.00443546181186828  0.005160587231385272  0.9996314968382  1.0000
  Na  Na4       1.0  0.008920840122812527  0.0051936921202849285  0.00013451737032190897  1.0000
  Na  Na5       1.0  0.007401322190143846  0.0023871286395427556  0.9994285791914809  1.0000
  Na  Na6       1.0  0.0023235314040457433  0.002196697176492954  0.9999582316705711  1.0000
  Na  Na7       1.0  0.0036049157588450577  0.006084284967511784  3.439279250379541e-05  1.0000
  Na  Na8       1.0  0.008518332932301219  0.006050913372751368  0.999505874281776  1.0000
  Na  Na9       1.0  0.005459827236921911  0.00421902102966412  0.9991872374836763  1.0000
  Na  Na10      1.0  0.00045982704897496005  0.00421902110664386  0.9997472159495824  1.0000
  Na  Na11      1.0  0.005459827236921911  0.009219020717472685  0.9997472157944823  1.0000
  Na  Na12      1.0  0.00045982704897496005  0.009219020794452424  0.9991872375787338  1.0000
  Na  Na13      1.0  0.004212987163214394  0.00029469922918850215  0.00014380890697654556  1.0000
  Na  Na14      1.0  0.009370708470911484  0.0002540901625026213  0.9996148175810513  1.0000
  Na  Na15      1.0  0.006548946651533581  0.008183951756877384  0.999319635888319  1.0000
  Na  Na16      1.0  0.0015489463714557716  0.008183951827867998  0.9998796137873305  1.0000
  Ge  Ge1       1.0  0.003361418322400196  0.006921342933086291  0.9993385153632122  1.0000
  Ge  Ge2       1.0  0.008361418602478006  0.006921342862095675  0.9998984935804515  1.0000
  Ge  Ge3       1.0  0.007496278886222889  0.0005399876414823966  0.0001235020062958672  1.0000
  Ge  Ge4       1.0  0.002558236055627533  0.0015166993021249323  0.999595937792722  1.0000
  Ge  Ge5       1.0  0.0066167903415586034  0.007814390904305916  5.372980553986923e-05  1.0000
  Ge  Ge6       1.0  0.001582973982693715  0.007557359010463498  0.9994900301996483  1.0000
  Ge  Ge7       1.0  0.0043366802110722975  0.0008806832127694759  0.9994444229533044  1.0000
  Ge  Ge8       1.0  0.009444426424467484  0.000908335957108699  1.1963567958334454e-05  1.0000
  Se  Se1       1.0  0.004545277372788541  0.007799921615019991  0.9999142634681548  1.0000
  Se  Se2       1.0  0.009524687143062944  0.007671115259379628  0.9993587664978771  1.0000
  Se  Se3       1.0  0.006394967242335255  0.0007669270302009126  0.9995756866943548  1.0000
  Se  Se4       1.0  0.0015505702699657622  0.0009292289494832196  0.00013647708156675148  1.0000
  Se  Se5       1.0  0.00740127501914435  0.009745909954486381  0.9991301181059141  1.0000
  Se  Se6       1.0  0.0024012745548048237  0.009745910013498747  0.999690096001944  1.0000
  Se  Se7       1.0  0.0035183798232229055  0.008692132247728428  0.9992443571211542  1.0000
  Se  Se8       1.0  0.008518380103300716  0.008692132176737814  0.9998043353383934  1.0000
  Se  Se9       1.0  0.008394175176393594  0.0035068566175894852  0.999235732563752  1.0000
  Se  Se10      1.0  0.0033941748963157844  0.0035068566885801005  0.9997957107454654  1.0000
  Se  Se11      1.0  0.0025254792974502283  0.004931185441738755  0.9991387426863025  1.0000
  Se  Se12      1.0  0.007525479209004604  0.0049311853467916425  0.9996987208975786  1.0000
  Se  Se13      1.0  0.004413069590998188  0.002480880467615937  0.999344748685028  1.0000
  Se  Se14      1.0  0.009413069502552563  0.00248088055849706  0.9999047269040774  1.0000
  Se  Se15      1.0  0.006393347213321317  0.006558798721100624  0.00018780037286597736  1.0000
  Se  Se16      1.0  0.0015065846027678244  0.005957161476874684  0.9995897044562647  1.0000
  Se  Se17      1.0  0.005963575185101361  0.002003523074495178  9.170042738695053e-05  1.0000
  Se  Se18      1.0  0.0005255970576393292  0.0017727426750704317  0.9994706603216291  1.0000
  Se  Se19      1.0  0.005394057228257542  0.006665299275409313  0.9994637928211544  1.0000
  Se  Se20      1.0  0.00041588334738301897  0.006683989828402759  2.483733368516768e-05  1.0000
