data_image0
_chemical_formula_structural       COPd15Au5Pd15Au5
_chemical_formula_sum              "C1 O1 Pd30 Au10"
_cell_length_a       5.702823638916016
_cell_length_b       9.016955562914898
_cell_length_c       104.92251586914062
_cell_angle_alpha    75.03678256603435
_cell_angle_beta     90.0
_cell_angle_gamma    71.56505047028205

_space_group_name_H-M_alt    "P 1"
_space_group_IT_number       1

loop_
  _space_group_symop_operation_xyz
  'x, y, z'

loop_
  _atom_site_type_symbol
  _atom_site_label
  _atom_site_symmetry_multiplicity
  _atom_site_fract_x
  _atom_site_fract_y
  _atom_site_fract_z
  _atom_site_occupancy
  C   C1        1.0  0.008791540556987464  0.0029326087602090842  9.284614534887146e-05  1.0000
  O   O1        1.0  0.008791540556987464  0.0029326087602090842  0.00020721592208027058  1.0000
  Pd  Pd1       1.0  0.00900430314291718  0.0024975750836127375  0.9990579103238405  1.0000
  Pd  Pd2       1.0  0.007004303112142061  0.006497575145162974  0.9991910468726372  1.0000
  Pd  Pd3       1.0  0.0010043030923158204  0.008497574949650458  0.9989247739129904  1.0000
  Pd  Pd4       1.0  0.005004303069008194  0.000497574996265711  0.9993241832897638  1.0000
  Pd  Pd5       1.0  0.0030043031230909383  0.004497574888100222  0.9987916373641937  1.0000
  Pd  Pd6       1.0  0.005004303167781709  0.005497575242919232  0.9989913421133942  1.0000
  Pd  Pd7       1.0  0.0030043031370065904  0.009497575304469468  0.9991244786621909  1.0000
  Pd  Pd8       1.0  0.007004303255128736  0.0014975750682251784  0.9988582055671082  1.0000
  Pd  Pd9       1.0  0.0010043031787305861  0.0034975749858564796  0.9992576150830834  1.0000
  Pd  Pd10      1.0  0.009004303056502414  0.007497575047406716  0.9987250691537475  1.0000
  Pd  Pd11      1.0  4.30305019921016e-06  0.005497575242919232  0.9989913421133942  1.0000
  Pd  Pd12      1.0  0.008004302927971036  0.009497575304469468  0.9991244786621909  1.0000
  Pd  Pd13      1.0  0.002004303137546237  0.0014975750682251784  0.9988582055671082  1.0000
  Pd  Pd14      1.0  0.006004303296313084  0.0034975749858564796  0.9992576150830834  1.0000
  Pd  Pd15      1.0  0.004004303265537967  0.007497575047406716  0.9987250691537475  1.0000
  Au  Au1       1.0  0.008004303240673439  0.004497574888100222  0.9987916373641937  1.0000
  Au  Au2       1.0  0.006004303209898318  0.008497574949650458  0.9989247739129904  1.0000
  Au  Au3       1.0  4.303237216490603e-06  0.000497574996265711  0.9993241832897638  1.0000
  Au  Au4       1.0  0.00400430302533468  0.0024975750836127375  0.9990579103238405  1.0000
  Au  Au5       1.0  0.0020043029945595627  0.006497575145162974  0.9991910468726372  1.0000
  Pd  Pd16      1.0  0.008993336365897452  0.002496313530054068  0.9997224715642017  1.0000
  Pd  Pd17      1.0  0.006985067964031851  0.006514981189958106  0.9998545053741624  1.0000
  Pd  Pd18      1.0  0.0010043030923158204  0.008497574949650458  0.9995904558230405  1.0000
  Pd  Pd19      1.0  0.00498771511631891  0.0005004995376454859  0.9999878864360572  1.0000
  Pd  Pd20      1.0  0.0030043031230909383  0.004497574888100222  0.9994573192742439  1.0000
  Pd  Pd21      1.0  0.005004303167781709  0.005497575242919232  0.9996570240234444  1.0000
  Pd  Pd22      1.0  0.0030103844251652633  0.009497950941941646  0.9997892461454878  1.0000
  Pd  Pd23      1.0  0.007004303255128736  0.0014975750682251784  0.9995238874771583  1.0000
  Pd  Pd24      1.0  0.0010163424124110284  0.003499600486467  0.9999215466648305  1.0000
  Pd  Pd25      1.0  0.009004303056502414  0.007497575047406716  0.9993907510637976  1.0000
  Pd  Pd26      1.0  4.30305019921016e-06  0.005497575242919232  0.9996570240234444  1.0000
  Pd  Pd27      1.0  0.008011156595314919  0.009502425101037971  0.9997888514636734  1.0000
  Pd  Pd28      1.0  0.002004303137546237  0.0014975750682251784  0.9995238874771583  1.0000
  Pd  Pd29      1.0  0.00599404344850785  0.0035110096826776837  0.9999210350240497  1.0000
  Pd  Pd30      1.0  0.004004303265537967  0.007497575047406716  0.9993907510637976  1.0000
  Au  Au6       1.0  0.008004303240673439  0.004497574888100222  0.9994573192742439  1.0000
  Au  Au7       1.0  0.006004303209898318  0.008497574949650458  0.9995904558230405  1.0000
  Au  Au8       1.0  0.009995696559395223  0.0004991105841489632  0.9999863578696516  1.0000
  Au  Au9       1.0  0.00402819422439686  0.002479326796244445  0.9997240772521123  1.0000
  Au  Au10      1.0  0.002015628029024885  0.006508085300604403  0.9998529416445205  1.0000
