data_image0
_chemical_formula_structural       HPt8W4Pt8W4
_chemical_formula_sum              "H1 Pt16 W8"
_cell_length_a       4.86640458570633
_cell_length_b       8.838398916147419
_cell_length_c       104.06483459472656
_cell_angle_alpha    100.57832439513179
_cell_angle_beta     70.53911266438237
_cell_angle_gamma    79.42167642293649

_space_group_name_H-M_alt    "P 1"
_space_group_IT_number       1

loop_
  _space_group_symop_operation_xyz
  'x, y, z'

loop_
  _atom_site_type_symbol
  _atom_site_label
  _atom_site_symmetry_multiplicity
  _atom_site_fract_x
  _atom_site_fract_y
  _atom_site_fract_z
  _atom_site_occupancy
  H   H1        1.0  0.009449271730072501  0.004809930129873264  5.467170738943739e-05  1.0000
  Pt  Pt1       1.0  0.009592523080575031  0.001723395685677011  0.9993987665476657  1.0000
  Pt  Pt2       1.0  0.004592523113050878  0.001723395685677011  0.9996325828382835  1.0000
  Pt  Pt3       1.0  0.008722431369863264  0.0034635791071005455  0.9992056391715497  1.0000
  Pt  Pt4       1.0  0.0037224314023391104  0.0034635791071005455  0.9994394551757853  1.0000
  Pt  Pt5       1.0  0.007092522962767919  0.006723395921291235  0.999281858905918  1.0000
  Pt  Pt6       1.0  0.0020925229952437653  0.006723395921291235  0.9995156749101536  1.0000
  Pt  Pt7       1.0  0.00622243119648676  0.008463579453853554  0.9995563628316556  1.0000
  Pt  Pt8       1.0  0.0012224312289626056  0.008463579453853554  0.9993225469638716  1.0000
  W   W1        1.0  0.00040747710577610814  9.348725774314407e-05  0.9995944730427907  1.0000
  W   W2        1.0  0.005407477327017811  9.348725774314407e-05  0.9993606570346023  1.0000
  W   W3        1.0  0.007907477221884984  0.005093487403057106  0.9994775646857628  1.0000
  W   W4        1.0  0.00290747725436083  0.005093487403057106  0.9992437488179787  1.0000
  Pt  Pt9       1.0  0.009543957344947453  0.0017857406541848672  0.9998791499810238  1.0000
  Pt  Pt10      1.0  0.004337770890678079  0.0015769692250978563  9.473938059553947e-05  1.0000
  Pt  Pt11      1.0  0.008722431369863264  0.0034635791071005455  0.9996732710435692  1.0000
  Pt  Pt12      1.0  0.0037095333403390253  0.0034487325213722196  0.9999095912825073  1.0000
  Pt  Pt13      1.0  0.007092522962767919  0.006723395921291235  0.9997494907779375  1.0000
  Pt  Pt14      1.0  0.0019918847047631586  0.006724936304850849  0.9999815638005481  1.0000
  Pt  Pt15      1.0  0.006106030017443493  0.008341670876070375  2.9729023989052457e-05  1.0000
  Pt  Pt16      1.0  0.0012224312289626056  0.008463579453853554  0.9997901791222734  1.0000
  W   W5        1.0  0.0006081095946617048  0.009906512970369211  4.539124803229148e-05  1.0000
  W   W6        1.0  0.005324005842497622  0.00012329365878315342  0.9998370667492273  1.0000
  W   W7        1.0  0.008160814120425708  0.005079545264760824  0.9999298054852042  1.0000
  W   W8        1.0  0.00290747725436083  0.005093487403057106  0.9997113809763806  1.0000
