data_image0
_chemical_formula_structural       HRe12As28
_chemical_formula_sum              "H1 Re12 As28"
_cell_length_a       8.897712707519531
_cell_length_b       8.897712707519531
_cell_length_c       105.59085083007812
_cell_angle_alpha    90.0
_cell_angle_beta     90.0
_cell_angle_gamma    90.0

_space_group_name_H-M_alt    "P 1"
_space_group_IT_number       1

loop_
  _space_group_symop_operation_xyz
  'x, y, z'

loop_
  _atom_site_type_symbol
  _atom_site_label
  _atom_site_symmetry_multiplicity
  _atom_site_fract_x
  _atom_site_fract_y
  _atom_site_fract_z
  _atom_site_occupancy
  H   H1        1.0  0.000711158868016586  0.009999999296618366  0.0  1.0000
  Re  Re1       1.0  0.007079593922107437  0.005000000904347815  0.999528917111404  1.0000
  Re  Re2       1.0  0.0020795936457789384  0.0034036547244121283  0.9993943993350725  1.0000
  Re  Re3       1.0  0.0020795936457789384  0.006596346874943729  0.9993943993350725  1.0000
  Re  Re4       1.0  0.008675939474023807  8.500000177449392e-10  0.9993943993350725  1.0000
  Re  Re5       1.0  0.005483247532831978  8.500000177449392e-10  0.9993943993350725  1.0000
  Re  Re6       1.0  0.0020795936457789384  8.500000177449392e-10  0.9996812117070197  1.0000
  Re  Re7       1.0  0.0020829347085395515  5.150000037051586e-09  0.9999015213209115  1.0000
  Re  Re8       1.0  0.007081582649941135  0.008358102247680797  0.9998100942113167  1.0000
  Re  Re9       1.0  0.007081586836736575  0.0016418548669735178  0.9998100919533693  1.0000
  Re  Re10      1.0  0.0037220544467224184  0.005000004253784166  0.9998099705887007  1.0000
  Re  Re11      1.0  0.0004383070577838998  0.005000003835104622  0.9998099813139505  1.0000
  Re  Re12      1.0  0.007079593922107437  0.005000000904347815  0.9992598818409842  1.0000
  As  As1       1.0  0.0070780021024813905  1.6050000076706018e-08  2.3194763888796563e-05  1.0000
  As  As2       1.0  0.007079593922107437  0.002500000870853451  0.9993943993350725  1.0000
  As  As3       1.0  0.0020831032270559858  0.002745811399214442  0.9998657441455581  1.0000
  As  As4       1.0  0.004579593888613074  0.005000000904347815  0.9993943993350725  1.0000
  As  As5       1.0  0.004829105125462919  0.009999978362641168  0.9998663583072303  1.0000
  As  As6       1.0  0.0020797770274191825  0.004999996717552376  2.3169926468229345e-05  1.0000
  As  As7       1.0  0.003738781531861768  0.0016591883047623731  0.9992545866722654  1.0000
  As  As8       1.0  0.008615449490874956  0.006532728518242584  0.9999593614640574  1.0000
  As  As9       1.0  0.008738781598850495  0.0033408134369445294  0.9996759162560575  1.0000
  As  As10      1.0  0.00042040625687806755  0.0016591883047623731  0.9992545866722654  1.0000
  As  As11      1.0  0.005545557934637866  0.006533872769436163  0.9999592863873088  1.0000
  As  As12      1.0  0.008615467912774889  0.003467247122981549  0.9999593575126495  1.0000
  As  As13      1.0  0.00542040624536438  0.0033408134369445294  0.9996759162560575  1.0000
  As  As14      1.0  0.005545220478925453  0.003466325399965573  0.9999592638078356  1.0000
  As  As15      1.0  0.0020795936457789384  0.005000000904347815  0.9996050646914553  1.0000
  As  As16      1.0  0.002083108041870741  0.007254198364392522  0.9998657441455581  1.0000
  As  As17      1.0  0.007079593922107437  0.007500000937842178  0.9993943993350725  1.0000
  As  As18      1.0  0.00933938326614096  0.009999993435104751  0.9998651158717151  1.0000
  As  As19      1.0  0.0095795939556018  0.005000000904347815  0.9993943993350725  1.0000
  As  As20      1.0  0.007079593922107437  8.500000177449392e-10  0.9996050646914553  1.0000
  As  As21      1.0  0.008738781598850495  0.006659188162411328  0.9996759162560575  1.0000
  As  As22      1.0  0.003738781531861768  0.0016591883047623731  0.9995342125623663  1.0000
  As  As23      1.0  0.003738781531861768  0.008340813294593484  0.9992545866722654  1.0000
  As  As24      1.0  0.00542040624536438  0.006659188162411328  0.9996759162560575  1.0000
  As  As25      1.0  0.00042040625687806755  0.0016591883047623731  0.9995342125623663  1.0000
  As  As26      1.0  0.003738781531861768  0.008340813294593484  0.9995342125623663  1.0000
  As  As27      1.0  0.00042040625687806755  0.008340813294593484  0.9992545866722654  1.0000
  As  As28      1.0  0.00042040625687806755  0.008340813294593484  0.9995342125623663  1.0000
