data_image0
_chemical_formula_structural       COIn10Pd30
_chemical_formula_sum              "C1 O1 In10 Pd30"
_cell_length_a       9.391183839832907
_cell_length_b       8.737500662965985
_cell_length_c       108.77788543701172
_cell_angle_alpha    60.99987128628485
_cell_angle_beta     78.82869306670362
_cell_angle_gamma    77.58665998160058

_space_group_name_H-M_alt    "P 1"
_space_group_IT_number       1

loop_
  _space_group_symop_operation_xyz
  'x, y, z'

loop_
  _atom_site_type_symbol
  _atom_site_label
  _atom_site_symmetry_multiplicity
  _atom_site_fract_x
  _atom_site_fract_y
  _atom_site_fract_z
  _atom_site_occupancy
  C   C1        1.0  0.00040202607271820016  0.001581081687904643  0.9997785670051522  1.0000
  O   O1        1.0  0.00040202607271820016  0.001581081687904643  0.9998888837691754  1.0000
  In  In1       1.0  0.004250000228989714  0.00822706910020538  0.9989511143467479  1.0000
  In  In2       1.0  0.008249999981366373  0.006227069308983135  0.9991293574727167  1.0000
  In  In3       1.0  0.00034021320951980907  0.0003244264119749815  0.9996500375931339  1.0000
  In  In4       1.0  0.0022500000339588447  0.004227069025360525  0.99930760091969  1.0000
  In  In5       1.0  0.006147924705931194  0.002249529338127564  0.9994932915942104  1.0000
  In  In6       1.0  0.004289737576837032  0.008196315743090607  0.9993939543413961  1.0000
  In  In7       1.0  0.008217150392955602  0.006309534552292888  0.9995717105826378  1.0000
  In  In8       1.0  0.0002500000086256831  0.0002270690120657155  0.9992184790378429  1.0000
  In  In9       1.0  0.0022500000339588447  0.004227069025360525  0.9988619924701362  1.0000
  In  In10      1.0  0.006250000219482003  0.0022270689879380977  0.9990402355984475  1.0000
  Pd  Pd1       1.0  0.005749999956059869  0.008727069663511397  0.9991293574209775  1.0000
  Pd  Pd2       1.0  0.009749999766047832  0.0067270693798887875  0.999307601113106  1.0000
  Pd  Pd3       1.0  0.0017500000279502812  0.0007270690214213224  0.9989511142271504  1.0000
  Pd  Pd4       1.0  0.0036817990434113244  0.004756798260624472  0.9994894457077181  1.0000
  Pd  Pd5       1.0  0.00785664609978467  0.00280877649799378  0.9996480518108811  1.0000
  Pd  Pd6       1.0  0.0027500000399674077  0.007727069029299729  0.9992184791626757  1.0000
  Pd  Pd7       1.0  0.006761914636028866  0.005695806246586287  0.9993917891765867  1.0000
  Pd  Pd8       1.0  0.00875000004498624  0.009727068820521975  0.9990402357339138  1.0000
  Pd  Pd9       1.0  0.000750998415973627  0.003809370228443516  0.9995695155415761  1.0000
  Pd  Pd10      1.0  0.004750000016056872  0.0017270690401325363  0.9988619925082167  1.0000
  Pd  Pd11      1.0  0.005250000007662609  0.00522706916717183  0.9992184791962033  1.0000
  Pd  Pd12      1.0  0.009280979353627282  0.0032087203225967683  0.999393734017197  1.0000
  Pd  Pd13      1.0  0.0012499999955042224  0.00722706945079444  0.9990402360554047  1.0000
  Pd  Pd14      1.0  0.003201925288500807  0.0013013740306094346  0.9995690039475467  1.0000
  Pd  Pd15      1.0  0.007250000145082176  0.009227069734417049  0.9988619926050497  1.0000
  Pd  Pd16      1.0  0.0017532246593516953  0.0007087579444465559  0.9993902968419541  1.0000
  Pd  Pd17      1.0  0.005716028292951314  0.008808128611382445  0.9995705215908286  1.0000
  Pd  Pd18      1.0  0.007750000004163461  0.00272706905884375  0.9992184792388368  1.0000
  Pd  Pd19      1.0  0.009749999766047832  0.0067270693798887875  0.9988619921156039  1.0000
  Pd  Pd20      1.0  0.0037500002229811508  0.004727069096266178  0.999040235555814  1.0000
  Pd  Pd21      1.0  0.004750000016056872  0.0017270690401325363  0.9993076009577706  1.0000
  Pd  Pd22      1.0  0.008657230193159319  0.009772930990396287  0.9994916291420599  1.0000
  Pd  Pd23      1.0  0.0007500000183013107  0.003727069200655055  0.9991293572735765  1.0000
  Pd  Pd24      1.0  0.0028071458278958634  0.007864358129102996  0.9996467914002873  1.0000
  Pd  Pd25      1.0  0.006750000196684915  0.005727069238077483  0.9989511138323274  1.0000
  Pd  Pd26      1.0  0.0032500002169725873  0.001227069092326975  0.9991293573128284  1.0000
  Pd  Pd27      1.0  0.007250000145082176  0.009227069734417049  0.9993076010546036  1.0000
  Pd  Pd28      1.0  0.009250000597526616  0.0032270691297494026  0.9989511138681976  1.0000
  Pd  Pd29      1.0  0.0011393781531670321  0.007246880687027241  0.9994916702083709  1.0000
  Pd  Pd30      1.0  0.005377691684135457  0.005332922442956246  0.9996488800180411  1.0000
