data_image0
_chemical_formula_structural       HRh12V6Zn6
_chemical_formula_sum              "H1 Rh12 V6 Zn6"
_cell_length_a       6.064581871032715
_cell_length_b       7.427565618255243
_cell_length_c       102.65877532958984
_cell_angle_alpha    94.34775300743811
_cell_angle_beta     90.0
_cell_angle_gamma    114.09484229484863

_space_group_name_H-M_alt    "P 1"
_space_group_IT_number       1

loop_
  _space_group_symop_operation_xyz
  'x, y, z'

loop_
  _atom_site_type_symbol
  _atom_site_label
  _atom_site_symmetry_multiplicity
  _atom_site_fract_x
  _atom_site_fract_y
  _atom_site_fract_z
  _atom_site_occupancy
  H   H1        1.0  0.005272557007563559  0.0003542069055177754  9.820436757292758e-05  1.0000
  Rh  Rh1       1.0  0.003879234790613364  0.002562459731285501  0.9995743416047006  1.0000
  Rh  Rh2       1.0  0.009712568105569227  0.0042291263611972255  0.9993092338784648  1.0000
  Rh  Rh3       1.0  0.007977659034479863  0.0007222517710515842  0.9998453669381273  1.0000
  Rh  Rh4       1.0  0.0017959012551278489  0.00839579266031447  0.999441787748175  1.0000
  Rh  Rh5       1.0  7.909842478643067e-05  0.004880494319861853  0.9999594234191367  1.0000
  Rh  Rh6       1.0  0.005962567940171987  0.006729126030402747  0.9997068954744108  1.0000
  Rh  Rh7       1.0  0.0067959012551278486  0.00839579266031447  0.999441787748175  1.0000
  Rh  Rh8       1.0  0.004991743377257342  0.004881807573940946  0.9999594085591659  1.0000
  Rh  Rh9       1.0  0.0009625679401719871  0.006729126030402747  0.9997068954744108  1.0000
  Rh  Rh10      1.0  0.008879234790613363  0.002562459731285501  0.9995743416047006  1.0000
  Rh  Rh11      1.0  0.004712568105569226  0.0042291263611972255  0.9993092338784648  1.0000
  Rh  Rh12      1.0  0.0029390306564429486  0.0007211995000328148  0.999845427355898  1.0000
  V   V1        1.0  0.0019615703614329926  0.003729689825485183  0.9997741738540256  1.0000
  V   V2        1.0  0.007837568160701639  0.005479126471462052  0.9995080645327975  1.0000
  V   V3        1.0  0.006233446835815332  0.002275754367986716  1.2482488214649296e-05  1.0000
  V   V4        1.0  0.004920901271868391  0.009645792770579297  0.9996406186928124  1.0000
  V   V5        1.0  0.0007542348122646924  0.0013124596210206747  0.9993755106600632  1.0000
  V   V6        1.0  0.008951371390671172  0.0077117521310221355  0.9998964846453778  1.0000
  Zn  Zn1       1.0  0.006944695894067265  0.003699137647463768  0.9997685456447248  1.0000
  Zn  Zn2       1.0  0.0028375681798975746  0.005479126471462052  0.9995080645327975  1.0000
  Zn  Zn3       1.0  0.0011350268158920207  0.0020707326365537247  4.913587416579043e-05  1.0000
  Zn  Zn4       1.0  0.009920901310260261  0.009645792770579297  0.9996406186928124  1.0000
  Zn  Zn5       1.0  0.005754234735480951  0.0013124596210206747  0.9993755106600632  1.0000
  Zn  Zn6       1.0  0.004098792450716215  0.008006910120229237  0.9999427286377732  1.0000
