data_image0
_chemical_formula_structural       COV18Ir6V18Ir6
_chemical_formula_sum              "C1 O1 V36 Ir12"
_cell_length_a       4.789687156677246
_cell_length_b       10.71006569752435
_cell_length_c       110.64183807373047
_cell_angle_alpha    71.56505158041733
_cell_angle_beta     90.0
_cell_angle_gamma    90.0

_space_group_name_H-M_alt    "P 1"
_space_group_IT_number       1

loop_
  _space_group_symop_operation_xyz
  'x, y, z'

loop_
  _atom_site_type_symbol
  _atom_site_label
  _atom_site_symmetry_multiplicity
  _atom_site_fract_x
  _atom_site_fract_y
  _atom_site_fract_z
  _atom_site_occupancy
  C   C1        1.0  0.0016666520756414675  0.005042651834191147  0.9998456410813918  1.0000
  O   O1        1.0  0.0016666520756414675  0.005042651834191147  0.9999540988304945  1.0000
  V   V1        1.0  9.999999631895122e-11  0.007507634739110091  0.9987327961320217  1.0000
  V   V2        1.0  9.999999631895122e-11  0.004174301088017053  0.9991409382575362  1.0000
  V   V3        1.0  9.999999631895122e-11  0.0008409678035698278  0.9989368672304689  1.0000
  V   V4        1.0  9.999999631895122e-11  0.005840967730240665  0.9986307606297112  1.0000
  V   V5        1.0  9.999999631895122e-11  0.0025076344457934403  0.9990389027440026  1.0000
  V   V6        1.0  9.999999631895122e-11  0.009174301014687889  0.9988348316567786  1.0000
  V   V7        1.0  0.0049999997822235045  0.007507634739110091  0.9988858494173612  1.0000
  V   V8        1.0  0.0049999997822235045  0.004174301088017053  0.9986817784015173  1.0000
  V   V9        1.0  0.0049999997822235045  0.0008409678035698278  0.9990899205158086  1.0000
  V   V10       1.0  0.0049999997822235045  0.009174301014687889  0.9986817783714389  1.0000
  V   V11       1.0  0.0049999997822235045  0.005840967730240665  0.9990899204857302  1.0000
  V   V12       1.0  0.0049999997822235045  0.0025076344457934403  0.998885849458663  1.0000
  V   V13       1.0  0.007500000062221856  0.005007634592451766  0.9988858497073706  1.0000
  V   V14       1.0  0.007500000062221856  0.001674301124681634  0.9986817784165565  1.0000
  V   V15       1.0  0.007500000062221856  0.00834096787689899  0.9990899207344379  1.0000
  V   V16       1.0  0.0024999998911117522  0.005007634592451766  0.9988858497073706  1.0000
  V   V17       1.0  0.0024999998911117522  0.001674301124681634  0.9986817784165565  1.0000
  V   V18       1.0  0.0024999998911117522  0.00834096787689899  0.9990899207344379  1.0000
  Ir  Ir1       1.0  0.0049999997822235045  0.006674300868029564  0.9986817786614482  1.0000
  Ir  Ir2       1.0  0.0049999997822235045  0.0033409675835823394  0.9990899207757395  1.0000
  Ir  Ir3       1.0  0.0049999997822235045  7.634499644544216e-06  0.9988858497425346  1.0000
  Ir  Ir4       1.0  9.999999631895122e-11  0.006674300868029564  0.9989878852321276  1.0000
  Ir  Ir5       1.0  9.999999631895122e-11  0.0033409675835823394  0.9987838142050602  1.0000
  Ir  Ir6       1.0  9.999999631895122e-11  7.634499644544216e-06  0.9991919563132139  1.0000
  V   V19       1.0  9.999999631895122e-11  0.007507634739110091  0.9993450092733802  1.0000
  V   V20       1.0  0.009999994120034621  0.0041864762955561826  0.9997370029175784  1.0000
  V   V21       1.0  0.009999999564447009  0.0008437666860509863  0.9995516947460396  1.0000
  V   V22       1.0  9.999999631895122e-11  0.005840967730240665  0.9992429737710699  1.0000
  V   V23       1.0  2.099999911108252e-09  0.00257184714371765  0.9996499610612329  1.0000
  V   V24       1.0  9.999999631895122e-11  0.009174301014687889  0.9994470447981372  1.0000
  V   V25       1.0  0.0049999997822235045  0.007507634739110091  0.9994980625587199  1.0000
  V   V26       1.0  0.0049999997822235045  0.004174301088017053  0.9992939915428759  1.0000
  V   V27       1.0  0.005000000948883302  0.0009238677969936685  0.9997081557085923  1.0000
  V   V28       1.0  0.0049999997822235045  0.009174301014687889  0.9992939915127975  1.0000
  V   V29       1.0  0.004999980726780148  0.005913094294733018  0.9996946743712738  1.0000
  V   V30       1.0  0.0049999997822235045  0.0025076344457934403  0.9994980626000215  1.0000
  V   V31       1.0  0.007500000062221856  0.005007634592451766  0.9994980628487292  1.0000
  V   V32       1.0  0.007500000062221856  0.001674301124681634  0.9992939918272736  1.0000
  V   V33       1.0  0.007447398483051065  0.008386327830400088  0.9996925229391656  1.0000
  V   V34       1.0  0.0024999998911117522  0.005007634592451766  0.9994980628487292  1.0000
  V   V35       1.0  0.0024999998911117522  0.001674301124681634  0.9992939918272736  1.0000
  V   V36       1.0  0.0025525332206843966  0.008386328563691717  0.999692522378002  1.0000
  Ir  Ir7       1.0  0.0049999997822235045  0.006674300868029564  0.9992939918028069  1.0000
  Ir  Ir8       1.0  0.005000000948883302  0.0033547098353296856  0.9997000960290653  1.0000
  Ir  Ir9       1.0  0.0049999997822235045  7.634499644544216e-06  0.9994980628838932  1.0000
  Ir  Ir10      1.0  0.00999998089789025  0.006645602766891167  0.9996102045257786  1.0000
  Ir  Ir11      1.0  9.999999631895122e-11  0.0033409675835823394  0.9993960273464189  1.0000
  Ir  Ir12      1.0  0.009999996453354216  0.009992365554206559  0.9997862482146431  1.0000
