data_image0
_chemical_formula_structural       COCa8As24
_chemical_formula_sum              "C1 O1 Ca8 As24"
_cell_length_a       11.572686093180343
_cell_length_b       7.295944183718259
_cell_length_c       107.70220184326172
_cell_angle_alpha    90.45616885508231
_cell_angle_beta     85.83557600291248
_cell_angle_gamma    79.76500019641578

_space_group_name_H-M_alt    "P 1"
_space_group_IT_number       1

loop_
  _space_group_symop_operation_xyz
  'x, y, z'

loop_
  _atom_site_type_symbol
  _atom_site_label
  _atom_site_symmetry_multiplicity
  _atom_site_fract_x
  _atom_site_fract_y
  _atom_site_fract_z
  _atom_site_occupancy
  C   C1        1.0  0.004940750423836312  0.0052583988119141445  0.9999748677069775  1.0000
  O   O1        1.0  0.004940750423836312  0.0052583988119141445  8.628571430397368e-05  1.0000
  Ca  Ca1       1.0  0.008160670938886868  0.008972553357222827  0.9991040831233196  1.0000
  Ca  Ca2       1.0  0.003160671175074629  0.0014725529942784773  0.9993228702993504  1.0000
  Ca  Ca3       1.0  0.0031867827161407734  0.006416273066605941  0.9997553663159201  1.0000
  Ca  Ca4       1.0  0.008160670938886868  0.003972552928307398  0.9995416579402959  1.0000
  Ca  Ca5       1.0  0.006839328352549849  0.009400898597329857  0.9994634111050985  1.0000
  Ca  Ca6       1.0  0.0018393287527568886  0.0019008981880046332  0.9996821985565348  1.0000
  Ca  Ca7       1.0  0.0018393287527568886  0.006900898361613259  0.9992446240161312  1.0000
  Ca  Ca8       1.0  0.006924208329067957  0.003997934476687896  0.9998718068239237  1.0000
  As  As1       1.0  0.005079226651884602  0.006561244795345871  0.9994811007650966  1.0000
  As  As2       1.0  9.33133967550657e-05  0.009003134610029181  0.9996981538853841  1.0000
  As  As3       1.0  7.922669842507219e-05  0.0040612449149448355  0.9992623136790806  1.0000
  As  As4       1.0  0.005122614999610762  0.001523089584354417  0.9999448670887172  1.0000
  As  As5       1.0  8.439359785073127e-05  0.0015441611417565798  0.999939018522167  1.0000
  As  As6       1.0  0.004920773203778433  0.004312206448193913  0.9993051806366049  1.0000
  As  As7       1.0  0.004897468688641044  0.009532712810770515  0.9997649970936018  1.0000
  As  As8       1.0  0.009920772967590672  0.006812206637529637  0.9995239682776882  1.0000
  As  As9       1.0  0.007041277416990184  0.002743100177988291  0.999284240729184  1.0000
  As  As10      1.0  0.002041277653177945  0.00524309990695439  0.9995030278516517  1.0000
  As  As11      1.0  0.002096846400548913  0.0008513907201510188  0.9999840975701668  1.0000
  As  As12      1.0  0.006942153350267751  0.007731724004635211  0.9997233636953355  1.0000
  As  As13      1.0  0.007958722530523647  0.005630351243823646  0.9992832535474401  1.0000
  As  As14      1.0  0.0029587224386728506  0.0081303515761651  0.9995020412262138  1.0000
  As  As15      1.0  0.003143606609360728  0.0033588708817549376  0.999944160971039  1.0000
  As  As16      1.0  0.0079748292236523  0.00046728745254050007  0.9997199968450127  1.0000
  As  As17      1.0  0.005497049689454034  0.009238495739153635  0.9992102516117457  1.0000
  As  As18      1.0  0.0004970498026273359  0.001738495283341539  0.9994290390653967  1.0000
  As  As19      1.0  0.000541015293189  0.006757783495044142  0.9998657609550974  1.0000
  As  As20      1.0  0.005497049689454034  0.004238495310238206  0.9996478261520116  1.0000
  As  As21      1.0  0.009502950258059797  0.009134956029875553  0.9993572428881634  1.0000
  As  As22      1.0  0.004502950166209001  0.0016349560149997546  0.9995760297902311  1.0000
  As  As23      1.0  0.004502950166209001  0.006634955933301578  0.9991384552496898  1.0000
  As  As24      1.0  0.00951081924695532  0.004249654820626756  0.9998069616017022  1.0000
