data_image0
_chemical_formula_structural       HSi8V24
_chemical_formula_sum              "H1 Si8 V24"
_cell_length_a       6.66420841217041
_cell_length_b       8.161955594977561
_cell_length_c       100.90066528320312
_cell_angle_alpha    95.05115253774511
_cell_angle_beta     90.0
_cell_angle_gamma    90.0

_space_group_name_H-M_alt    "P 1"
_space_group_IT_number       1

loop_
  _space_group_symop_operation_xyz
  'x, y, z'

loop_
  _atom_site_type_symbol
  _atom_site_label
  _atom_site_symmetry_multiplicity
  _atom_site_fract_x
  _atom_site_fract_y
  _atom_site_fract_z
  _atom_site_occupancy
  H   H1        1.0  0.000787381639422424  0.005439323158657738  8.778595751165985e-05  1.0000
  Si  Si1       1.0  0.00019699150092542618  0.004085210370286002  2.909509431203963e-05  1.0000
  Si  Si2       1.0  0.005065502955167403  0.003405998370828863  0.9994688453242871  1.0000
  Si  Si3       1.0  6.550290433337125e-05  0.000280998405193917  0.9996602506502672  1.0000
  Si  Si4       1.0  0.005068371182470514  0.007097978595120533  0.9998463293627974  1.0000
  Si  Si5       1.0  6.550290433337125e-05  0.005280998315844778  0.9996602504871812  1.0000
  Si  Si6       1.0  0.005062194795124564  0.002098103143239321  0.9998463395685383  1.0000
  Si  Si7       1.0  0.009934497402592384  0.009085508970529  2.9087902257097293e-05  1.0000
  Si  Si8       1.0  0.005065502955167403  0.008405998224204634  0.9994688454561562  1.0000
  V   V1        1.0  0.0025655029887073836  0.005905998297516749  0.9994688453902216  1.0000
  V   V2        1.0  0.0075655032011272575  0.002780998389156892  0.9996602504212466  1.0000
  V   V3        1.0  0.0025514916619967087  0.009719001702483252  0.9998558519961713  1.0000
  V   V4        1.0  0.00774732287455983  0.0066055553251926  2.870781455185226e-05  1.0000
  V   V5        1.0  0.0025655029887073836  0.007780997784331946  0.9996602505498524  1.0000
  V   V6        1.0  0.007579475397861082  0.004718880884118297  0.9998558285551956  1.0000
  V   V7        1.0  0.0023836042168216076  0.0016057436777611746  2.8685984782549727e-05  1.0000
  V   V8        1.0  0.0075655032011272575  0.0009059983868658884  0.9994688452579447  1.0000
  V   V9        1.0  0.00881550304460735  0.004187248462469007  0.9994209939196652  1.0000
  V   V10       1.0  0.003815503111687311  0.0010622483250087916  0.9996123992444216  1.0000
  V   V11       1.0  0.008782751253983834  0.007886606634699457  0.9997997813665997  1.0000
  V   V12       1.0  0.003874822200093189  0.004621653899459649  0.9999810794697238  1.0000
  V   V13       1.0  0.0013155030054773737  0.00262474827918872  0.999516696728909  1.0000
  V   V14       1.0  0.0063155033576471654  0.009499748077580404  0.9997081017283093  1.0000
  V   V15       1.0  0.0013777717953881614  0.006418297398129591  0.999900928074928  1.0000
  V   V16       1.0  0.0063155033576471654  0.005749748187548576  0.999325291402521  1.0000
  V   V17       1.0  0.0063155033576471654  0.006062248407484921  0.9996123993779222  1.0000
  V   V18       1.0  0.001348345354047315  0.0028865852458900055  0.9997998011660376  1.0000
  V   V19       1.0  0.006256175604746413  0.009621630384598873  0.9999810705742733  1.0000
  V   V20       1.0  0.0013155030054773737  0.00918724785764406  0.9994209940482709  1.0000
  V   V21       1.0  0.00881550304460735  0.00762474813256449  0.9995166965654151  1.0000
  V   V22       1.0  0.003815503111687311  0.004499748224204634  0.9997081015964402  1.0000
  V   V23       1.0  0.008753637992207705  0.0014182006353022582  0.9999009378859322  1.0000
  V   V24       1.0  0.003815503111687311  0.0007497483914478955  0.9993252912710598  1.0000
