data_image0
_chemical_formula_structural       HCu6Ru2Cu6Ru2
_chemical_formula_sum              "H1 Cu12 Ru4"
_cell_length_a       5.301018238067627
_cell_length_b       5.301018270726782
_cell_length_c       99.72239685058594
_cell_angle_alpha    90.0
_cell_angle_beta     90.0
_cell_angle_gamma    60.00000020380163

_space_group_name_H-M_alt    "P 1"
_space_group_IT_number       1

loop_
  _space_group_symop_operation_xyz
  'x, y, z'

loop_
  _atom_site_type_symbol
  _atom_site_label
  _atom_site_symmetry_multiplicity
  _atom_site_fract_x
  _atom_site_fract_y
  _atom_site_fract_z
  _atom_site_occupancy
  H   H1        1.0  0.008755667881165568  0.004178001355342535  0.00015041742044527603  1.0000
  Cu  Cu1       1.0  0.00622166403113631  0.006712005177930417  0.0  1.0000
  Cu  Cu2       1.0  0.0012896710143898763  0.0016439975327546521  0.0  1.0000
  Cu  Cu3       1.0  0.0062216639762535594  0.0016439975327546521  0.0  1.0000
  Cu  Cu4       1.0  0.0029336688031986616  0.003287995268375739  0.9997871061961022  1.0000
  Cu  Cu5       1.0  0.007865661218628363  0.00835600271068507  0.9997871061961022  1.0000
  Cu  Cu6       1.0  0.0029336686081396545  0.00835600271068507  0.9997871061961022  1.0000
  Ru  Ru1       1.0  0.007910999879050492  0.003333333482102052  0.9997871061961022  1.0000
  Ru  Ru2       1.0  0.0012443329552844792  0.006666666964204104  0.0  1.0000
  Cu  Cu7       1.0  0.00622166403113631  0.006712005177930417  0.9995742123922045  1.0000
  Cu  Cu8       1.0  0.0012896710143898763  0.0016439975327546521  0.9995742123922045  1.0000
  Cu  Cu9       1.0  0.0062216639762535594  0.0016439975327546521  0.9995742123922045  1.0000
  Cu  Cu10      1.0  0.0029336688031986616  0.003287995268375739  0.9993613185883068  1.0000
  Cu  Cu11      1.0  0.007865661218628363  0.00835600271068507  0.9993613185883068  1.0000
  Cu  Cu12      1.0  0.0029336686081396545  0.00835600271068507  0.9993613185883068  1.0000
  Ru  Ru3       1.0  0.007910999879050492  0.003333333482102052  0.9993613185883068  1.0000
  Ru  Ru4       1.0  0.0012443329552844792  0.006666666964204104  0.9995742123922045  1.0000
