data_image0
_chemical_formula_structural       COFe2Ni2Fe2Ni2Fe2Ni2Fe2Ni2Fe2Ni2Fe2Ni2
_chemical_formula_sum              "C1 O1 Fe12 Ni12"
_cell_length_a       4.944888114929199
_cell_length_b       7.48513274187749
_cell_length_c       99.66932678222656
_cell_angle_alpha    109.28783447410677
_cell_angle_beta     90.0
_cell_angle_gamma    90.0

_space_group_name_H-M_alt    "P 1"
_space_group_IT_number       1

loop_
  _space_group_symop_operation_xyz
  'x, y, z'

loop_
  _atom_site_type_symbol
  _atom_site_label
  _atom_site_symmetry_multiplicity
  _atom_site_fract_x
  _atom_site_fract_y
  _atom_site_fract_z
  _atom_site_occupancy
  C   C1        1.0  0.002500000007533619  0.007087682475408972  0.0001064597629491456  1.0000
  O   O1        1.0  0.002500000007533619  0.007087682475408972  0.00022685753327089894  1.0000
  Fe  Fe1       1.0  0.0  0.0012497293430480318  0.9995633146467389  1.0000
  Fe  Fe2       1.0  0.0  0.006249729501234444  0.9994392824734913  1.0000
  Ni  Ni1       1.0  0.002500000007533619  0.0037497292903192272  0.9995012985568451  1.0000
  Ni  Ni2       1.0  0.002500000007533619  0.008749729184861619  0.9993772663770575  1.0000
  Fe  Fe3       1.0  0.0  0.0013380457399597607  0.9998137670353766  1.0000
  Fe  Fe4       1.0  0.0  0.006249729501234444  0.9996873469952812  1.0000
  Ni  Ni3       1.0  0.002500000007533619  0.0037497292903192272  0.9997493633776469  1.0000
  Ni  Ni4       1.0  0.002500000007533619  0.008749729184861619  0.9996253308988473  1.0000
  Fe  Fe5       1.0  0.010000000030134477  0.0013806375633758042  3.4248742810708235e-05  1.0000
  Fe  Fe6       1.0  0.0  0.006277886682678225  0.9999223458780198  1.0000
  Ni  Ni5       1.0  0.002500000007533619  0.003941198915068998  0.9999979785595483  1.0000
  Ni  Ni6       1.0  0.002500000007533619  0.008750270709680772  0.9998757103491381  1.0000
  Fe  Fe7       1.0  0.005000000015067238  0.0012497293430480318  0.9995633146467389  1.0000
  Fe  Fe8       1.0  0.005000000015067238  0.006249729501234444  0.9994392824734913  1.0000
  Ni  Ni7       1.0  0.007500000210941332  0.0037497292903192272  0.9995012985568451  1.0000
  Ni  Ni8       1.0  0.007500000210941332  0.008749729184861619  0.9993772663770575  1.0000
  Fe  Fe9       1.0  0.005000000015067238  0.0013380457399597607  0.9998137670353766  1.0000
  Fe  Fe10      1.0  0.005000000015067238  0.006249729501234444  0.9996873469952812  1.0000
  Ni  Ni9       1.0  0.007500000210941332  0.0037497292903192272  0.9997493633776469  1.0000
  Ni  Ni10      1.0  0.007500000210941332  0.008749729184861619  0.9996253308988473  1.0000
  Fe  Fe11      1.0  0.005000000015067238  0.0013806375633758042  3.4248742810708235e-05  1.0000
  Fe  Fe12      1.0  0.005000000015067238  0.006277886682678225  0.9999223458780198  1.0000
  Ni  Ni11      1.0  0.007500000210941332  0.003941198915068998  0.9999979785595483  1.0000
  Ni  Ni12      1.0  0.007500000210941332  0.008750270709680772  0.9998757103491381  1.0000
