data_image0
_chemical_formula_structural       COV2Pt2V2Pt2V2Pt2V2Pt2
_chemical_formula_sum              "C1 O1 V8 Pt8"
_cell_length_a       5.428249835968018
_cell_length_b       4.819263458251953
_cell_length_c       100.90514373779297
_cell_angle_alpha    90.0
_cell_angle_beta     90.0
_cell_angle_gamma    90.0

_space_group_name_H-M_alt    "P 1"
_space_group_IT_number       1

loop_
  _space_group_symop_operation_xyz
  'x, y, z'

loop_
  _atom_site_type_symbol
  _atom_site_label
  _atom_site_symmetry_multiplicity
  _atom_site_fract_x
  _atom_site_fract_y
  _atom_site_fract_z
  _atom_site_occupancy
  C   C1        1.0  0.002499998764698984  0.0016667880482684407  0.0001555164808448069  1.0000
  O   O1        1.0  0.002499998764698984  0.0016667880482684407  0.0002744397018971727  1.0000
  V   V1        1.0  1.1999999702925755e-09  0.008333212075411548  0.9993418875094616  1.0000
  V   V2        1.0  1.1999999702925755e-09  0.0017458796614863881  0.999560658188679  1.0000
  Pt  Pt1       1.0  0.0025000011666731817  0.003224288980444512  0.9993418875094616  1.0000
  Pt  Pt2       1.0  0.0025000011666731817  0.006854802563203442  0.999560658188679  1.0000
  V   V3        1.0  3.099999909620694e-09  0.008264213328982436  0.999789216467666  1.0000
  V   V4        1.0  0.009999999176465988  0.0016667880482684407  0.9999838650358968  1.0000
  Pt  Pt3       1.0  0.0025000004803948394  0.003205694273965323  0.9997754271723329  1.0000
  Pt  Pt4       1.0  0.002499998764698984  0.006878416937954599  0.0  1.0000
  V   V5        1.0  0.0050000013039288495  0.008333212075411548  0.9993418875094616  1.0000
  V   V6        1.0  0.0050000013039288495  0.0017458796614863881  0.999560658188679  1.0000
  Pt  Pt5       1.0  0.007500001098045347  0.003224288980444512  0.9993418875094616  1.0000
  Pt  Pt6       1.0  0.007500001098045347  0.006854802563203442  0.999560658188679  1.0000
  V   V7        1.0  0.005000003019624706  0.008264213328982436  0.999789216467666  1.0000
  V   V8        1.0  0.004999998901954652  0.0016667880482684407  0.9999838650358968  1.0000
  Pt  Pt7       1.0  0.007500000411767005  0.003205694273965323  0.9997754271723329  1.0000
  Pt  Pt8       1.0  0.00749999903921032  0.006878416937954599  0.0  1.0000
