data_image0
_chemical_formula_structural       COAl9Pd6Al9Pd6
_chemical_formula_sum              "C1 O1 Al18 Pd12"
_cell_length_a       5.2529497146606445
_cell_length_b       11.290213987876083
_cell_length_c       99.87110137939453
_cell_angle_alpha    79.10660568158991
_cell_angle_beta     90.0
_cell_angle_gamma    90.0

_space_group_name_H-M_alt    "P 1"
_space_group_IT_number       1

loop_
  _space_group_symop_operation_xyz
  'x, y, z'

loop_
  _atom_site_type_symbol
  _atom_site_label
  _atom_site_symmetry_multiplicity
  _atom_site_fract_x
  _atom_site_fract_y
  _atom_site_fract_z
  _atom_site_occupancy
  C   C1        1.0  0.008255512387445655  0.003528538319501027  0.999889512074862  1.0000
  O   O1        1.0  0.008255512387445655  0.003528538319501027  9.667196343116806e-06  1.0000
  Al  Al1       1.0  0.0007607304606660497  0.007209297570148816  0.9992217408876464  1.0000
  Al  Al2       1.0  0.0007607304606660497  0.0038759645459467314  0.9990793139968582  1.0000
  Al  Al3       1.0  0.0007607304606660497  0.000542631101729363  0.9993641677914675  1.0000
  Al  Al4       1.0  0.004310415598924279  0.006098186450077378  0.9990318383676351  1.0000
  Al  Al5       1.0  0.004310415598924279  0.0027648532578691807  0.9993166921568605  1.0000
  Al  Al6       1.0  0.004310415598924279  0.00943151981029169  0.9991742652512446  1.0000
  Al  Al7       1.0  0.007211046017404859  0.008320408690220252  0.9994116434076576  1.0000
  Al  Al8       1.0  0.007211046017404859  0.004987075666018168  0.9992692165168695  1.0000
  Al  Al9       1.0  0.007211046017404859  0.0016537421377977434  0.9991267896368492  1.0000
  Pd  Pd1       1.0  0.00918060379686016  0.006098186450077378  0.9990318383676351  1.0000
  Pd  Pd2       1.0  0.00918060379686016  0.0027648532578691807  0.9993166921568605  1.0000
  Pd  Pd3       1.0  0.00918060379686016  0.00943151981029169  0.9991742652512446  1.0000
  Pd  Pd4       1.0  0.002340857819468976  0.008320408690220252  0.9994116434076576  1.0000
  Pd  Pd5       1.0  0.002340857819468976  0.004987075666018168  0.9992692165168695  1.0000
  Pd  Pd6       1.0  0.002340857819468976  0.0016537421377977434  0.9991267896368492  1.0000
  Al  Al10      1.0  0.0010791885638957923  0.007163671813879376  0.9996558856920527  1.0000
  Al  Al11      1.0  0.0007607304606660497  0.0038759645459467314  0.9995065946732824  1.0000
  Al  Al12      1.0  0.000841501172553615  0.0005827192924930848  0.9997910259073721  1.0000
  Al  Al13      1.0  0.004310415598924279  0.006098186450077378  0.9994591190440594  1.0000
  Al  Al14      1.0  0.004330867659719283  0.0028210981765578774  0.9997337503449707  1.0000
  Al  Al15      1.0  0.0042496186054826  0.009457369230922741  0.9995929092137642  1.0000
  Al  Al16      1.0  0.007115524347975906  0.00840124180764557  0.9998205155658253  1.0000
  Al  Al17      1.0  0.0072717540086748335  0.004908946774996579  0.9996884985236592  1.0000
  Al  Al18      1.0  0.007253811738203818  0.0016484732980706512  0.999556300379184  1.0000
  Pd  Pd7       1.0  0.00918060379686016  0.006098186450077378  0.9994591190440594  1.0000
  Pd  Pd8       1.0  0.009239270057035825  0.0027386117109690993  0.999737303632829  1.0000
  Pd  Pd9       1.0  0.00912563591377961  0.009433771092213281  0.9995951286136765  1.0000
  Pd  Pd10      1.0  0.002280752809047538  0.00842582244610708  0.9998285499554466  1.0000
  Pd  Pd11      1.0  0.0023868501349349515  0.004968703525476845  0.9996900024427875  1.0000
  Pd  Pd12      1.0  0.0024103438715422166  0.0016412959088936126  0.999547535499658  1.0000
