data_image0
_chemical_formula_structural       COCo2Sb2Co2Sb2Co2Sb2Co2Sb2Co2Sb2Co2Sb2Co2Sb2Co2Sb2
_chemical_formula_sum              "C1 O1 Co16 Sb16"
_cell_length_a       7.801914973697138
_cell_length_b       7.801915168762207
_cell_length_c       101.45108032226562
_cell_angle_alpha    90.0
_cell_angle_beta     90.0
_cell_angle_gamma    119.99999880530027

_space_group_name_H-M_alt    "P 1"
_space_group_IT_number       1

loop_
  _space_group_symop_operation_xyz
  'x, y, z'

loop_
  _atom_site_type_symbol
  _atom_site_label
  _atom_site_symmetry_multiplicity
  _atom_site_fract_x
  _atom_site_fract_y
  _atom_site_fract_z
  _atom_site_occupancy
  C   C1        1.0  0.004164929340867748  0.001666147246818818  0.00017072715308320515  1.0000
  O   O1        1.0  0.004164929340867748  0.001666147246818818  0.0002890110026053221  1.0000
  Co  Co1       1.0  0.0008333332607387675  0.002500348644861636  0.9996145480053011  1.0000
  Co  Co2       1.0  0.000834935280375019  0.0025011513258250914  0.9998721812714308  1.0000
  Sb  Sb1       1.0  0.004164929340867748  0.004166147299342067  0.0  1.0000
  Sb  Sb2       1.0  0.002498603967903848  0.0008329845814153185  0.9997477543018572  1.0000
  Co  Co3       1.0  0.0008333332607387675  0.002500348644861636  0.9990978608471538  1.0000
  Co  Co4       1.0  0.0008333332607387675  0.002500348644861636  0.9993562044262275  1.0000
  Sb  Sb3       1.0  0.004166666648288296  0.004167015236773127  0.9994853762157644  1.0000
  Sb  Sb4       1.0  0.0024999999889729774  0.0008336820248948753  0.9992270326366907  1.0000
  Co  Co5       1.0  0.0008333332607387675  0.007500348272424052  0.9996145480053011  1.0000
  Co  Co6       1.0  0.000834935280375019  0.007501151192129548  0.9998721812714308  1.0000
  Sb  Sb5       1.0  0.004164929340867748  0.009166147165646524  0.0  1.0000
  Sb  Sb6       1.0  0.002498603967903848  0.00583298435819151  0.9997477543018572  1.0000
  Co  Co7       1.0  0.0008333332607387675  0.007500348272424052  0.9990978608471538  1.0000
  Co  Co8       1.0  0.0008333332607387675  0.007500348272424052  0.9993562044262275  1.0000
  Sb  Sb7       1.0  0.004166666648288296  0.009167014864335543  0.9994853762157644  1.0000
  Sb  Sb8       1.0  0.0024999999889729774  0.0058336818911993325  0.9992270326366907  1.0000
  Co  Co9       1.0  0.0058333330319280475  0.002500348414666393  0.9996145480053011  1.0000
  Co  Co10      1.0  0.005834935258320973  0.0025011513183791994  0.9998721812714308  1.0000
  Sb  Sb9       1.0  0.009164929043138136  0.004166146975001869  0.0  1.0000
  Sb  Sb10      1.0  0.007498603670174236  0.0008329842570751214  0.9997477543018572  1.0000
  Co  Co11      1.0  0.0058333330319280475  0.002500348414666393  0.9990978608471538  1.0000
  Co  Co12      1.0  0.0058333330319280475  0.002500348414666393  0.9993562044262275  1.0000
  Sb  Sb11      1.0  0.009166666350558683  0.004167014972118441  0.9994853762157644  1.0000
  Sb  Sb12      1.0  0.007499999691243365  0.0008336817900829436  0.9992270326366907  1.0000
  Co  Co13      1.0  0.0058333330319280475  0.007500348310813605  0.9996145480053011  1.0000
  Co  Co14      1.0  0.005834935258320973  0.007501151333897432  0.9998721812714308  1.0000
  Sb  Sb13      1.0  0.009164929043138136  0.00916614669209255  0.0  1.0000
  Sb  Sb14      1.0  0.007498603670174236  0.0058329841233795785  0.9997477543018572  1.0000
  Co  Co15      1.0  0.0058333330319280475  0.007500348310813605  0.9990978608471538  1.0000
  Co  Co16      1.0  0.0058333330319280475  0.007500348310813605  0.9993562044262275  1.0000
  Sb  Sb15      1.0  0.009166666350558683  0.009167014868265653  0.9994853762157644  1.0000
  Sb  Sb16      1.0  0.007499999691243365  0.0058336816563874004  0.9992270326366907  1.0000
