data_image0
_chemical_formula_structural       HNi40Mo10
_chemical_formula_sum              "H1 Ni40 Mo10"
_cell_length_a       8.161762237548828
_cell_length_b       9.208320131608765
_cell_length_c       105.66193389892578
_cell_angle_alpha    95.2865997399601
_cell_angle_beta     90.0
_cell_angle_gamma    63.69347734745643

_space_group_name_H-M_alt    "P 1"
_space_group_IT_number       1

loop_
  _space_group_symop_operation_xyz
  'x, y, z'

loop_
  _atom_site_type_symbol
  _atom_site_label
  _atom_site_symmetry_multiplicity
  _atom_site_fract_x
  _atom_site_fract_y
  _atom_site_fract_z
  _atom_site_occupancy
  H   H1        1.0  0.008096058915996757  0.004418515584176277  7.989826842337317e-05  1.0000
  Ni  Ni1       1.0  0.0014040821550761653  0.00379829738597799  3.04991836291393e-05  1.0000
  Ni  Ni2       1.0  0.009404082499406437  0.0077982974458660915  0.9993554795771018  1.0000
  Ni  Ni3       1.0  0.0034040826949663654  0.009798296908687965  0.9998617443541991  1.0000
  Ni  Ni4       1.0  0.007404082471293378  0.0017982973560339388  0.9995242341199245  1.0000
  Ni  Ni5       1.0  0.005404082611485981  0.005798297075648734  0.9996929892366064  1.0000
  Ni  Ni6       1.0  0.005004848722877631  0.0046051078547695665  0.9998943459745037  1.0000
  Ni  Ni7       1.0  0.0030048485795091447  0.00860510814150654  0.9992193260877443  1.0000
  Ni  Ni8       1.0  0.0070048486677533545  0.0006051079650181183  0.9997255908564556  1.0000
  Ni  Ni9       1.0  0.0010048483798922507  0.0026051079382499514  0.9993880811937634  1.0000
  Ni  Ni10      1.0  0.009004849294079062  0.006605107771289182  0.9995568360293025  1.0000
  Ni  Ni11      1.0  0.0006133955947721004  0.0014008683417279272  1.3189643174683667e-05  1.0000
  Ni  Ni12      1.0  0.00861339576759854  0.0054008682881915935  0.9993381700357367  1.0000
  Ni  Ni13      1.0  0.002613395736309596  0.007400868204711209  0.9998444348164769  1.0000
  Ni  Ni14      1.0  0.006613395624230053  0.009400868574928566  0.9995069248749188  1.0000
  Ni  Ni15      1.0  0.004613395652829211  0.003400868371671978  0.9996756796988843  1.0000
  Ni  Ni16      1.0  0.007795535028197477  0.003002536952555963  0.9997429003964547  1.0000
  Ni  Ni17      1.0  0.005795534998253427  0.0070025370124440645  0.9999116549517618  1.0000
  Ni  Ni18      1.0  0.009795535339871625  0.009002536475265938  0.9995741455670246  1.0000
  Ni  Ni19      1.0  0.0037955349701403666  0.0010025369226119123  0.9992366356148037  1.0000
  Ni  Ni20      1.0  0.001795534883484098  0.005002537095924449  0.9994053904530751  1.0000
  Ni  Ni21      1.0  0.007404082471293378  0.0017982973560339388  0.9999461213418686  1.0000
  Ni  Ni22      1.0  0.005404082611485981  0.005798297075648734  0.9992711020146625  1.0000
  Ni  Ni23      1.0  0.009404082499406437  0.0077982974458660915  0.9997773665169922  1.0000
  Ni  Ni24      1.0  0.0034040826949663654  0.009798296908687965  0.9994398568502015  1.0000
  Ni  Ni25      1.0  0.0014040821550761653  0.00379829738597799  0.9996086119616852  1.0000
  Ni  Ni26      1.0  0.0010048483798922507  0.0026051079382499514  0.9998099681336539  1.0000
  Ni  Ni27      1.0  0.009004849294079062  0.006605107771289182  0.9999787232512465  1.0000
  Ni  Ni28      1.0  0.0030048485795091447  0.00860510814150654  0.9996412133096884  1.0000
  Ni  Ni29      1.0  0.0070048486677533545  0.0006051079650181183  0.9993037036345117  1.0000
  Ni  Ni30      1.0  0.005004848722877631  0.0046051078547695665  0.9994724587525597  1.0000
  Ni  Ni31      1.0  0.00861339576759854  0.0054008682881915935  0.9997600575397341  1.0000
  Ni  Ni32      1.0  0.006613395624230053  0.009400868574928566  0.9999288120968627  1.0000
  Ni  Ni33      1.0  0.0006133955947721004  0.0014008683417279272  0.9995913024212307  1.0000
  Ni  Ni34      1.0  0.004613395652829211  0.003400868371671978  0.9992537927589938  1.0000
  Ni  Ni35      1.0  0.002613395736309596  0.007400868204711209  0.999422547594533  1.0000
  Ni  Ni36      1.0  0.007795535028197477  0.003002536952555963  0.9993210128924572  1.0000
  Ni  Ni37      1.0  0.005795534998253427  0.0070025370124440645  0.9994897677298179  1.0000
  Ni  Ni38      1.0  0.009795535339871625  0.009002536475265938  0.9999960327889686  1.0000
  Ni  Ni39      1.0  0.0037955349701403666  0.0010025369226119123  0.9996585225546941  1.0000
  Ni  Ni40      1.0  0.001795534883484098  0.005002537095924449  0.999827277675019  1.0000
  Mo  Mo1       1.0  0.008204465454610226  0.004201702506949343  0.9995405350741582  1.0000
  Mo  Mo2       1.0  0.00620446531124174  0.008201702793686316  0.9997092901953938  1.0000
  Mo  Mo3       1.0  0.00020446521072261715  0.00020170264555400313  0.9993717802383913  1.0000
  Mo  Mo4       1.0  0.004204465339840898  0.0022017025904297275  0.9998780450193593  1.0000
  Mo  Mo5       1.0  0.0022044654233212826  0.006201702423468958  0.9992030254110105  1.0000
  Mo  Mo6       1.0  0.008204465454610226  0.004201702506949343  0.9999624222961021  1.0000
  Mo  Mo7       1.0  0.00620446531124174  0.008201702793686316  0.9992874029734499  1.0000
  Mo  Mo8       1.0  0.00020446521072261715  0.00020170264555400313  0.9997936677423889  1.0000
  Mo  Mo9       1.0  0.004204465339840898  0.0022017025904297275  0.9994561577974154  1.0000
  Mo  Mo10      1.0  0.0022044654233212826  0.006201702423468958  0.9996249123509009  1.0000
