data_image0
_chemical_formula_structural       COGa6Ni12V6
_chemical_formula_sum              "C1 O1 Ga6 Ni12 V6"
_cell_length_a       5.84473991394043
_cell_length_b       7.158314920460866
_cell_length_c       101.47488403320312
_cell_angle_alpha    94.34775342992084
_cell_angle_beta     90.0
_cell_angle_gamma    114.09484367520967

_space_group_name_H-M_alt    "P 1"
_space_group_IT_number       1

loop_
  _space_group_symop_operation_xyz
  'x, y, z'

loop_
  _atom_site_type_symbol
  _atom_site_label
  _atom_site_symmetry_multiplicity
  _atom_site_fract_x
  _atom_site_fract_y
  _atom_site_fract_z
  _atom_site_occupancy
  C   C1        1.0  0.0036447104425453313  0.002073999730829058  0.0001788133930229974  1.0000
  O   O1        1.0  0.0036447104425453313  0.002073999730829058  0.0002970689084481132  1.0000
  Ga  Ga1       1.0  0.0006444075023823458  0.0010650785018912628  0.9993710508975863  1.0000
  Ga  Ga2       1.0  0.008930656486571924  0.007638799825273204  0.9999040359441043  1.0000
  Ga  Ga3       1.0  0.0048110743030509604  0.009398412302408137  0.9996295293783194  1.0000
  Ga  Ga4       1.0  0.00772774080043681  0.005231745330642015  0.9995002901375704  1.0000
  Ga  Ga5       1.0  0.006054875343054841  0.0018925283869718921  1.0120921189252166e-05  1.0000
  Ga  Ga6       1.0  0.001889631619301147  0.0035547691360330344  0.9997484498413909  1.0000
  Ni  Ni1       1.0  0.0047334310522935425  0.0046993300025137755  0.9999381450513414  1.0000
  Ni  Ni2       1.0  0.0008527409609292028  0.006481745422171851  0.9996941489967359  1.0000
  Ni  Ni3       1.0  0.006686074119453728  0.0081484122108783  0.9994356705191538  1.0000
  Ni  Ni4       1.0  0.00018892605912323613  0.004701374550231538  0.9999381430628052  1.0000
  Ni  Ni5       1.0  0.0058527408844442205  0.006481745422171851  0.9996941489967359  1.0000
  Ni  Ni6       1.0  0.0016860743552824273  0.0081484122108783  0.9994356705191538  1.0000
  Ni  Ni7       1.0  0.00960274039774197  0.003981745239112178  0.9993064312784049  1.0000
  Ni  Ni8       1.0  0.008084904680317357  0.0006028448913564642  0.9998228443973723  1.0000
  Ni  Ni9       1.0  0.003769407470068843  0.002315078593421099  0.9995649097567517  1.0000
  Ni  Ni10      1.0  0.004602740792914383  0.003981745239112178  0.9993064312784049  1.0000
  Ni  Ni11      1.0  0.0027412740568811132  0.0006015881437998166  0.9998229786484736  1.0000
  Ni  Ni12      1.0  0.00876940707489643  0.002315078593421099  0.9995649097567517  1.0000
  V   V1        1.0  0.002727740866962811  0.005231745330642015  0.9995002901375704  1.0000
  V   V2        1.0  0.0010136638873249368  0.0018137081835417053  4.946886410421652e-06  1.0000
  V   V3        1.0  0.006906669446095361  0.0035900092671213336  0.999758000013503  1.0000
  V   V4        1.0  0.005644407386061433  0.0010650785018912628  0.9993710508975863  1.0000
  V   V5        1.0  0.0040374133832585864  0.007852582059427175  0.9998889198601862  1.0000
  V   V6        1.0  0.00981107428631987  0.009398412302408137  0.9996295293783194  1.0000
