data_image0
_chemical_formula_structural       COCu4Au4Se16
_chemical_formula_sum              "C1 O1 Cu4 Au4 Se16"
_cell_length_a       11.262386679273908
_cell_length_b       4.500930371016563
_cell_length_c       103.78715515136719
_cell_angle_alpha    87.45214669764366
_cell_angle_beta     94.91693862141997
_cell_angle_gamma    92.54785322339585

_space_group_name_H-M_alt    "P 1"
_space_group_IT_number       1

loop_
  _space_group_symop_operation_xyz
  'x, y, z'

loop_
  _atom_site_type_symbol
  _atom_site_label
  _atom_site_symmetry_multiplicity
  _atom_site_fract_x
  _atom_site_fract_y
  _atom_site_fract_z
  _atom_site_occupancy
  C   C1        1.0  0.0038318038845218303  0.0018989768522845606  8.596977623160443e-05  1.0000
  O   O1        1.0  0.0038318038845218303  0.0018989768522845606  0.00020159068034588605  1.0000
  Cu  Cu1       1.0  0.005734876820486831  0.0061052378681349636  0.9998855895977019  1.0000
  Cu  Cu2       1.0  0.0002500085829075791  0.004817311743092329  0.9993627124661896  1.0000
  Cu  Cu3       1.0  0.0061586101596979165  0.004222083501037971  0.9992641161506766  1.0000
  Cu  Cu4       1.0  0.0010193352409922818  0.004349343015803187  0.9997995516464473  1.0000
  Au  Au1       1.0  0.008281874165546406  0.009401409270866046  0.999866691030051  1.0000
  Au  Au2       1.0  0.0032043096412734187  0.009519697599866062  0.9993134143353944  1.0000
  Au  Au3       1.0  0.005704309162802321  0.009519697998494  0.9995847000127948  1.0000
  Au  Au4       1.0  0.0007043095382692242  0.0095196979704753  0.999042128651103  1.0000
  Se  Se1       1.0  0.004205850990724381  0.008595730387230667  0.99975482377281  1.0000
  Se  Se2       1.0  0.009186260297335975  0.00855909247935071  0.9992098571990035  1.0000
  Se  Se3       1.0  0.004749991249295265  0.00048030256756059373  0.9991486842156293  1.0000
  Se  Se4       1.0  0.009749990956896262  0.00048030257370379475  0.9996912555781359  1.0000
  Se  Se5       1.0  0.007222358400412855  0.000480302582083256  0.9994169714809703  1.0000
  Se  Se6       1.0  0.0016694969694066007  0.008007565369549037  0.99995106696955  1.0000
  Se  Se7       1.0  0.007118400586380152  0.00752986872468477  5.169139606164796e-05  1.0000
  Se  Se8       1.0  0.001658627700979977  0.008559093038755529  0.9994781441153217  1.0000
  Se  Se9       1.0  0.007621039790422004  0.005222504704405291  0.9991054216829341  1.0000
  Se  Se10      1.0  0.0026210400828210077  0.005222504667921874  0.9996479929877894  1.0000
  Se  Se11      1.0  0.0037875788674542345  0.0038168908044927583  0.9989788356305681  1.0000
  Se  Se12      1.0  0.008787578907326826  0.0038168906677124915  0.9995214067092921  1.0000
  Se  Se13      1.0  0.004789008573649164  0.005994468552970458  0.9994127374547953  1.0000
  Se  Se14      1.0  0.00974328970336153  0.005952461061976698  0.9999869313786086  1.0000
  Se  Se15      1.0  0.006715144481046421  0.0027546340380772308  0.9997581583837797  1.0000
  Se  Se16      1.0  0.001619610210490281  0.0030449266953922007  0.999214091162449  1.0000
