data_image0
_chemical_formula_structural       HGe12Os6
_chemical_formula_sum              "H1 Ge12 Os6"
_cell_length_a       4.840352367126024
_cell_length_b       8.329801371343358
_cell_length_c       99.65281677246094
_cell_angle_alpha    82.57675129179654
_cell_angle_beta     88.10395125176713
_cell_angle_gamma    84.35544143561167

_space_group_name_H-M_alt    "P 1"
_space_group_IT_number       1

loop_
  _space_group_symop_operation_xyz
  'x, y, z'

loop_
  _atom_site_type_symbol
  _atom_site_label
  _atom_site_symmetry_multiplicity
  _atom_site_fract_x
  _atom_site_fract_y
  _atom_site_fract_z
  _atom_site_occupancy
  H   H1        1.0  0.006069974612799424  0.009025957180033985  1.491085343114394e-05  1.0000
  Ge  Ge1       1.0  0.004974676783779468  0.00793184522908601  0.9992419727175241  1.0000
  Ge  Ge2       1.0  0.006641343909672431  0.009598511279604264  0.9994899403898047  1.0000
  Ge  Ge3       1.0  0.008488235355190324  0.0013777975530006516  0.9997303107902595  1.0000
  Ge  Ge4       1.0  0.0014872184378348498  0.008690258684909068  0.999450492906419  1.0000
  Ge  Ge5       1.0  0.0032922335129089396  0.00040148813822609683  0.9997017005890599  1.0000
  Ge  Ge6       1.0  0.006375940896973933  0.0020610429412965107  0.9999542636486672  1.0000
  Ge  Ge7       1.0  0.00935947053049105  0.0073434280262107505  0.9997655704396589  1.0000
  Ge  Ge8       1.0  0.005821366206112026  0.003886236955920656  0.9992659662246585  1.0000
  Ge  Ge9       1.0  0.00748803248851904  0.005552903459489214  0.9995139338934019  1.0000
  Ge  Ge10      1.0  0.005216020329107852  0.006326301101029667  0.9999263432915912  1.0000
  Ge  Ge11      1.0  0.0006405292498930905  0.002735867483612772  0.9994264992736077  1.0000
  Ge  Ge12      1.0  0.0023353460906243807  0.004451983068589583  0.9996797316416725  1.0000
  Os  Os1       1.0  0.00388470952341706  0.0008810191180450182  0.9992836768386496  1.0000
  Os  Os2       1.0  0.005551376163313788  0.0025476857915074395  0.9995316445049838  1.0000
  Os  Os3       1.0  0.007198154117418338  0.00433439069112541  0.9997711251549679  1.0000
  Os  Os4       1.0  0.004305286201370075  0.007453552322482279  0.9996532235047745  1.0000
  Os  Os5       1.0  0.006144248271106695  0.009292686921451139  0.9998897700519743  1.0000
  Os  Os6       1.0  0.002577186056381874  0.005741085151594546  0.9994087886612525  1.0000
