data_image0
_chemical_formula_structural       HOs8Si16
_chemical_formula_sum              "H1 Os8 Si16"
_cell_length_a       6.539453506469727
_cell_length_b       6.539453459701767
_cell_length_c       36.897762298583984
_cell_angle_alpha    90.0
_cell_angle_beta     90.0
_cell_angle_gamma    102.79129407179683

_space_group_name_H-M_alt    "P 1"
_space_group_IT_number       1

loop_
  _space_group_symop_operation_xyz
  'x, y, z'

loop_
  _atom_site_type_symbol
  _atom_site_label
  _atom_site_symmetry_multiplicity
  _atom_site_fract_x
  _atom_site_fract_y
  _atom_site_fract_z
  _atom_site_occupancy
  H   H1        1.0  0.0004999368930943521  0.006853585733371956  0.0003322340654877469  1.0000
  Os  Os1       1.0  0.002360346548251761  0.0016798796130211109  0.9996435308961918  1.0000
  Os  Os2       1.0  0.0033593858063349405  0.003014019169508898  0.9985261688207229  1.0000
  Os  Os3       1.0  0.0071720807679528185  0.00697457306618228  0.9993372946742615  1.0000
  Os  Os4       1.0  0.008359385900067826  0.008014019181192118  0.9982231318984687  1.0000
  Os  Os5       1.0  0.0030923747411645613  0.007055534857044499  0.9989353589262403  1.0000
  Os  Os6       1.0  0.0023457353122488815  0.007937383686539182  0.0  1.0000
  Os  Os7       1.0  0.007400901340757005  0.0027470082405766706  0.9989353589262403  1.0000
  Os  Os8       1.0  0.0065985358192590295  0.0018671016002963837  2.847344403897761e-05  1.0000
  Si  Si1       1.0  0.0008778242154910159  0.008094195275537798  0.9994321129996587  1.0000
  Si  Si2       1.0  0.004500062930009247  0.006692944384996069  0.9983173060831207  1.0000
  Si  Si3       1.0  0.003349979986840003  0.00565816922117303  0.9995684123736486  1.0000
  Si  Si4       1.0  0.002038310770353447  0.009154696304707938  0.9984319946360708  1.0000
  Si  Si5       1.0  0.009500062610257294  0.001692944227272605  0.9984319946360708  1.0000
  Si  Si6       1.0  0.005968326530188263  0.0034082723349323704  0.9995113746193213  1.0000
  Si  Si7       1.0  0.007038310929097363  0.004154696293024718  0.9983173060831207  1.0000
  Si  Si8       1.0  0.00846731611904335  0.0008963292308985155  0.9995111848098227  1.0000
  Si  Si9       1.0  0.004302606158336339  0.0013962842078593933  0.9979443804957846  1.0000
  Si  Si10      1.0  0.001190670082350912  0.0034062587320383116  0.9990657980329235  1.0000
  Si  Si11      1.0  0.00674165066572489  0.008957239378962667  0.998804920223407  1.0000
  Si  Si12      1.0  0.008654138315858104  0.005769787780204731  0.9999966496604248  1.0000
  Si  Si13      1.0  0.006179743879142888  0.008159682642070567  0.9999530140720982  1.0000
  Si  Si14      1.0  0.009302605650072012  0.006396284073502369  0.998804920223407  1.0000
  Si  Si15      1.0  0.003751625241447355  0.000845303572618257  0.9990657980329235  1.0000
  Si  Si16      1.0  0.0017416507856159503  0.003957239367279449  0.9979443804957846  1.0000
