data_image0
_chemical_formula_structural       COPt6Rh18Pt6Rh18
_chemical_formula_sum              "C1 O1 Pt12 Rh36"
_cell_length_a       8.690189778529545
_cell_length_b       8.669592085125092
_cell_length_c       108.47310638427734
_cell_angle_alpha    108.48033030586807
_cell_angle_beta     71.56505117707799
_cell_angle_gamma    78.43525289284918

_space_group_name_H-M_alt    "P 1"
_space_group_IT_number       1

loop_
  _space_group_symop_operation_xyz
  'x, y, z'

loop_
  _atom_site_type_symbol
  _atom_site_label
  _atom_site_symmetry_multiplicity
  _atom_site_fract_x
  _atom_site_fract_y
  _atom_site_fract_z
  _atom_site_occupancy
  C   C1        1.0  0.0030384889711461732  0.005901262790334077  7.252608259426457e-05  1.0000
  O   O1        1.0  0.0030384889711461732  0.005901262790334077  0.00018315280583185422  1.0000
  Pt  Pt1       1.0  6.446049824055424e-06  1.3591849997489973e-05  0.9994457621650561  1.0000
  Pt  Pt2       1.0  0.0033397791277472275  1.3591849997489973e-05  0.9991079726821767  1.0000
  Pt  Pt3       1.0  0.006673112596640342  1.3591849997489973e-05  0.9992768669563528  1.0000
  Pt  Pt4       1.0  0.008339778681059552  0.005013591970022481  0.9993613143052702  1.0000
  Pt  Pt5       1.0  0.0016731126470051997  0.005013591970022481  0.999023525184535  1.0000
  Pt  Pt6       1.0  0.005006445889965345  0.005013591970022481  0.9991924200139226  1.0000
  Rh  Rh1       1.0  0.007506446096349099  0.0025135918931103464  0.9991924199517968  1.0000
  Rh  Rh2       1.0  0.0008397792715293537  0.0025135918931103464  0.9993613146180552  1.0000
  Rh  Rh3       1.0  0.004173112401523014  0.0025135918931103464  0.9990235251338567  1.0000
  Rh  Rh4       1.0  0.0008397792715293537  0.0025135918931103464  0.9991079724598312  1.0000
  Rh  Rh5       1.0  0.004173112401523014  0.0025135918931103464  0.9992768672920808  1.0000
  Rh  Rh6       1.0  0.007506446096349099  0.0025135918931103464  0.9994457618352769  1.0000
  Rh  Rh7       1.0  0.008339778681059552  0.005013591970022481  0.999107972696534  1.0000
  Rh  Rh8       1.0  0.0016731126470051997  0.005013591970022481  0.999276867342759  1.0000
  Rh  Rh9       1.0  0.005006445889965345  0.005013591970022481  0.9994457621721466  1.0000
  Rh  Rh10      1.0  0.009173112169501884  0.0075135920469346145  0.9992768673018559  1.0000
  Rh  Rh11      1.0  0.002506445683581592  0.0075135920469346145  0.9994457619595286  1.0000
  Rh  Rh12      1.0  0.0058397793784076765  0.0075135920469346145  0.9991079724610206  1.0000
  Rh  Rh13      1.0  0.0058397793784076765  0.0075135920469346145  0.9993613146192446  1.0000
  Rh  Rh14      1.0  0.009173112169501884  0.0075135920469346145  0.9990235251436318  1.0000
  Rh  Rh15      1.0  0.002506445683581592  0.0075135920469346145  0.9991924198013046  1.0000
  Rh  Rh16      1.0  6.446049824055424e-06  1.3591849997489973e-05  0.999192420006832  1.0000
  Rh  Rh17      1.0  0.0033397791277472275  1.3591849997489973e-05  0.999361314290913  1.0000
  Rh  Rh18      1.0  0.006673112596640342  1.3591849997489973e-05  0.9990235253476165  1.0000
  Pt  Pt7       1.0  0.00010585879829567478  0.009986408010749487  0.999939223305235  1.0000
  Pt  Pt8       1.0  0.0033397791277472275  1.3591849997489973e-05  0.999614656723881  1.0000
  Pt  Pt9       1.0  0.006585490895717543  5.854324817082179e-05  0.9997968968462467  1.0000
  Pt  Pt10      1.0  0.008359148923025113  0.005026769422098222  0.9998678274456629  1.0000
  Pt  Pt11      1.0  0.0016731126470051997  0.005013591970022481  0.9995302089514952  1.0000
  Pt  Pt12      1.0  0.005001444072823998  0.004962998687509814  0.999694438904513  1.0000
  Rh  Rh19      1.0  0.007510564972174918  0.002463020963186653  0.9996953795763892  1.0000
  Rh  Rh20      1.0  0.0008634105510839947  0.002513455854773155  0.999862048094631  1.0000
  Rh  Rh21      1.0  0.004173112401523014  0.0025135918931103464  0.999530209175561  1.0000
  Rh  Rh22      1.0  0.0008397792715293537  0.0025135918931103464  0.9996146565015355  1.0000
  Rh  Rh23      1.0  0.0041108895690386  0.002534514156739669  0.9997929662102406  1.0000
  Rh  Rh24      1.0  0.007639501362060579  0.0024809200992449566  0.9999366819708871  1.0000
  Rh  Rh25      1.0  0.008339778681059552  0.005013591970022481  0.9996146567382381  1.0000
  Rh  Rh26      1.0  0.0016383369205982298  0.00500714240687725  0.9997869702869818  1.0000
  Rh  Rh27      1.0  0.005135489250698113  0.004945301205453108  0.9999347820430358  1.0000
  Rh  Rh28      1.0  0.009109911863955  0.0075277352269941655  0.9997891733895387  1.0000
  Rh  Rh29      1.0  0.002602327522703239  0.007479906935702441  0.9999364233777127  1.0000
  Rh  Rh30      1.0  0.0058397793784076765  0.0075135920469346145  0.9996146565027247  1.0000
  Rh  Rh31      1.0  0.005855564007624371  0.007463201620175641  0.9998622227154198  1.0000
  Rh  Rh32      1.0  0.009173112169501884  0.0075135920469346145  0.9995302091853361  1.0000
  Rh  Rh33      1.0  0.0025091561221547622  0.007470925521242762  0.9996942875220959  1.0000
  Rh  Rh34      1.0  0.009993553416874912  0.00996994881405181  0.999694195611144  1.0000
  Rh  Rh35      1.0  0.003377933310174883  0.0099676443342338  0.9998610627975683  1.0000
  Rh  Rh36      1.0  0.006673112596640342  1.3591849997489973e-05  0.9995302093893207  1.0000
