data_image0
_chemical_formula_structural       HMn4Rh4Ti8Mn4Rh4Ti8Mn4Rh4Ti8Mn4Rh4Ti8
_chemical_formula_sum              "H1 Mn16 Rh16 Ti32"
_cell_length_a       8.629128456115723
_cell_length_b       8.629128456115723
_cell_length_c       106.61029052734375
_cell_angle_alpha    90.0
_cell_angle_beta     90.0
_cell_angle_gamma    90.0

_space_group_name_H-M_alt    "P 1"
_space_group_IT_number       1

loop_
  _space_group_symop_operation_xyz
  'x, y, z'

loop_
  _atom_site_type_symbol
  _atom_site_label
  _atom_site_symmetry_multiplicity
  _atom_site_fract_x
  _atom_site_fract_y
  _atom_site_fract_z
  _atom_site_occupancy
  H   H1        1.0  0.002499999965463114  0.004999999930926228  0.0001077124168003948  1.0000
  Mn  Mn1       1.0  1.499999882938963e-10  0.002499999965463114  0.9991552637065553  1.0000
  Mn  Mn2       1.0  0.002499999965463114  4.9999997170131484e-11  0.9994414325920391  1.0000
  Mn  Mn3       1.0  1.499999882938963e-10  0.002499999965463114  0.9997276017570674  1.0000
  Mn  Mn4       1.0  0.002499999965463114  0.009999999861852456  0.9999921464762828  1.0000
  Rh  Rh1       1.0  0.002499999965463114  4.9999997170131484e-11  0.9991552637065553  1.0000
  Rh  Rh2       1.0  1.499999882938963e-10  0.002499999965463114  0.9994414325920391  1.0000
  Rh  Rh3       1.0  0.002499999965463114  4.9999997170131484e-11  0.9997276017570674  1.0000
  Rh  Rh4       1.0  0.009999998998430312  0.0025000001813186503  0.0  1.0000
  Ti  Ti1       1.0  0.002499999965463114  0.002499999965463114  0.9990121791240412  1.0000
  Ti  Ti2       1.0  0.002499999965463114  0.002499999965463114  0.9992983482890695  1.0000
  Ti  Ti3       1.0  1.499999882938963e-10  4.9999997170131484e-11  0.9992983482890695  1.0000
  Ti  Ti4       1.0  1.499999882938963e-10  4.9999997170131484e-11  0.9990121791240412  1.0000
  Ti  Ti5       1.0  0.002499999965463114  0.002499999965463114  0.9995845174540978  1.0000
  Ti  Ti6       1.0  0.002499999749607578  0.0025000001813186503  0.9998785837517884  1.0000
  Ti  Ti7       1.0  0.009999998998430312  2.500000019331481e-10  0.9998785837517884  1.0000
  Ti  Ti8       1.0  1.499999882938963e-10  4.9999997170131484e-11  0.9995845174540978  1.0000
  Mn  Mn5       1.0  1.499999882938963e-10  0.007499999896389342  0.9991552637065553  1.0000
  Mn  Mn6       1.0  0.002499999965463114  0.004999999930926228  0.9994414325920391  1.0000
  Mn  Mn7       1.0  1.499999882938963e-10  0.007499999896389342  0.9997276017570674  1.0000
  Mn  Mn8       1.0  0.002499999965463114  0.004999999930926228  0.9999921464762828  1.0000
  Rh  Rh5       1.0  0.002499999965463114  0.004999999930926228  0.9991552637065553  1.0000
  Rh  Rh6       1.0  1.499999882938963e-10  0.007499999896389342  0.9994414325920391  1.0000
  Rh  Rh7       1.0  0.002499999965463114  0.004999999930926228  0.9997276017570674  1.0000
  Rh  Rh8       1.0  0.009999998998430312  0.007499999896389342  0.0  1.0000
  Ti  Ti9       1.0  0.002499999965463114  0.007499999896389342  0.9990121791240412  1.0000
  Ti  Ti10      1.0  0.002499999965463114  0.007499999896389342  0.9992983482890695  1.0000
  Ti  Ti11      1.0  1.499999882938963e-10  0.004999999930926228  0.9992983482890695  1.0000
  Ti  Ti12      1.0  1.499999882938963e-10  0.004999999930926228  0.9990121791240412  1.0000
  Ti  Ti13      1.0  0.002499999965463114  0.007499999896389342  0.9995845174540978  1.0000
  Ti  Ti14      1.0  0.002499999749607578  0.007499999896389342  0.9998785837517884  1.0000
  Ti  Ti15      1.0  0.009999998998430312  0.004999999930926228  0.9998785837517884  1.0000
  Ti  Ti16      1.0  1.499999882938963e-10  0.004999999930926228  0.9995845174540978  1.0000
  Mn  Mn9       1.0  0.004999999930926228  0.002499999965463114  0.9991552637065553  1.0000
  Mn  Mn10      1.0  0.007499999896389342  4.9999997170131484e-11  0.9994414325920391  1.0000
  Mn  Mn11      1.0  0.004999999930926228  0.002499999965463114  0.9997276017570674  1.0000
  Mn  Mn12      1.0  0.007499999896389342  0.009999999861852456  0.9999921464762828  1.0000
  Rh  Rh9       1.0  0.007499999896389342  4.9999997170131484e-11  0.9991552637065553  1.0000
  Rh  Rh10      1.0  0.004999999930926228  0.002499999965463114  0.9994414325920391  1.0000
  Rh  Rh11      1.0  0.007499999896389342  4.9999997170131484e-11  0.9997276017570674  1.0000
  Rh  Rh12      1.0  0.004999999499215156  0.0025000001813186503  0.0  1.0000
  Ti  Ti17      1.0  0.007499999896389342  0.002499999965463114  0.9990121791240412  1.0000
  Ti  Ti18      1.0  0.007499999896389342  0.002499999965463114  0.9992983482890695  1.0000
  Ti  Ti19      1.0  0.004999999930926228  4.9999997170131484e-11  0.9992983482890695  1.0000
  Ti  Ti20      1.0  0.004999999930926228  4.9999997170131484e-11  0.9990121791240412  1.0000
  Ti  Ti21      1.0  0.007499999896389342  0.002499999965463114  0.9995845174540978  1.0000
  Ti  Ti22      1.0  0.007499999896389342  0.0025000001813186503  0.9998785837517884  1.0000
  Ti  Ti23      1.0  0.004999999499215156  2.500000019331481e-10  0.9998785837517884  1.0000
  Ti  Ti24      1.0  0.004999999930926228  4.9999997170131484e-11  0.9995845174540978  1.0000
  Mn  Mn13      1.0  0.004999999930926228  0.007499999896389342  0.9991552637065553  1.0000
  Mn  Mn14      1.0  0.007499999896389342  0.004999999930926228  0.9994414325920391  1.0000
  Mn  Mn15      1.0  0.004999999930926228  0.007499999896389342  0.9997276017570674  1.0000
  Mn  Mn16      1.0  0.007499999896389342  0.004999999930926228  0.9999921464762828  1.0000
  Rh  Rh13      1.0  0.007499999896389342  0.004999999930926228  0.9991552637065553  1.0000
  Rh  Rh14      1.0  0.004999999930926228  0.007499999896389342  0.9994414325920391  1.0000
  Rh  Rh15      1.0  0.007499999896389342  0.004999999930926228  0.9997276017570674  1.0000
  Rh  Rh16      1.0  0.004999999499215156  0.007499999896389342  0.0  1.0000
  Ti  Ti25      1.0  0.007499999896389342  0.007499999896389342  0.9990121791240412  1.0000
  Ti  Ti26      1.0  0.007499999896389342  0.007499999896389342  0.9992983482890695  1.0000
  Ti  Ti27      1.0  0.004999999930926228  0.004999999930926228  0.9992983482890695  1.0000
  Ti  Ti28      1.0  0.004999999930926228  0.004999999930926228  0.9990121791240412  1.0000
  Ti  Ti29      1.0  0.007499999896389342  0.007499999896389342  0.9995845174540978  1.0000
  Ti  Ti30      1.0  0.007499999896389342  0.007499999896389342  0.9998785837517884  1.0000
  Ti  Ti31      1.0  0.004999999499215156  0.004999999930926228  0.9998785837517884  1.0000
  Ti  Ti32      1.0  0.004999999930926228  0.004999999930926228  0.9995845174540978  1.0000
