data_image0
_chemical_formula_structural       HRh6Ti12
_chemical_formula_sum              "H1 Rh6 Ti12"
_cell_length_a       5.399798054834703
_cell_length_b       6.884738291034564
_cell_length_c       98.73101806640625
_cell_angle_alpha    94.12244679467354
_cell_angle_beta     90.26518400564944
_cell_angle_gamma    112.4886107876425

_space_group_name_H-M_alt    "P 1"
_space_group_IT_number       1

loop_
  _space_group_symop_operation_xyz
  'x, y, z'

loop_
  _atom_site_type_symbol
  _atom_site_label
  _atom_site_symmetry_multiplicity
  _atom_site_fract_x
  _atom_site_fract_y
  _atom_site_fract_z
  _atom_site_occupancy
  H   H1        1.0  0.0009957112890572487  0.00808450844443649  4.0779105486668795e-05  1.0000
  Rh  Rh1       1.0  0.004899649392543357  0.009332249915719945  0.9996345825099183  1.0000
  Rh  Rh2       1.0  0.0039472682781681034  0.0007608211961580553  0.9993574368645383  1.0000
  Rh  Rh3       1.0  0.0044234589036703095  0.0050465355192204015  0.9994960096870615  1.0000
  Rh  Rh4       1.0  0.006506918014995611  0.0022386975886824314  3.684577788963756e-05  1.0000
  Rh  Rh5       1.0  0.005375839734540439  0.003617964053720553  0.999773155195608  1.0000
  Rh  Rh6       1.0  0.006077550495621003  0.007876357462520285  0.9999137430113438  1.0000
  Ti  Ti1       1.0  0.0010270089856605185  0.006979281549861117  0.9994491400066022  1.0000
  Ti  Ti2       1.0  0.0015031995427352922  0.0012649961284849135  0.9995877129964088  1.0000
  Ti  Ti3       1.0  0.0005508186110822868  0.002693567740859158  0.9993105671867194  1.0000
  Ti  Ti4       1.0  0.008296098851307452  0.007399503297581645  0.9996814521873163  1.0000
  Ti  Ti5       1.0  0.007343717847961882  0.008828074763081494  0.9994043063768725  1.0000
  Ti  Ti6       1.0  0.007819908362434404  0.0031137889010821006  0.9995428790626059  1.0000
  Ti  Ti7       1.0  0.002482009716871815  0.009807670586550821  0.9998722515328577  1.0000
  Ti  Ti8       1.0  0.003193490195496751  0.004081295199244213  0.9999948228154001  1.0000
  Ti  Ti9       1.0  0.0019793901033009036  0.005550710671858854  0.9997262858200201  1.0000
  Ti  Ti10      1.0  0.009449181281892769  0.0001923295067144206  8.364789895511774e-05  1.0000
  Ti  Ti11      1.0  0.008842886719231568  0.0017179542697707694  0.9998227394033747  1.0000
  Ti  Ti12      1.0  0.009267225805814096  0.00592582083000606  0.9999586045042909  1.0000
