data_image0
_chemical_formula_structural       HAs8Nb8
_chemical_formula_sum              "H1 As8 Nb8"
_cell_length_a       4.95273494720459
_cell_length_b       6.407999775864416
_cell_length_c       104.66914367675781
_cell_angle_alpha    90.0
_cell_angle_beta     90.0
_cell_angle_gamma    112.73374841210445

_space_group_name_H-M_alt    "P 1"
_space_group_IT_number       1

loop_
  _space_group_symop_operation_xyz
  'x, y, z'

loop_
  _atom_site_type_symbol
  _atom_site_label
  _atom_site_symmetry_multiplicity
  _atom_site_fract_x
  _atom_site_fract_y
  _atom_site_fract_z
  _atom_site_occupancy
  H   H1        1.0  0.008980364927177475  0.00911369153695138  0.00013492274035923683  1.0000
  As  As1       1.0  0.006024643789107394  0.003501910108719848  0.9999204194320745  1.0000
  As  As2       1.0  0.0010196350335861634  0.0033520262301265954  0.9996681508312368  1.0000
  As  As3       1.0  0.0010728057216809613  0.008303115124413481  3.442713179797588e-05  1.0000
  As  As4       1.0  0.005919615145046104  0.008342586332730837  0.999779516247456  1.0000
  As  As5       1.0  0.006019635074955421  0.0033520262301265954  0.9994315605384689  1.0000
  As  As6       1.0  0.0010196350335861634  0.0033520262301265954  0.9991949705304298  1.0000
  As  As7       1.0  0.0010196349401514378  0.008352025990605362  0.9995498556848529  1.0000
  As  As8       1.0  0.006019634887499656  0.008352025990605362  0.9993132656768138  1.0000
  Nb  Nb1       1.0  0.006836492931840847  0.004985741943897451  0.9996681508312368  1.0000
  Nb  Nb2       1.0  0.0017932771632236803  0.005071037661249729  0.9998964036945246  1.0000
  Nb  Nb3       1.0  0.006887924553137071  0.009924268579808314  0.0  1.0000
  Nb  Nb4       1.0  0.0018112487545531482  1.425809973244495e-05  0.9997912191716584  1.0000
  Nb  Nb5       1.0  0.006836492931840847  0.004985741943897451  0.9991949705304298  1.0000
  Nb  Nb6       1.0  0.001836492890471591  0.004985741943897451  0.9994315605384689  1.0000
  Nb  Nb7       1.0  0.006836493059544601  0.009985742334695253  0.9995498556848529  1.0000
  Nb  Nb8       1.0  0.0018364931121963833  0.009985742334695253  0.9993132656768138  1.0000
