data_image0
_chemical_formula_structural       COAu12Ti6Zn6
_chemical_formula_sum              "C1 O1 Au12 Ti6 Zn6"
_cell_length_a       6.483424663543701
_cell_length_b       7.940541143448896
_cell_length_c       104.914306640625
_cell_angle_alpha    94.34775301269067
_cell_angle_beta     90.0
_cell_angle_gamma    114.09484243039144

_space_group_name_H-M_alt    "P 1"
_space_group_IT_number       1

loop_
  _space_group_symop_operation_xyz
  'x, y, z'

loop_
  _atom_site_type_symbol
  _atom_site_label
  _atom_site_symmetry_multiplicity
  _atom_site_fract_x
  _atom_site_fract_y
  _atom_site_fract_z
  _atom_site_occupancy
  C   C1        1.0  0.003104189579603459  0.003646465212471796  0.00014859479193034096  1.0000
  O   O1        1.0  0.003104189579603459  0.003646465212471796  0.00026297408587925994  1.0000
  Au  Au1       1.0  0.004913548990697126  0.004910406909344341  0.9999581808224882  1.0000
  Au  Au2       1.0  0.0008552299609670891  0.006515701550581279  0.9996820350526222  1.0000
  Au  Au3       1.0  0.006688563404270653  0.008182368471663617  0.9994047108868497  1.0000
  Au  Au4       1.0  0.004605230010771452  0.004015701684665213  0.9992660488167463  1.0000
  Au  Au5       1.0  0.0028256995734331223  0.0005676314458231921  0.9998232095373499  1.0000
  Au  Au6       1.0  0.008771896805566242  0.0023490350214365966  0.9995433729839983  1.0000
  Au  Au7       1.0  0.00960523013718055  0.004015701684665213  0.9992660488167463  1.0000
  Au  Au8       1.0  0.007935045699564137  0.0005702098541064472  0.9998236964450755  1.0000
  Au  Au9       1.0  0.0037718966791571436  0.0023490350214365966  0.9995433729839983  1.0000
  Au  Au10      1.0  0.00018643655682942662  0.004905496858788839  0.9999581884419  1.0000
  Au  Au11      1.0  0.005855229943729484  0.006515701550581279  0.9996820350526222  1.0000
  Au  Au12      1.0  0.0016885634215082583  0.008182368471663617  0.9994047108868497  1.0000
  Ti  Ti1       1.0  0.006924429806222742  0.0036538509166027296  0.999752193072097  1.0000
  Ti  Ti2       1.0  0.002730230224149156  0.005265702004403828  0.9994740419369035  1.0000
  Ti  Ti3       1.0  0.001095707764217284  0.001984278886572615  7.680517443511317e-06  1.0000
  Ti  Ti4       1.0  0.009813563354770946  0.00943236853354851  0.9996127040055274  1.0000
  Ti  Ti5       1.0  0.005646896632235974  0.0010990350884785643  0.9993353798660604  1.0000
  Ti  Ti6       1.0  0.004008662180484378  0.007826680407533308  0.9998831384099858  1.0000
  Zn  Zn1       1.0  0.001863311579799044  0.0035329518159932082  0.9997468697181838  1.0000
  Zn  Zn2       1.0  0.007730230090198605  0.005265702004403828  0.9994740419369035  1.0000
  Zn  Zn3       1.0  0.00610324904621627  0.002024475058506803  1.1615908389168573e-05  1.0000
  Zn  Zn4       1.0  0.004813563443831902  0.00943236853354851  0.9996127040055274  1.0000
  Zn  Zn5       1.0  0.0006468968200540379  0.0010990350884785643  0.9993353798660604  1.0000
  Zn  Zn6       1.0  0.008948656902536701  0.007703624360547525  0.9999018094523698  1.0000
