data_image0
_chemical_formula_structural       COIn12
_chemical_formula_sum              "C1 O1 In12"
_cell_length_a       6.9741920600650475
_cell_length_b       5.898844330924706
_cell_length_c       100.40318298339844
_cell_angle_alpha    85.37772667148664
_cell_angle_beta     91.36457155285942
_cell_angle_gamma    103.54474816675052

_space_group_name_H-M_alt    "P 1"
_space_group_IT_number       1

loop_
  _space_group_symop_operation_xyz
  'x, y, z'

loop_
  _atom_site_type_symbol
  _atom_site_label
  _atom_site_symmetry_multiplicity
  _atom_site_fract_x
  _atom_site_fract_y
  _atom_site_fract_z
  _atom_site_occupancy
  C   C1        1.0  0.002872181584900553  0.006872898499671166  0.00019029454236940677  1.0000
  O   O1        1.0  0.002872181584900553  0.006872898499671166  0.00030981290784472504  1.0000
  In  In1       1.0  0.004642857343031131  0.009285713991590913  0.9995578581642527  1.0000
  In  In2       1.0  0.0025000000612983076  0.0007142857543088315  0.9992694669481392  1.0000
  In  In3       1.0  0.0010714286414066254  0.004999999791507483  0.9994136625282826  1.0000
  In  In4       1.0  0.00035714284836836  0.002142857100041715  0.9999904452498294  1.0000
  In  In5       1.0  0.003214285932273493  0.0035714286086593783  0.9997020539167932  1.0000
  In  In6       1.0  0.001785714377431504  0.007857142808742808  0.9998462494959421  1.0000
  In  In7       1.0  0.009642857332345028  0.009285713991590913  0.999557858220632  1.0000
  In  In8       1.0  0.007500000050612203  0.0007142857543088315  0.9992694667076921  1.0000
  In  In9       1.0  0.006071428814387933  0.004999999791507483  0.9994136625849657  1.0000
  In  In10      1.0  0.0053571432425854135  0.002142857100041715  0.9999904453068784  1.0000
  In  In11      1.0  0.008214286188739988  0.0035714286086593783  0.9997020539736146  1.0000
  In  In12      1.0  0.006785714450230587  0.007857142808742808  0.9998462495524596  1.0000
