data_image0
_chemical_formula_structural       CONi6Sn8Ni6Sn8Ni6Sn8Ni6Sn8
_chemical_formula_sum              "C1 O1 Ni24 Sn32"
_cell_length_a       8.266703605651855
_cell_length_b       12.143633205776416
_cell_length_c       101.92729949951172
_cell_angle_alpha    80.17569628891088
_cell_angle_beta     90.0
_cell_angle_gamma    90.0

_space_group_name_H-M_alt    "P 1"
_space_group_IT_number       1

loop_
  _space_group_symop_operation_xyz
  'x, y, z'

loop_
  _atom_site_type_symbol
  _atom_site_label
  _atom_site_symmetry_multiplicity
  _atom_site_fract_x
  _atom_site_fract_y
  _atom_site_fract_z
  _atom_site_occupancy
  C   C1        1.0  3.0000000044590985e-10  0.009894186705718346  0.9999324672474328  1.0000
  O   O1        1.0  3.0000000044590985e-10  0.009894186705718346  5.0198457595466215e-05  1.0000
  Ni  Ni1       1.0  9.999999791029375e-11  0.00010581334720852572  0.9992551079303018  1.0000
  Ni  Ni2       1.0  0.0025000000540765527  0.007264455945037111  0.9990570568299725  1.0000
  Ni  Ni3       1.0  9.999999791029375e-11  0.007947170867687066  0.9991921288535006  1.0000
  Ni  Ni4       1.0  0.0025000000540765527  0.005105813568256048  0.998994077868038  1.0000
  Ni  Ni5       1.0  9.999999791029375e-11  0.0022644561131577607  0.9993180871767131  1.0000
  Ni  Ni6       1.0  0.0025000000540765527  0.0029471705688059093  0.9989310989187614  1.0000
  Sn  Sn1       1.0  0.0025000000540765527  0.009388526489398526  0.9991293809936497  1.0000
  Sn  Sn2       1.0  9.999999791029375e-11  0.00582310032332565  0.9991198049822114  1.0000
  Sn  Sn3       1.0  0.0025000000540765527  0.006824095657352441  0.9993283992109578  1.0000
  Sn  Sn4       1.0  9.999999791029375e-11  0.008387531155371736  0.9989207867649033  1.0000
  Sn  Sn5       1.0  9.999999791029375e-11  0.0043885265018519075  0.9988683507601934  1.0000
  Sn  Sn6       1.0  0.0025000000540765527  0.0008231002579453969  0.9988587750427255  1.0000
  Sn  Sn7       1.0  9.999999791029375e-11  0.0018240955141385533  0.9990673689806662  1.0000
  Sn  Sn8       1.0  0.0025000000540765527  0.0033875311678251167  0.9991818168224204  1.0000
  Ni  Ni7       1.0  3.0000000044590985e-10  0.0001411751521011186  0.9997600080945661  1.0000
  Ni  Ni8       1.0  0.0025000002793955237  0.00725490420141625  0.999573945973983  1.0000
  Ni  Ni9       1.0  3.0000000044590985e-10  0.007902008679628333  0.9997117944713247  1.0000
  Ni  Ni10      1.0  0.0025000000540765527  0.005105813568256048  0.9995161378666233  1.0000
  Ni  Ni11      1.0  0.009999999315030327  0.002164641326323388  0.9998077820795284  1.0000
  Ni  Ni12      1.0  0.0025000000540765527  0.0029471705688059093  0.9994531586249588  1.0000
  Sn  Sn9       1.0  0.0025000002793955237  0.009333784537610528  0.999663996716461  1.0000
  Sn  Sn10      1.0  1.999999958205875e-10  0.0058750097534884015  0.9996411760978956  1.0000
  Sn  Sn11      1.0  0.0025000005047144946  0.007055617718408202  0.9998565692971695  1.0000
  Sn  Sn12      1.0  9.999999791029375e-11  0.008387531155371736  0.9994428470558766  1.0000
  Sn  Sn13      1.0  9.999999791029375e-11  0.0043885265018519075  0.9993904110511668  1.0000
  Sn  Sn14      1.0  0.0025000000540765527  0.0008231002579453969  0.9993808347489228  1.0000
  Sn  Sn15      1.0  0.010000000216306211  0.0018207081943668792  0.9995779739492001  1.0000
  Sn  Sn16      1.0  0.0024999996034386113  0.00335853720498537  0.9997198730296628  1.0000
  Ni  Ni13      1.0  0.0050000001081531055  0.00010581334720852572  0.9992551079303018  1.0000
  Ni  Ni14      1.0  0.007500000162229659  0.007264455945037111  0.9990570568299725  1.0000
  Ni  Ni15      1.0  0.0050000001081531055  0.007947170867687066  0.9991921288535006  1.0000
  Ni  Ni16      1.0  0.007500000162229659  0.005105813568256048  0.998994077868038  1.0000
  Ni  Ni17      1.0  0.0050000001081531055  0.0022644561131577607  0.9993180871767131  1.0000
  Ni  Ni18      1.0  0.007500000162229659  0.0029471705688059093  0.9989310989187614  1.0000
  Sn  Sn17      1.0  0.007500000162229659  0.009388526489398526  0.9991293809936497  1.0000
  Sn  Sn18      1.0  0.0050000001081531055  0.00582310032332565  0.9991198049822114  1.0000
  Sn  Sn19      1.0  0.007500000162229659  0.006824095657352441  0.9993283992109578  1.0000
  Sn  Sn20      1.0  0.0050000001081531055  0.008387531155371736  0.9989207867649033  1.0000
  Sn  Sn21      1.0  0.0050000001081531055  0.0043885265018519075  0.9988683507601934  1.0000
  Sn  Sn22      1.0  0.007500000162229659  0.0008231002579453969  0.9988587750427255  1.0000
  Sn  Sn23      1.0  0.0050000001081531055  0.0018240955141385533  0.9990673689806662  1.0000
  Sn  Sn24      1.0  0.007500000162229659  0.0033875311678251167  0.9991818168224204  1.0000
  Ni  Ni19      1.0  0.0050000001081531055  0.0001411751521011186  0.9997600080945661  1.0000
  Ni  Ni20      1.0  0.007500000162229659  0.00725490420141625  0.999573945973983  1.0000
  Ni  Ni21      1.0  0.0050000001081531055  0.007902008679628333  0.9997117944713247  1.0000
  Ni  Ni22      1.0  0.007500000162229659  0.005105813568256048  0.9995161378666233  1.0000
  Ni  Ni23      1.0  0.004999999657515164  0.002164641326323388  0.9998077820795284  1.0000
  Ni  Ni24      1.0  0.007500000162229659  0.0029471705688059093  0.9994531586249588  1.0000
  Sn  Sn25      1.0  0.007500000162229659  0.009333784537610528  0.999663996716461  1.0000
  Sn  Sn26      1.0  0.0050000001081531055  0.0058750097534884015  0.9996411760978956  1.0000
  Sn  Sn27      1.0  0.007500000612867601  0.007055617718408202  0.9998565692971695  1.0000
  Sn  Sn28      1.0  0.0050000001081531055  0.008387531155371736  0.9994428470558766  1.0000
  Sn  Sn29      1.0  0.0050000001081531055  0.0043885265018519075  0.9993904110511668  1.0000
  Sn  Sn30      1.0  0.007500000162229659  0.0008231002579453969  0.9993808347489228  1.0000
  Sn  Sn31      1.0  0.004999999657515164  0.0018207081943668792  0.9995779739492001  1.0000
  Sn  Sn32      1.0  0.007499999711591717  0.00335853720498537  0.9997198730296628  1.0000
