data_image0
_chemical_formula_structural       HAg12Sn4
_chemical_formula_sum              "H1 Ag12 Sn4"
_cell_length_a       6.181336879730225
_cell_length_b       7.242794232074558
_cell_length_c       98.97117614746094
_cell_angle_alpha    86.31809256735998
_cell_angle_beta     90.0
_cell_angle_gamma    90.0

_space_group_name_H-M_alt    "P 1"
_space_group_IT_number       1

loop_
  _space_group_symop_operation_xyz
  'x, y, z'

loop_
  _atom_site_type_symbol
  _atom_site_label
  _atom_site_symmetry_multiplicity
  _atom_site_fract_x
  _atom_site_fract_y
  _atom_site_fract_z
  _atom_site_occupancy
  H   H1        1.0  0.008706780694940902  0.0007330505602354986  4.2803659918800334e-05  1.0000
  Ag  Ag1       1.0  0.0012310085305740023  0.00414873150995828  0.9998006049140161  1.0000
  Ag  Ag2       1.0  0.0012310077772397377  0.00924174080242968  0.9994326045431045  1.0000
  Ag  Ag3       1.0  0.006231007298119145  0.0034859573062086683  0.99937729550156  1.0000
  Ag  Ag4       1.0  0.006231006695451733  0.008467949222678699  0.9997322708250744  1.0000
  Ag  Ag5       1.0  0.008706780694940902  0.0008869379780967522  0.9999179558905558  1.0000
  Ag  Ag6       1.0  0.008726053998768668  0.005937092497675633  0.9995566716721117  1.0000
  Ag  Ag7       1.0  0.008768991641186209  0.00680669381963412  0.9999680121597778  1.0000
  Ag  Ag8       1.0  0.008735961248350426  0.0017906058480504773  0.9996191324701682  1.0000
  Ag  Ag9       1.0  0.0037552332986299755  0.0008869366895762992  0.9999179552943687  1.0000
  Ag  Ag10      1.0  0.0037359615014707394  0.005937092497675633  0.9995566716721117  1.0000
  Ag  Ag11      1.0  0.003693023859053198  0.006806694335042301  0.9999680133618406  1.0000
  Ag  Ag12      1.0  0.003726053950555275  0.0017906058480504773  0.9996191324701682  1.0000
  Sn  Sn1       1.0  0.0012310077772397377  0.003460749207475395  0.9993754506557893  1.0000
  Sn  Sn2       1.0  0.0012310114685776345  0.008488042926030136  0.9997404235036299  1.0000
  Sn  Sn3       1.0  0.006231004284782086  0.004182988372424419  0.9998197710900708  1.0000
  Sn  Sn4       1.0  0.006231007298119145  0.009266949416571134  0.9994344490853317  1.0000
