data_image0
_chemical_formula_structural       HSi12Rh12
_chemical_formula_sum              "H1 Si12 Rh12"
_cell_length_a       6.537318107118451
_cell_length_b       8.558587795891809
_cell_length_c       40.85486602783203
_cell_angle_alpha    81.12976955180146
_cell_angle_beta     77.65708484509517
_cell_angle_gamma    55.34294377253617

_space_group_name_H-M_alt    "P 1"
_space_group_IT_number       1

loop_
  _space_group_symop_operation_xyz
  'x, y, z'

loop_
  _atom_site_type_symbol
  _atom_site_label
  _atom_site_symmetry_multiplicity
  _atom_site_fract_x
  _atom_site_fract_y
  _atom_site_fract_z
  _atom_site_occupancy
  H   H1        1.0  0.004400656718216036  0.007838347386708138  0.9998651584113836  1.0000
  Si  Si1       1.0  0.0019815200786815796  0.0026494596141101996  0.9984811966099888  1.0000
  Si  Si2       1.0  0.008600873478224382  0.009363586815935137  0.9990624754139149  1.0000
  Si  Si3       1.0  0.0052525879020700605  0.005798666793848421  0.9996330257871402  1.0000
  Si  Si4       1.0  0.006457625842771634  0.008285424136349235  0.998574630979723  1.0000
  Si  Si5       1.0  0.003158203879383052  0.004886322784410692  0.9991542654110993  1.0000
  Si  Si6       1.0  0.00044314196633011324  0.0012622824127309694  0.999696429341825  1.0000
  Si  Si7       1.0  0.0017762596945180766  0.0006364131205135301  0.9990304299767653  1.0000
  Si  Si8       1.0  0.008563232910666739  0.007345569284037112  0.9996087365142422  1.0000
  Si  Si9       1.0  0.00508530207282367  0.003971586067249581  0.9984522568755111  1.0000
  Si  Si10      1.0  0.0072758621066417025  0.005002288610638365  0.9989533077136475  1.0000
  Si  Si11      1.0  0.0041121199358995835  0.0016435974335836025  0.9995742639804467  1.0000
  Si  Si12      1.0  0.0006091956008347821  0.008335621746256437  0.9983588226402046  1.0000
  Rh  Rh1       1.0  0.0073593545005040005  0.0023930035018818654  0.9993014916917796  1.0000
  Rh  Rh2       1.0  0.00403478671950271  0.009060995612822633  0.9981210892992185  1.0000
  Rh  Rh3       1.0  0.0007014539178505795  0.005727661947610111  0.9987155744244379  1.0000
  Rh  Rh4       1.0  0.00444984138603902  0.0018511470871729074  0.9989387940319501  1.0000
  Rh  Rh5       1.0  0.0012496406064207923  0.008531151194622723  0.9994976661398012  1.0000
  Rh  Rh6       1.0  0.007783175743565312  0.00518448022279098  0.9983443088706195  1.0000
  Rh  Rh7       1.0  0.0063653681363527535  0.0008933838661482822  0.9982178790601134  1.0000
  Rh  Rh8       1.0  0.0030320347241037052  0.007560050269783039  0.9988123643207091  1.0000
  Rh  Rh9       1.0  0.009556858944001495  0.0042288858234361595  0.9994201884130964  1.0000
  Rh  Rh10      1.0  0.009283646687939899  0.001436565458568801  0.9985891445469456  1.0000
  Rh  Rh11      1.0  0.005948416022883621  0.008085726250069992  0.9991811756194131  1.0000
  Rh  Rh12      1.0  0.0025293213464720192  0.004802498574924888  0.9997356549455744  1.0000
