data_image0
_chemical_formula_structural       HAl6V18
_chemical_formula_sum              "H1 Al6 V18"
_cell_length_a       6.817296981811523
_cell_length_b       6.817296765602099
_cell_length_c       36.602203369140625
_cell_angle_alpha    90.0
_cell_angle_beta     90.0
_cell_angle_gamma    59.99999895088178

_space_group_name_H-M_alt    "P 1"
_space_group_IT_number       1

loop_
  _space_group_symop_operation_xyz
  'x, y, z'

loop_
  _atom_site_type_symbol
  _atom_site_label
  _atom_site_symmetry_multiplicity
  _atom_site_fract_x
  _atom_site_fract_y
  _atom_site_fract_z
  _atom_site_occupancy
  H   H1        1.0  0.0034144751871534674  0.0034136041259388516  0.00022665011681025462  1.0000
  Al  Al1       1.0  0.006747542418275331  0.006746628004435655  0.9994371966664471  1.0000
  Al  Al2       1.0  8.076175043191794e-05  8.083555379482701e-05  0.9979586011125218  1.0000
  Al  Al3       1.0  0.0034140950085158168  0.0034141688552504  0.9987189786921858  1.0000
  Al  Al4       1.0  0.006747428643943991  0.006747502546140467  0.9983387899023538  1.0000
  Al  Al5       1.0  8.076175043191794e-05  8.083555379482701e-05  0.9990991674820178  1.0000
  Al  Al6       1.0  0.0034144751871534674  0.0034136041259388516  0.9998900445996988  1.0000
  V   V1        1.0  0.004247428313600523  0.009247502419943973  0.9989090730871018  1.0000
  V   V2        1.0  0.007589165794919811  0.0027339407263143314  0.9996663077695129  1.0000
  V   V3        1.0  0.0009140947936501451  0.005914169044545141  0.9981486955074378  1.0000
  V   V4        1.0  0.00258076125926801  0.007580836047735792  0.9985288842972698  1.0000
  V   V5        1.0  0.005943895964305743  0.0008876386924710566  0.9993243340861869  1.0000
  V   V6        1.0  0.009013251800552959  0.004534779842139291  0.0  1.0000
  V   V7        1.0  0.009247428337933768  0.006747502546140467  0.9989090730871018  1.0000
  V   V8        1.0  0.0027342757164278073  0.00991916496183616  0.9996663900059437  1.0000
  V   V9        1.0  0.00591409524895242  0.0034141688552504  0.9981486955074378  1.0000
  V   V10       1.0  0.007580761899680207  8.083555379482701e-05  0.9985288842972698  1.0000
  V   V11       1.0  0.0008865552011700962  0.00341190331268826  0.9993241822337678  1.0000
  V   V12       1.0  0.004535318713990245  0.006693275912582376  0.9999999698737828  1.0000
  V   V13       1.0  8.076165074807654e-05  0.00258083566914631  0.9985288842972698  1.0000
  V   V14       1.0  0.0034128801890114637  0.005943223263404995  0.9993241321591095  1.0000
  V   V15       1.0  0.0066924894309588175  0.00901388746987942  1.0177776077826813e-07  1.0000
  V   V16       1.0  0.006747428345149646  0.004247502356845726  0.9989090730871018  1.0000
  V   V17       1.0  0.009919238147849728  0.007588828702696001  0.9996662764219627  1.0000
  V   V18       1.0  0.0034140948646356724  0.0009141689025740854  0.9981486955074378  1.0000
