data_image0
_chemical_formula_structural       Sb8Rh8Sb8Rh8H
_chemical_formula_sum              "Sb16 Rh16 H1"
_cell_length_a       7.867933750152588
_cell_length_b       8.868042679674451
_cell_length_c       34.527828216552734
_cell_angle_alpha    93.36325181519828
_cell_angle_beta     90.0
_cell_angle_gamma    90.0

_space_group_name_H-M_alt    "P 1"
_space_group_IT_number       1

loop_
  _space_group_symop_operation_xyz
  'x, y, z'

loop_
  _atom_site_type_symbol
  _atom_site_label
  _atom_site_symmetry_multiplicity
  _atom_site_fract_x
  _atom_site_fract_y
  _atom_site_fract_z
  _atom_site_occupancy
  Sb  Sb1       1.0  0.0037500002651474494  0.0035150434894327693  0.9977715096055491  1.0000
  Sb  Sb2       1.0  0.0037500002651474494  0.008515043371607342  0.9990556972445621  1.0000
  Sb  Sb3       1.0  0.0012500001278389489  0.0063961731317680945  0.9980413017573082  1.0000
  Sb  Sb4       1.0  0.0012500001278389489  0.001411384407135034  0.9993166848606151  1.0000
  Sb  Sb5       1.0  0.0037500002651474494  0.004430388841552242  0.998820602244573  1.0000
  Sb  Sb6       1.0  0.003750000028408655  0.009519172708485294  0.0001434316640792147  1.0000
  Sb  Sb7       1.0  0.0012500001278389489  0.005441203509048616  0.999592997561495  1.0000
  Sb  Sb8       1.0  0.0012500001278389489  0.00048082773967213666  0.9982763966376308  1.0000
  Rh  Rh1       1.0  0.003750000028408655  0.006638337629719737  0.9999859776348263  1.0000
  Rh  Rh2       1.0  0.0037500002651474494  0.0014515274252216545  0.9987896056815134  1.0000
  Rh  Rh3       1.0  0.0012500001278389489  0.0034596893138046374  0.9983073936346377  1.0000
  Rh  Rh4       1.0  0.0012500001278389489  0.008461692017851078  0.999566990405511  1.0000
  Rh  Rh5       1.0  0.0037500002651474494  0.008394357310632858  0.9982906138470513  1.0000
  Rh  Rh6       1.0  0.003750000028408655  0.0034192922346390924  0.999530922204372  1.0000
  Rh  Rh7       1.0  0.0012499998911001545  0.001327899515795394  4.496816740686688e-05  1.0000
  Rh  Rh8       1.0  0.0012500001278389489  0.006516859192742579  0.9988063851548189  1.0000
  Sb  Sb9       1.0  0.008750000303025656  0.0035150434894327693  0.9977715096055491  1.0000
  Sb  Sb10      1.0  0.008750000303025656  0.008515043371607342  0.9990556972445621  1.0000
  Sb  Sb11      1.0  0.006250000284086553  0.0063961731317680945  0.9980413017573082  1.0000
  Sb  Sb12      1.0  0.006250000284086553  0.001411384407135034  0.9993166848606151  1.0000
  Sb  Sb13      1.0  0.008750000303025656  0.004430388841552242  0.998820602244573  1.0000
  Sb  Sb14      1.0  0.008750000303025656  0.009519172708485294  0.0001434316640792147  1.0000
  Sb  Sb15      1.0  0.006250000284086553  0.005441203509048616  0.999592997561495  1.0000
  Sb  Sb16      1.0  0.006250000284086553  0.00048082773967213666  0.9982763966376308  1.0000
  Rh  Rh9       1.0  0.008750000303025656  0.006638337629719737  0.9999859776348263  1.0000
  Rh  Rh10      1.0  0.008750000303025656  0.0014515274252216545  0.9987896056815134  1.0000
  Rh  Rh11      1.0  0.006250000284086553  0.0034596893138046374  0.9983073936346377  1.0000
  Rh  Rh12      1.0  0.006250000284086553  0.008461692017851078  0.999566990405511  1.0000
  Rh  Rh13      1.0  0.008750000303025656  0.008394357310632858  0.9982906138470513  1.0000
  Rh  Rh14      1.0  0.008750000303025656  0.0034192922346390924  0.999530922204372  1.0000
  Rh  Rh15      1.0  0.0062499998106089645  0.001327899515795394  4.496816740686688e-05  1.0000
  Rh  Rh16      1.0  0.006250000284086553  0.006516859192742579  0.9988063851548189  1.0000
  H   H1        1.0  0.005000000037878207  0.0024153383734877003  0.9998582355239514  1.0000
