data_image0
_chemical_formula_structural       HAs4Sn4As4Sn4
_chemical_formula_sum              "H1 As8 Sn8"
_cell_length_a       8.272157669067383
_cell_length_b       5.84929895401001
_cell_length_c       103.08863067626953
_cell_angle_alpha    90.0
_cell_angle_beta     90.0
_cell_angle_gamma    90.0

_space_group_name_H-M_alt    "P 1"
_space_group_IT_number       1

loop_
  _space_group_symop_operation_xyz
  'x, y, z'

loop_
  _atom_site_type_symbol
  _atom_site_label
  _atom_site_symmetry_multiplicity
  _atom_site_fract_x
  _atom_site_fract_y
  _atom_site_fract_z
  _atom_site_occupancy
  H   H1        1.0  0.005000002215676852  0.00749999984714926  0.00011951384369768784  1.0000
  As  As1       1.0  1.0050000798040354e-08  0.0024999989937326307  0.9997939851325481  1.0000
  As  As2       1.0  7.850000734453812e-09  0.00249999883451311  0.9993736176326131  1.0000
  As  As3       1.0  0.0025000020085200734  0.00749999984714926  0.0  1.0000
  As  As4       1.0  0.0025000080881211937  0.007499999210271178  0.9995742255717552  1.0000
  Sn  Sn1       1.0  0.002500008988802841  0.002500001700464479  0.9999725568683854  1.0000
  Sn  Sn2       1.0  0.0025000080881211937  0.00249999883451311  0.9995742255717552  1.0000
  Sn  Sn3       1.0  7.850000734453812e-09  0.007499999210271178  0.9993736176326131  1.0000
  Sn  Sn4       1.0  0.00999999272249229  0.007500001120905424  0.9998189501489154  1.0000
  As  As5       1.0  0.005000010321811679  0.0024999989937326307  0.9997939851325481  1.0000
  As  As6       1.0  0.005000008070107561  0.00249999883451311  0.9993736176326131  1.0000
  As  As7       1.0  0.0075000021976632195  0.00749999984714926  0.0  1.0000
  As  As8       1.0  0.007500008052093927  0.007499999210271178  0.9995742255717552  1.0000
  Sn  Sn5       1.0  0.007500008952775574  0.002500001700464479  0.9999725568683854  1.0000
  Sn  Sn6       1.0  0.007500008052093927  0.00249999883451311  0.9995742255717552  1.0000
  Sn  Sn7       1.0  0.005000008070107561  0.007499999210271178  0.9993736176326131  1.0000
  Sn  Sn8       1.0  0.004999992308178731  0.007500001120905424  0.9998189501489154  1.0000
