data_image0
_chemical_formula_structural       COAs12Nb6
_chemical_formula_sum              "C1 O1 As12 Nb6"
_cell_length_a       8.641317164256863
_cell_length_b       5.053150707950644
_cell_length_c       102.58954620361328
_cell_angle_alpha    92.2528952507954
_cell_angle_beta     96.51640278335127
_cell_angle_gamma    73.2526769765852

_space_group_name_H-M_alt    "P 1"
_space_group_IT_number       1

loop_
  _space_group_symop_operation_xyz
  'x, y, z'

loop_
  _atom_site_type_symbol
  _atom_site_label
  _atom_site_symmetry_multiplicity
  _atom_site_fract_x
  _atom_site_fract_y
  _atom_site_fract_z
  _atom_site_occupancy
  C   C1        1.0  0.008782980459140987  0.007685887493308992  0.0001273518511647864  1.0000
  O   O1        1.0  0.008782980459140987  0.007685887493308992  0.00024432248957889456  1.0000
  As  As1       1.0  0.0007289470294896787  0.007691627144437201  0.9994405274912017  1.0000
  As  As2       1.0  0.0032289472287152865  0.004358293537233087  0.9997052522513317  1.0000
  As  As3       1.0  0.00554561051506673  0.009750643502796155  0.9999775652407625  1.0000
  As  As4       1.0  0.0010076615041950683  0.0022162260123814305  0.9995305452975899  1.0000
  As  As5       1.0  0.0035221045412252984  0.00905048057962504  0.999800861645453  1.0000
  As  As6       1.0  0.00850766153589005  0.005549559640187094  0.9992658209870782  1.0000
  As  As7       1.0  0.009433099801800222  0.00855812069822413  0.999735652107494  1.0000
  As  As8       1.0  0.0016532760841886558  0.004227256504748272  2.3989242423210243e-05  1.0000
  As  As9       1.0  0.006906479439076896  0.001892163092484269  0.9994824026792045  1.0000
  As  As10      1.0  0.004830129325528442  0.008015689347144346  0.9994886702672762  1.0000
  As  As11      1.0  0.00728006186556424  0.004752887079045792  0.9997543611080569  1.0000
  As  As12      1.0  0.009418986478623194  0.002323690883393861  3.5245162300418336e-05  1.0000
  Nb  Nb1       1.0  0.0035402266005828804  0.0035826891225109055  0.9994466202890471  1.0000
  Nb  Nb2       1.0  0.006040226573415752  0.00024935599420349025  0.999711344466939  1.0000
  Nb  Nb3       1.0  0.008558213222749935  0.007661022690304375  0.9999574165726947  1.0000
  Nb  Nb4       1.0  0.0005669007121112884  0.0029729545614167628  0.9997840965321668  1.0000
  Nb  Nb5       1.0  0.005696382191189586  0.009658496814320907  0.9992597284802559  1.0000
  Nb  Nb6       1.0  0.008196382390415194  0.0063251639449083625  0.9995244526608132  1.0000
