data_image0
_chemical_formula_structural       HV6Sn2V6Sn2
_chemical_formula_sum              "H1 V12 Sn4"
_cell_length_a       5.671743886488486
_cell_length_b       4.542364597320557
_cell_length_c       30.297794342041016
_cell_angle_alpha    90.0
_cell_angle_beta     119.99999990255856
_cell_angle_gamma    90.0

_space_group_name_H-M_alt    "P 1"
_space_group_IT_number       1

loop_
  _space_group_symop_operation_xyz
  'x, y, z'

loop_
  _atom_site_type_symbol
  _atom_site_label
  _atom_site_symmetry_multiplicity
  _atom_site_fract_x
  _atom_site_fract_y
  _atom_site_fract_z
  _atom_site_occupancy
  H   H1        1.0  0.009230574261764476  0.002500001410608765  0.001194038465238448  1.0000
  V   V1        1.0  0.0009733043992217414  0.00750000013121942  0.9992998937853388  1.0000
  V   V2        1.0  0.0024675547200296243  0.002499999975396359  0.999859340812972  1.0000
  V   V3        1.0  0.007984802877832495  0.002499999975396359  0.999859340973253  1.0000
  V   V4        1.0  0.006490553125843672  0.00750000013121942  0.9992998939988612  1.0000
  V   V5        1.0  0.0007694250954699845  0.007499999311098045  6.117442779226257e-05  1.0000
  V   V6        1.0  0.007467448290191183  0.002500001410608765  0.0006989527617862395  1.0000
  Sn  Sn1       1.0  0.006120730862778927  0.007499999311098045  0.0001928303481408741  1.0000
  Sn  Sn2       1.0  0.0028750777416387055  0.002499999770366015  0.0008508396570553214  1.0000
  V   V7        1.0  0.0009733043992217414  0.00750000013121942  0.9974278950386619  1.0000
  V   V8        1.0  0.0024675547200296243  0.002499999975396359  0.9979873420662951  1.0000
  V   V9        1.0  0.007984802877832495  0.002499999975396359  0.9979873419806645  1.0000
  V   V10       1.0  0.006490553125843672  0.00750000013121942  0.9974278950062727  1.0000
  V   V11       1.0  0.0009733043992217414  0.00750000013121942  0.9982670655932245  1.0000
  V   V12       1.0  0.007984802877832495  0.002499999975396359  0.9990201704186904  1.0000
  Sn  Sn3       1.0  0.006145720221766989  0.00750000013121942  0.9983316181611324  1.0000
  Sn  Sn4       1.0  0.002812387055287247  0.002499999975396359  0.9989556178507826  1.0000
