data_image0
_chemical_formula_structural       HGa16Os8
_chemical_formula_sum              "H1 Ga16 Os8"
_cell_length_a       4.806750774383545
_cell_length_b       6.089278200168185
_cell_length_c       33.46432876586914
_cell_angle_alpha    87.01100026745358
_cell_angle_beta     90.0
_cell_angle_gamma    90.0

_space_group_name_H-M_alt    "P 1"
_space_group_IT_number       1

loop_
  _space_group_symop_operation_xyz
  'x, y, z'

loop_
  _atom_site_type_symbol
  _atom_site_label
  _atom_site_symmetry_multiplicity
  _atom_site_fract_x
  _atom_site_fract_y
  _atom_site_fract_z
  _atom_site_occupancy
  H   H1        1.0  0.0026713146243579305  0.004481367132404736  0.00012160553003859068  1.0000
  Ga  Ga1       1.0  0.00250756850524682  0.001694858019658319  0.9972108448441557  1.0000
  Ga  Ga2       1.0  0.00250756850524682  0.001694858019658319  0.9990304776532279  1.0000
  Ga  Ga3       1.0  0.007507568365744632  0.003330079481169933  0.9969132947506646  1.0000
  Ga  Ga4       1.0  0.007507568365744632  0.003330079481169933  0.9987329275597367  1.0000
  Ga  Ga5       1.0  7.568699877803291e-06  0.008330079995764059  0.9969132948481975  1.0000
  Ga  Ga6       1.0  7.568699877803291e-06  0.008330079995764059  0.9987329274346272  1.0000
  Ga  Ga7       1.0  0.0050075686292487655  0.006694857921640391  0.9972108451701437  1.0000
  Ga  Ga8       1.0  0.0050075686292487655  0.006694857921640391  0.999030477533931  1.0000
  Ga  Ga9       1.0  0.007016082004520218  0.007078446183922881  0.9999806373438229  1.0000
  Ga  Ga10      1.0  0.007507568365744632  0.006694857921640391  0.9981206615746798  1.0000
  Ga  Ga11      1.0  0.002268448772303858  0.008405822737399227  0.999638985206582  1.0000
  Ga  Ga12      1.0  0.00250756850524682  0.008330079995764059  0.9978231110300911  1.0000
  Ga  Ga13      1.0  0.005246858283607727  0.0034053373403650613  0.9996389333812321  1.0000
  Ga  Ga14      1.0  0.0050075686292487655  0.003330079481169933  0.9978231111552006  1.0000
  Ga  Ga15      1.0  0.0004986367687239466  0.002078509227829266  0.9999802784115019  1.0000
  Ga  Ga16      1.0  7.568699877803291e-06  0.001694858019658319  0.9981206612486918  1.0000
  Os  Os1       1.0  0.007507568365744632  1.246870011293295e-05  0.9975169782829114  1.0000
  Os  Os2       1.0  0.007522447824197383  0.00998753131084708  0.999333482447599  1.0000
  Os  Os3       1.0  0.0050075686292487655  1.246870011293295e-05  0.9966071618783753  1.0000
  Os  Os4       1.0  0.0050075686292487655  1.246870011293295e-05  0.9984267942421625  1.0000
  Os  Os5       1.0  0.00250756850524682  0.005012469007711189  0.9966071617552298  1.0000
  Os  Os6       1.0  0.00250756850524682  0.005012469007711189  0.998426794564302  1.0000
  Os  Os7       1.0  0.009992430952244669  0.004986772076225172  0.9993333820127448  1.0000
  Os  Os8       1.0  7.568699877803291e-06  0.005012469007711189  0.9975169781597659  1.0000
