data_image0
_chemical_formula_structural       COCu24Sn20
_chemical_formula_sum              "C1 O1 Cu24 Sn20"
_cell_length_a       6.751606984215903
_cell_length_b       10.082502775544125
_cell_length_c       107.31333923339844
_cell_angle_alpha    84.77501819898492
_cell_angle_beta     86.22138408931858
_cell_angle_gamma    82.77176514117181

_space_group_name_H-M_alt    "P 1"
_space_group_IT_number       1

loop_
  _space_group_symop_operation_xyz
  'x, y, z'

loop_
  _atom_site_type_symbol
  _atom_site_label
  _atom_site_symmetry_multiplicity
  _atom_site_fract_x
  _atom_site_fract_y
  _atom_site_fract_z
  _atom_site_occupancy
  C   C1        1.0  0.009535200743292758  0.0034366591233445706  0.9999850733965936  1.0000
  O   O1        1.0  0.009535200743292758  0.0034366591233445706  9.68956957076908e-05  1.0000
  Cu  Cu1       1.0  0.0054941733035796265  0.0021813187134036415  0.999660947564415  1.0000
  Cu  Cu2       1.0  0.0021608401508817136  0.0021813187134036415  0.9990814402073551  1.0000
  Cu  Cu3       1.0  0.008131741509294967  0.0031669401546502622  0.9997759057248028  1.0000
  Cu  Cu4       1.0  0.004874342909170119  0.003105931522937625  0.9991993771005142  1.0000
  Cu  Cu5       1.0  0.005236750620575606  0.008105931507987644  0.999167874464563  1.0000
  Cu  Cu6       1.0  0.00836127119954956  0.008095785703091168  0.9997520763121183  1.0000
  Cu  Cu7       1.0  0.002523247895871316  0.007181318511578892  0.9990499375728636  1.0000
  Cu  Cu8       1.0  0.005856581048569229  0.007181318511578892  0.9996294449299236  1.0000
  Cu  Cu9       1.0  0.009634537688309923  0.006241170615718214  0.9989445447045754  1.0000
  Cu  Cu10      1.0  0.0029678711064313103  0.006241170615718214  0.9995240524548875  1.0000
  Cu  Cu11      1.0  0.00781624352956706  0.009046079777597858  0.999300146936739  1.0000
  Cu  Cu12      1.0  0.0009485971380022905  0.009058349227356256  0.9998662418560853  1.0000
  Cu  Cu13      1.0  0.0012241085480085884  0.003996994518523529  0.9998695983540495  1.0000
  Cu  Cu14      1.0  0.007763053060622593  0.004046079792547838  0.9993047701269108  1.0000
  Cu  Cu15      1.0  0.002914680654278899  0.001241170537230812  0.9995286756457892  1.0000
  Cu  Cu16      1.0  0.00958134723615751  0.001241170537230812  0.9989491681731902  1.0000
  Cu  Cu17      1.0  0.0003654622954697905  0.00014362505556758597  0.9994144109996927  1.0000
  Cu  Cu18      1.0  0.007032128808227706  0.00014362505556758597  0.9988349035273804  1.0000
  Cu  Cu19      1.0  0.0003654622162386892  0.005143625204133026  0.9994144112098121  1.0000
  Cu  Cu20      1.0  0.007032128936358695  0.005143625204133026  0.99883490373664  1.0000
  Cu  Cu21      1.0  0.004717430171174535  0.0026614867019197595  0.9998826218035893  1.0000
  Cu  Cu22      1.0  0.0014390402689755824  0.0026436250247332494  0.9993210891541188  1.0000
  Cu  Cu23      1.0  0.005958550536065853  0.007643625009783268  0.9989282255192591  1.0000
  Cu  Cu24      1.0  0.009291883965246552  0.007643625009783268  0.999507733430599  1.0000
  Sn  Sn1       1.0  0.0062217072060391275  0.005430875268549506  0.999093341480606  1.0000
  Sn  Sn2       1.0  0.009555040635219827  0.005430875268549506  0.9996728493919459  1.0000
  Sn  Sn3       1.0  0.003338170614978139  0.0098563754985161  0.9989680139947236  1.0000
  Sn  Sn4       1.0  0.006671504044158838  0.0098563754985161  0.9995475216283504  1.0000
  Sn  Sn5       1.0  0.004476325879404584  0.0050694934787224215  0.9997584810470145  1.0000
  Sn  Sn6       1.0  0.0011758836700754701  0.004856375139716547  0.9991559731892793  1.0000
  Sn  Sn7       1.0  0.007343738980331963  0.0004978560590432892  0.9998670019089001  1.0000
  Sn  Sn8       1.0  0.004059420357397707  0.00043087514334341195  0.9992813009504771  1.0000
  Sn  Sn9       1.0  0.0009097277449223863  0.0037227800904136607  0.9988692456733148  1.0000
  Sn  Sn10      1.0  0.004243061035861692  0.0037227800904136607  0.9994487535852279  1.0000
  Sn  Sn11      1.0  0.00854616589640872  0.0015644703328023739  0.9992011487941235  1.0000
  Sn  Sn12      1.0  0.0017956316819905903  0.0015197745602002503  0.9997914321346643  1.0000
  Sn  Sn13      1.0  0.0005180198881081863  0.006475086621388395  0.9999424508546301  1.0000
  Sn  Sn14      1.0  0.006487863407674998  0.006564470317852392  0.9993800689954241  1.0000
  Sn  Sn15      1.0  0.0021847580613306283  0.008722779701714143  0.9996276737917406  1.0000
  Sn  Sn16      1.0  0.008851424366726455  0.008722779701714143  0.9990481660425747  1.0000
  Sn  Sn17      1.0  0.005696287654748997  0.0026436250247332494  0.9989510231995242  1.0000
  Sn  Sn18      1.0  0.009029620530964124  0.0026436250247332494  0.9995305305577306  1.0000
  Sn  Sn19      1.0  0.004682936243584914  0.007835508021418516  0.9998794642926735  1.0000
  Sn  Sn20      1.0  0.0017013034267752242  0.007643625009783268  0.9992982914727072  1.0000
