data_image0
_chemical_formula_structural       COGe6Mo3Ge6Mo3
_chemical_formula_sum              "C1 O1 Ge12 Mo6"
_cell_length_a       4.788014067578579
_cell_length_b       6.717054082805558
_cell_length_c       101.198486328125
_cell_angle_alpha    93.08544560491906
_cell_angle_beta     92.58486948327293
_cell_angle_gamma    69.46849684759727

_space_group_name_H-M_alt    "P 1"
_space_group_IT_number       1

loop_
  _space_group_symop_operation_xyz
  'x, y, z'

loop_
  _atom_site_type_symbol
  _atom_site_label
  _atom_site_symmetry_multiplicity
  _atom_site_fract_x
  _atom_site_fract_y
  _atom_site_fract_z
  _atom_site_occupancy
  C   C1        1.0  0.0011226958093839212  0.0038357131691144014  7.609527415287913e-05  1.0000
  O   O1        1.0  0.0011226958093839212  0.0038357131691144014  0.0001946743631699451  1.0000
  Ge  Ge1       1.0  0.0010143363125213172  0.0012237538959812351  0.9999046256714766  1.0000
  Ge  Ge2       1.0  0.00609116162898309  0.002536406692059803  2.2058898291368808e-05  1.0000
  Ge  Ge3       1.0  0.00786441004496539  0.001769629118994286  0.999595124256506  1.0000
  Ge  Ge4       1.0  0.0023785299628476474  0.003221774013204424  0.9996946090245107  1.0000
  Ge  Ge5       1.0  0.004864409892034553  0.002269629154851064  0.9992868343400809  1.0000
  Ge  Ge6       1.0  0.009378530042637648  0.0037217738467099993  0.9993863190887172  1.0000
  Mo  Mo1       1.0  0.006503145664280484  0.004754298482444879  0.999788183558924  1.0000
  Mo  Mo2       1.0  0.0036214699274411005  0.0002457014646152534  0.9994907217643274  1.0000
  Mo  Mo3       1.0  0.0006214699822967264  0.0007457014487350671  0.9991824318481609  1.0000
  Ge  Ge7       1.0  0.0010143363125213172  0.006223754134806217  0.9999046255074134  1.0000
  Ge  Ge8       1.0  0.00609116162898309  0.00753640679203305  2.2058733732034357e-05  1.0000
  Ge  Ge9       1.0  0.00786441004496539  0.006769629218967534  0.9995951243864404  1.0000
  Ge  Ge10      1.0  0.0023785299628476474  0.008221773835474205  0.9996946094479467  1.0000
  Ge  Ge11      1.0  0.004864409892034553  0.007269628977120845  0.9992868344690232  1.0000
  Ge  Ge12      1.0  0.009378530042637648  0.00872177366897978  0.9993863192176595  1.0000
  Mo  Mo4       1.0  0.006503145664280484  0.00975429830471466  0.9997881833933725  1.0000
  Mo  Mo5       1.0  0.0036214699274411005  0.005245701495162635  0.9994907218940138  1.0000
  Mo  Mo6       1.0  0.0006214699822967264  0.0057457017569859156  0.9991824316843457  1.0000
