data_image0
_chemical_formula_structural       COAl12Ir6Rh6
_chemical_formula_sum              "C1 O1 Al12 Ir6 Rh6"
_cell_length_a       6.0508222579956055
_cell_length_b       7.410713405353143
_cell_length_c       102.58467102050781
_cell_angle_alpha    94.3477529839037
_cell_angle_beta     90.0
_cell_angle_gamma    114.09484297680723

_space_group_name_H-M_alt    "P 1"
_space_group_IT_number       1

loop_
  _space_group_symop_operation_xyz
  'x, y, z'

loop_
  _atom_site_type_symbol
  _atom_site_label
  _atom_site_symmetry_multiplicity
  _atom_site_fract_x
  _atom_site_fract_y
  _atom_site_fract_z
  _atom_site_occupancy
  C   C1        1.0  0.001257572024446715  0.0021998184138518556  0.00017899720078951684  1.0000
  O   O1        1.0  0.001257572024446715  0.0021998184138518556  0.00029597397908708657  1.0000
  Al  Al1       1.0  0.004664962953277593  0.004013263334154744  0.9992993351395953  1.0000
  Al  Al2       1.0  0.0029381971610298297  0.0005700700263470009  0.9998327527325136  1.0000
  Al  Al3       1.0  0.008831629742700435  0.0023465964943470132  0.9995640325550805  1.0000
  Al  Al4       1.0  0.0038316295333737285  0.0023465964943470132  0.9995640325550805  1.0000
  Al  Al5       1.0  0.009664962546937514  0.004013263334154744  0.9992993351395953  1.0000
  Al  Al6       1.0  0.007949141053538214  0.0005706565532127354  0.9998327693082882  1.0000
  Al  Al7       1.0  0.00012670358659199078  0.004858605514327451  0.9999648744164593  1.0000
  Al  Al8       1.0  0.005914962737772227  0.006513262903144011  0.9996963813170828  1.0000
  Al  Al9       1.0  0.0017482963943272437  0.008179930019240672  0.9994316839031107  1.0000
  Al  Al10      1.0  0.006748296295820557  0.008179930019240672  0.9994316839031107  1.0000
  Al  Al11      1.0  0.0050487030010403396  0.0048581358231436795  0.99996485615642  1.0000
  Al  Al12      1.0  0.0009149629901956101  0.006513262903144011  0.9996963813170828  1.0000
  Ir  Ir1       1.0  0.0069292453208796186  0.003540828325003347  0.9997580457613497  1.0000
  Ir  Ir2       1.0  0.0027899630408088345  0.005263263256793843  0.9994978580838384  1.0000
  Ir  Ir3       1.0  0.001150892744583577  0.001986459950323515  9.570947538011778e-06  1.0000
  Ir  Ir4       1.0  0.00987329634603123  0.009429930218168703  0.9996302068488668  1.0000
  Ir  Ir5       1.0  0.005706629488264719  0.0010965965026356814  0.9993655093199448  1.0000
  Ir  Ir6       1.0  0.003970131525414419  0.007621634632829073  0.9998894533868945  1.0000
  Rh  Rh1       1.0  0.001927788674294842  0.0035368492118100087  0.9997558799736005  1.0000
  Rh  Rh2       1.0  0.007789962865343799  0.005263263256793843  0.9994978580838384  1.0000
  Rh  Rh3       1.0  0.00615288085789596  0.001991285474658903  1.0905270262219345e-05  1.0000
  Rh  Rh4       1.0  0.004873296473397297  0.009429930218168703  0.9996302068488668  1.0000
  Rh  Rh5       1.0  0.0007066297214485153  0.0010965965026356814  0.9993655093199448  1.0000
  Rh  Rh6       1.0  0.008967348571983858  0.007617446092625559  0.9998926202962871  1.0000
