data_image0
_chemical_formula_structural       HGa9Pd21Ga9Pd21
_chemical_formula_sum              "H1 Ga18 Pd42"
_cell_length_a       8.282212257385254
_cell_length_b       10.161851898030871
_cell_length_c       103.8048324584961
_cell_angle_alpha    94.4460548305934
_cell_angle_beta     90.0
_cell_angle_gamma    101.75677121909433

_space_group_name_H-M_alt    "P 1"
_space_group_IT_number       1

loop_
  _space_group_symop_operation_xyz
  'x, y, z'

loop_
  _atom_site_type_symbol
  _atom_site_label
  _atom_site_symmetry_multiplicity
  _atom_site_fract_x
  _atom_site_fract_y
  _atom_site_fract_z
  _atom_site_occupancy
  H   H1        1.0  0.004401254550528314  0.0029306499591722733  0.00013501159708142967  1.0000
  Ga  Ga1       1.0  0.0018283910715865884  0.007656932640766106  0.9998618133010876  1.0000
  Ga  Ga2       1.0  0.004619580188995048  0.008811687568388786  0.9991572509005731  1.0000
  Ga  Ga3       1.0  0.0007306912081690305  0.0032561320712646367  0.9995190926829485  1.0000
  Ga  Ga4       1.0  0.0005254068554673567  0.0024349946604579416  0.9991412226403451  1.0000
  Ga  Ga5       1.0  0.0016365180533448014  0.0068794391708464015  0.9995030642677437  1.0000
  Ga  Ga6       1.0  0.0027366732072833548  0.0012699239810473571  0.9998727900074617  1.0000
  Ga  Ga7       1.0  0.0037137534140996064  0.00518838046880702  0.9991732790286783  1.0000
  Ga  Ga8       1.0  0.004824864269845857  0.009632824791380246  0.9995351209417512  1.0000
  Ga  Ga9       1.0  0.0009582044231121986  0.004168053544446712  0.9999005114639282  1.0000
  Pd  Pd1       1.0  0.0001751356700897995  0.0010339097221627892  0.9993381717249867  1.0000
  Pd  Pd2       1.0  0.0012862467507331057  0.005478354044736014  0.99970001335096  1.0000
  Pd  Pd3       1.0  0.004064024376822531  0.006589465219286938  0.9989763299426113  1.0000
  Pd  Pd4       1.0  0.0011493865567754349  0.004930913578138782  0.9993198345992228  1.0000
  Pd  Pd5       1.0  0.002260497735811203  0.009375357900712008  0.9996816762251961  1.0000
  Pd  Pd6       1.0  0.003355242117793109  0.003742860136224163  2.8403714054787316e-05  1.0000
  Pd  Pd7       1.0  0.0030897734128285323  0.0026924613633109444  0.9989946670683754  1.0000
  Pd  Pd8       1.0  0.004200884812276511  0.00713690606151464  0.9993565089842988  1.0000
  Pd  Pd9       1.0  0.00031199586404747015  0.0015813501887600207  0.9997183504767241  1.0000
  Pd  Pd10      1.0  0.0010874103298214822  0.00468300836108952  0.9990256540762965  1.0000
  Pd  Pd11      1.0  0.002198521476260274  0.009127453059293215  0.99938749599222  1.0000
  Pd  Pd12      1.0  0.0033096323686354454  0.0035718971865385963  0.9997493380588444  1.0000
  Pd  Pd13      1.0  0.0031517497640446567  0.002940366768175442  0.9992888473056273  1.0000
  Pd  Pd14      1.0  0.004262860985549389  0.007384811654194372  0.9996506892229761  1.0000
  Pd  Pd15      1.0  0.0003781229779130567  0.0018418630669111216  3.190000674497167e-06  1.0000
  Pd  Pd16      1.0  0.0017307081450087334  0.007256199537502128  0.9991644121660438  1.0000
  Pd  Pd17      1.0  0.002841819082095291  0.0017006440403779797  0.9995262542355188  1.0000
  Pd  Pd18      1.0  0.0039577319021341945  0.006172438393117036  0.9998926768023435  1.0000
  Pd  Pd19      1.0  0.0025084519112492437  0.0003671753569937898  0.9991500892140984  1.0000
  Pd  Pd20      1.0  0.0036195632285280573  0.004811619726520823  0.9995119311275277  1.0000
  Pd  Pd21      1.0  0.0047209728781744086  0.0092289070929899  0.9998753618991281  1.0000
  Ga  Ga10      1.0  0.0068283907997422726  0.007656932640766106  0.9998618133010876  1.0000
  Ga  Ga11      1.0  0.009619580135019755  0.008811687568388786  0.9991572509005731  1.0000
  Ga  Ga12      1.0  0.005730691062829308  0.0032561320712646367  0.9995190926829485  1.0000
  Ga  Ga13      1.0  0.005525406710127635  0.0024349946604579416  0.9991412226403451  1.0000
  Ga  Ga14      1.0  0.00663651783772475  0.0068794391708464015  0.9995030642677437  1.0000
  Ga  Ga15      1.0  0.007736672928411006  0.0012699239810473571  0.9998727900074617  1.0000
  Ga  Ga16      1.0  0.008713752910330202  0.00518838046880702  0.9991732790286783  1.0000
  Ga  Ga17      1.0  0.00982486399097351  0.009632824791380246  0.9995351209417512  1.0000
  Ga  Ga18      1.0  0.005958204095043619  0.004168053544446712  0.9999005114639282  1.0000
  Pd  Pd22      1.0  0.005175135475553846  0.0010339097221627892  0.9993381717249867  1.0000
  Pd  Pd23      1.0  0.006286246556197153  0.005478354044736014  0.99970001335096  1.0000
  Pd  Pd24      1.0  0.009064024097950181  0.006589465219286938  0.9989763299426113  1.0000
  Pd  Pd25      1.0  0.006149386439547845  0.004930913578138782  0.9993198345992228  1.0000
  Pd  Pd26      1.0  0.007260497520191152  0.009375357900712008  0.9996816762251961  1.0000
  Pd  Pd27      1.0  0.008355242063817816  0.003742860136224163  2.8403714054787316e-05  1.0000
  Pd  Pd28      1.0  0.008089773133956183  0.0026924613633109444  0.9989946670683754  1.0000
  Pd  Pd29      1.0  0.009200884758301218  0.00713690606151464  0.9993565089842988  1.0000
  Pd  Pd30      1.0  0.0053119955922031545  0.0015813501887600207  0.9997183504767241  1.0000
  Pd  Pd31      1.0  0.00608741013528553  0.00468300836108952  0.9990256540762965  1.0000
  Pd  Pd32      1.0  0.007198521309836453  0.009127453059293215  0.99938749599222  1.0000
  Pd  Pd33      1.0  0.008309632089763097  0.0035718971865385963  0.9997493380588444  1.0000
  Pd  Pd34      1.0  0.008151749485172308  0.002940366768175442  0.9992888473056273  1.0000
  Pd  Pd35      1.0  0.00926286070667704  0.007384811654194372  0.9996506892229761  1.0000
  Pd  Pd36      1.0  0.0053781228044612025  0.0018418630669111216  3.190000674497167e-06  1.0000
  Pd  Pd37      1.0  0.006730707929388681  0.007256199537502128  0.9991644121660438  1.0000
  Pd  Pd38      1.0  0.007841818803222943  0.0017006440403779797  0.9995262542355188  1.0000
  Pd  Pd39      1.0  0.008957731623261847  0.006172438393117036  0.9998926768023435  1.0000
  Pd  Pd40      1.0  0.007508451632376895  0.0003671753569937898  0.9991500892140984  1.0000
  Pd  Pd41      1.0  0.008619563174552763  0.004811619726520823  0.9995119311275277  1.0000
  Pd  Pd42      1.0  0.00972097259930206  0.0092289070929899  0.9998753618991281  1.0000
