data_image0
_chemical_formula_structural       COTi18
_chemical_formula_sum              "C1 O1 Ti18"
_cell_length_a       7.956389904022217
_cell_length_b       5.400145221484723
_cell_length_c       102.40087127685547
_cell_angle_alpha    94.89922993215463
_cell_angle_beta     90.0
_cell_angle_gamma    42.550384247829655

_space_group_name_H-M_alt    "P 1"
_space_group_IT_number       1

loop_
  _space_group_symop_operation_xyz
  'x, y, z'

loop_
  _atom_site_type_symbol
  _atom_site_label
  _atom_site_symmetry_multiplicity
  _atom_site_fract_x
  _atom_site_fract_y
  _atom_site_fract_z
  _atom_site_occupancy
  C   C1        1.0  0.004178174279782243  0.0017952892083069056  0.00012686022791010915  1.0000
  O   O1        1.0  0.004178174279782243  0.0017952892083069056  0.00024404696830659735  1.0000
  Ti  Ti1       1.0  0.006705775580339985  0.006740734839615251  0.9991472277685368  1.0000
  Ti  Ti2       1.0  3.910949690157923e-05  7.406804943795211e-05  0.9994987964912967  1.0000
  Ti  Ti3       1.0  0.003372442691973779  0.0034074013280324007  0.9993230121293921  1.0000
  Ti  Ti4       1.0  0.008372442908748598  0.006740734839615251  0.9994109044827351  1.0000
  Ti  Ti5       1.0  0.0017057761961481119  7.406804943795211e-05  0.9992351197770984  1.0000
  Ti  Ti6       1.0  0.005039109552168751  0.0034074013280324007  0.9990593354151939  1.0000
  Ti  Ti7       1.0  0.005039109188358655  0.006740734839615251  0.9994109044827351  1.0000
  Ti  Ti8       1.0  0.008372442583447305  7.406804943795211e-05  0.9992351197770984  1.0000
  Ti  Ti9       1.0  0.001705776065885628  0.0034074013280324007  0.9990593354151939  1.0000
  Ti  Ti10      1.0  0.006705775580339985  0.006740734839615251  0.9996745809058974  1.0000
  Ti  Ti11      1.0  0.009960890159892601  0.0002302528451430467  1.0370092367425741e-06  1.0000
  Ti  Ti12      1.0  0.0034141308123883745  0.0033238921145287265  0.9998504684952454  1.0000
  Ti  Ti13      1.0  0.008414089484187417  0.006671787754745161  0.9999340175315178  1.0000
  Ti  Ti14      1.0  0.0017944779204008185  0.0099259316899364  0.9997631893769066  1.0000
  Ti  Ti15      1.0  0.005039109552168751  0.0034074013280324007  0.9995866888435904  1.0000
  Ti  Ti16      1.0  0.005065305562692266  0.0066723029644090446  0.9999339977331883  1.0000
  Ti  Ti17      1.0  0.008431769654955212  0.009924768611832903  0.9997632033470178  1.0000
  Ti  Ti18      1.0  0.001705776065885628  0.0034074013280324007  0.9995866888435904  1.0000
