data_image0
_chemical_formula_structural       COCa8Zn8Si8Ca8Zn8Si8
_chemical_formula_sum              "C1 O1 Ca16 Zn16 Si16"
_cell_length_a       7.418883323669434
_cell_length_b       17.17689705663423
_cell_length_c       99.98306274414062
_cell_angle_alpha    97.16238271921372
_cell_angle_beta     90.0
_cell_angle_gamma    77.52842232690917

_space_group_name_H-M_alt    "P 1"
_space_group_IT_number       1

loop_
  _space_group_symop_operation_xyz
  'x, y, z'

loop_
  _atom_site_type_symbol
  _atom_site_label
  _atom_site_symmetry_multiplicity
  _atom_site_fract_x
  _atom_site_fract_y
  _atom_site_fract_z
  _atom_site_occupancy
  C   C1        1.0  0.0082426452830216  0.0007246121426067049  0.00018048419680205527  1.0000
  O   O1        1.0  0.0082426452830216  0.0007246121426067049  0.0003005047681802642  1.0000
  Ca  Ca1       1.0  0.006354166189889799  0.008098543059449027  0.9995128493414632  1.0000
  Ca  Ca2       1.0  0.00885416628842896  0.003098542862370705  0.9994057488423345  1.0000
  Ca  Ca3       1.0  0.0038541666097961645  0.003098542862370705  0.9996199499752244  1.0000
  Ca  Ca4       1.0  0.0013541665112570035  0.008098543059449027  0.9997270504743532  1.0000
  Ca  Ca5       1.0  0.0076041663511356985  0.005598542736957228  0.9994592990871017  1.0000
  Ca  Ca6       1.0  0.00010416663521427284  0.0005985427638315442  0.9993521985927701  1.0000
  Ca  Ca7       1.0  0.005104166659065744  0.0005985427638315442  0.9995663997256601  1.0000
  Ca  Ca8       1.0  0.0026041666725029034  0.005598542736957228  0.9996735002199917  1.0000
  Zn  Zn1       1.0  0.008645832830057014  0.006848542898203127  0.9997002753471724  1.0000
  Zn  Zn2       1.0  0.0011458332642742958  0.0018485428131011247  0.9995931748504423  1.0000
  Zn  Zn3       1.0  0.006145833193975219  0.0018485428131011247  0.9993789737175524  1.0000
  Zn  Zn4       1.0  0.0036458331514242184  0.006848542898203127  0.9994860742142825  1.0000
  Zn  Zn5       1.0  0.004062499773675223  0.00934854277278965  0.9997538255919397  1.0000
  Zn  Zn6       1.0  0.006562499648261745  0.004348543023616605  0.9996467251024052  1.0000
  Zn  Zn7       1.0  0.0015624997185608213  0.004348543023616605  0.9994325239695152  1.0000
  Zn  Zn8       1.0  0.009062499452308017  0.00934854277278965  0.9995396244590498  1.0000
  Si  Si1       1.0  0.005312499710968484  0.006848542898203127  0.9997002753471724  1.0000
  Si  Si2       1.0  0.007812499753519484  0.0018485428131011247  0.9995931748504423  1.0000
  Si  Si3       1.0  0.002812499823818561  0.0018485428131011247  0.9993789737175524  1.0000
  Si  Si4       1.0  0.00031249978126756  0.006848542898203127  0.9994860742142825  1.0000
  Si  Si5       1.0  0.0073958328927637524  0.00934854277278965  0.9997538255919397  1.0000
  Si  Si6       1.0  0.009895832767350276  0.004348543023616605  0.9996467251024052  1.0000
  Si  Si7       1.0  0.00489583308871748  0.004348543023616605  0.9994325239695152  1.0000
  Si  Si8       1.0  0.0023958332141309573  0.00934854277278965  0.9995396244590498  1.0000
  Ca  Ca9       1.0  0.00626915799027532  0.008097961678399827  0.9999108314626144  1.0000
  Ca  Ca10      1.0  0.00885416628842896  0.003098542862370705  0.9998341508100407  1.0000
  Ca  Ca11      1.0  0.003881979188327625  0.003110395779708919  3.5251535265389383e-05  1.0000
  Ca  Ca12      1.0  0.0015932162628594327  0.008090493305815561  0.00014868900967781486  1.0000
  Ca  Ca13      1.0  0.007683990980219309  0.005681338923172076  0.9998965657308582  1.0000
  Ca  Ca14      1.0  0.00010416663521427284  0.0005985427638315442  0.9997806005604764  1.0000
  Ca  Ca15      1.0  0.005168207482057144  0.0005996085544375331  0.999982979669643  1.0000
  Ca  Ca16      1.0  0.002525411648778733  0.0056312940186973  9.004647416559055e-05  1.0000
  Zn  Zn9       1.0  0.00793871175524284  0.0073524381261500776  0.00013500923325544155  1.0000
  Zn  Zn10      1.0  0.0007807970546532459  0.0018513271042776228  7.5804941013110646e-06  1.0000
  Zn  Zn11      1.0  0.006145833193975219  0.0018485428131011247  0.9998073756852585  1.0000
  Zn  Zn12      1.0  0.0036109559163643385  0.006849963653740927  0.9999146067674792  1.0000
  Zn  Zn13      1.0  0.004530590300435848  0.00925440204172568  0.00015640092796270972  1.0000
  Zn  Zn14      1.0  0.00692234964210883  0.004413523329544079  5.918000702127849e-05  1.0000
  Zn  Zn15      1.0  0.0015624997185608213  0.004348543023616605  0.9998609259372214  1.0000
  Zn  Zn16      1.0  0.009061378879792184  0.00932391962810647  0.9999866156558372  1.0000
  Si  Si9       1.0  0.005179283664346021  0.0067844628818818885  0.00012865618078460248  1.0000
  Si  Si10      1.0  0.007556873196434193  0.0018593789854611524  2.5024549209781833e-05  1.0000
  Si  Si11      1.0  0.002812499823818561  0.0018485428131011247  0.9998073756852585  1.0000
  Si  Si12      1.0  0.00026320649025793986  0.006890171662528069  0.9999227785828037  1.0000
  Si  Si13      1.0  0.007727625748506298  0.008910374060961212  0.00019086109434758634  1.0000
  Si  Si14      1.0  0.00017779017998234908  0.004324890937573385  7.903491172312991e-05  1.0000
  Si  Si15      1.0  0.00489583308871748  0.004348543023616605  0.9998609259372214  1.0000
  Si  Si16      1.0  0.002374503712789422  0.00940145740637246  0.9999741066947258  1.0000
