data_image0
_chemical_formula_structural       HMo6Ni12Mo6Ni12
_chemical_formula_sum              "H1 Mo12 Ni24"
_cell_length_a       8.973188951243479
_cell_length_b       6.853026120644097
_cell_length_c       99.6248779296875
_cell_angle_alpha    90.50203126311477
_cell_angle_beta     92.28669751470761
_cell_angle_gamma    95.93738414090548

_space_group_name_H-M_alt    "P 1"
_space_group_IT_number       1

loop_
  _space_group_symop_operation_xyz
  'x, y, z'

loop_
  _atom_site_type_symbol
  _atom_site_label
  _atom_site_symmetry_multiplicity
  _atom_site_fract_x
  _atom_site_fract_y
  _atom_site_fract_z
  _atom_site_occupancy
  H   H1        1.0  0.00273319746117646  0.0041969514585017366  1.4121213613074895e-05  1.0000
  Mo  Mo1       1.0  0.0043165423639723735  0.004145939278644657  0.9998909949608971  1.0000
  Mo  Mo2       1.0  0.0014318133958881338  0.00881554286104672  0.9999964044769127  1.0000
  Mo  Mo3       1.0  0.00013098893193908784  0.005002749647253185  0.9996433547553558  1.0000
  Mo  Mo4       1.0  0.002218089200153662  0.009580583722518526  0.9997703131758283  1.0000
  Mo  Mo5       1.0  0.0009643223311674348  0.005836082951435817  0.9993955511592875  1.0000
  Mo  Mo6       1.0  0.003047655571748225  0.00041941633760479735  0.9995194528195229  1.0000
  Ni  Ni1       1.0  0.0019462442490899212  0.005921887678369065  0.9998499967160988  1.0000
  Ni  Ni2       1.0  0.004100204414885561  0.0006420321639619596  0.9999688515308701  1.0000
  Ni  Ni3       1.0  0.001697741389983723  0.0024241537941830774  0.9999299060296543  1.0000
  Ni  Ni4       1.0  0.0037841764153955875  0.007097377347197034  3.584625615926765e-05  1.0000
  Ni  Ni5       1.0  0.0027856776252996574  0.0067962229024402495  0.9996023303957374  1.0000
  Ni  Ni6       1.0  0.004869010865880448  0.0013795562886092301  0.9997262323551183  1.0000
  Ni  Ni7       1.0  0.0024763002531206246  0.003209276392066121  0.9996843788801973  1.0000
  Ni  Ni8       1.0  0.004569619548022472  0.007775523609864821  0.999805339246227  1.0000
  Ni  Ni9       1.0  0.0036190110504960523  0.007629556206622881  0.9993545267997623  1.0000
  Ni  Ni10      1.0  0.0007023443284708308  0.0022128895927918616  0.9994784286949614  1.0000
  Ni  Ni11      1.0  0.003309633678317019  0.004042609696248752  0.9994365752842223  1.0000
  Ni  Ni12      1.0  0.00039296692378698226  0.008625942869253224  0.9995604772195605  1.0000
  Mo  Mo7       1.0  0.009316542014961814  0.004145939278644657  0.9998909947248137  1.0000
  Mo  Mo8       1.0  0.006431813150749765  0.00881554286104672  0.9999964042412027  1.0000
  Mo  Mo9       1.0  0.005130988972449242  0.005002749647253185  0.9996433548198177  1.0000
  Mo  Mo10      1.0  0.007218089266631864  0.009580583722518526  0.9997703129412381  1.0000
  Mo  Mo11      1.0  0.005964322397645636  0.005836082951435817  0.9993955512238426  1.0000
  Mo  Mo12      1.0  0.008047655222737664  0.00041941633760479735  0.9995194528825849  1.0000
  Ni  Ni13      1.0  0.006946244107823742  0.005921887678369065  0.9998499964807619  1.0000
  Ni  Ni14      1.0  0.009100204065875002  0.0006420321639619596  0.9999688518930775  1.0000
  Ni  Ni15      1.0  0.006697741352589734  0.0024241537941830774  0.9999299057946908  1.0000
  Ni  Ni16      1.0  0.00878417627412941  0.007097377347197034  3.5846020822463425e-05  1.0000
  Ni  Ni17      1.0  0.0077856776917778585  0.0067962229024402495  0.9996023304602926  1.0000
  Ni  Ni18      1.0  0.009869010516869888  0.0013795562886092301  0.9997262321190349  1.0000
  Ni  Ni19      1.0  0.0074763003195988265  0.003209276392066121  0.9996843789447525  1.0000
  Ni  Ni20      1.0  0.009569619614500674  0.007775523609864821  0.9998053390116368  1.0000
  Ni  Ni21      1.0  0.008619011116974253  0.007629556206622881  0.9993545268643176  1.0000
  Ni  Ni22      1.0  0.005702344291076842  0.0022128895927918616  0.9994784287591432  1.0000
  Ni  Ni23      1.0  0.008309633744795222  0.004042609696248752  0.9994365753487774  1.0000
  Ni  Ni24      1.0  0.005392966652680565  0.008625942869253224  0.9995604772829025  1.0000
