data_image0
_chemical_formula_structural       COAs12Ca12Cu12
_chemical_formula_sum              "C1 O1 As12 Ca12 Cu12"
_cell_length_a       9.118173970379555
_cell_length_b       10.921941040044612
_cell_length_c       99.02141571044922
_cell_angle_alpha    83.12244878221325
_cell_angle_beta     85.69096417830296
_cell_angle_gamma    67.59601643252638

_space_group_name_H-M_alt    "P 1"
_space_group_IT_number       1

loop_
  _space_group_symop_operation_xyz
  'x, y, z'

loop_
  _atom_site_type_symbol
  _atom_site_label
  _atom_site_symmetry_multiplicity
  _atom_site_fract_x
  _atom_site_fract_y
  _atom_site_fract_z
  _atom_site_occupancy
  C   C1        1.0  0.0011872959214757955  0.0018168640906594325  0.999881809332732  1.0000
  O   O1        1.0  0.0011872959214757955  0.0018168640906594325  2.9948826249333032e-06  1.0000
  As  As1       1.0  0.0015324301090853996  0.000452349969398988  0.9997226306884688  1.0000
  As  As2       1.0  0.005307783150551437  0.007083333175148716  0.9995695062592029  1.0000
  As  As3       1.0  0.007630714052471978  0.004000761848755511  0.9998533631445666  1.0000
  As  As4       1.0  0.000568045847819896  0.006542052601542186  0.9996898082866695  1.0000
  As  As5       1.0  0.004276036736696767  0.003194444431262393  0.999546245750689  1.0000
  As  As6       1.0  0.0067859561376270635  0.0097198498319415  0.9998312493437241  1.0000
  As  As7       1.0  0.002926830357660592  0.0004166666709920273  0.9992903801429777  1.0000
  As  As8       1.0  0.006736354443331689  0.007083333175148716  0.9991508172021267  1.0000
  As  As9       1.0  0.00911730684291765  0.0037499998072124973  0.9994299431388026  1.0000
  As  As10      1.0  0.0018950845033101845  0.006527777428453414  0.9992671195167915  1.0000
  As  As11      1.0  0.005704608439191777  0.003194444431262393  0.999127556690778  1.0000
  As  As12      1.0  0.008085561255749385  0.009861110425644434  0.9994066825126042  1.0000
  Ca  Ca1       1.0  0.00016840801073802122  0.00865712058683899  0.9998832993757482  1.0000
  Ca  Ca2       1.0  0.004250204759990866  0.005070544150497351  0.9997568330567073  1.0000
  Ca  Ca3       1.0  0.007909961462096144  0.0018106207415316813  0.9996247177839784  1.0000
  Ca  Ca4       1.0  0.004791909634155509  0.00013888889033067576  0.9995578756146772  1.0000
  Ca  Ca5       1.0  0.007208823526326965  0.006847730533990774  0.9998239979240505  1.0000
  Ca  Ca6       1.0  0.0009742832675281811  0.0035220919826309495  0.9996884366862773  1.0000
  Ca  Ca7       1.0  0.0016966718589900146  0.008472221800396576  0.9994880941505196  1.0000
  Ca  Ca8       1.0  0.005506195385156849  0.0051388888032055545  0.9993485313273409  1.0000
  Ca  Ca9       1.0  0.009315719896952577  0.001805555435269336  0.9992089682012714  1.0000
  Ca  Ca10      1.0  0.006220481336650518  0.00013888889033067576  0.9991391868557349  1.0000
  Ca  Ca11      1.0  0.00860143396623383  0.006805555301801065  0.9994183126733458  1.0000
  Ca  Ca12      1.0  0.0024109573799940037  0.0034722219338648463  0.9992787499822484  1.0000
  Cu  Cu1       1.0  0.0035546274552838305  0.008277405579918096  0.9997416848739921  1.0000
  Cu  Cu2       1.0  0.00740898130905116  0.004870220510108377  0.9996145040248683  1.0000
  Cu  Cu3       1.0  0.009584885444034645  0.001861615631227333  0.9998678113658508  1.0000
  Cu  Cu4       1.0  0.008404234345075114  0.008754854952852126  0.9996359146666566  1.0000
  Cu  Cu5       1.0  0.0008506430529519431  0.005546728911562334  0.999920853193083  1.0000
  Cu  Cu6       1.0  0.004892368620458404  0.0018473725275981539  0.999762176787628  1.0000
  Cu  Cu7       1.0  0.004990322674672406  0.008194443927048925  0.9993369011665995  1.0000
  Cu  Cu8       1.0  0.008799846200839241  0.004861110929857903  0.9991973380424523  1.0000
  Cu  Cu9       1.0  0.0011807986484342339  0.0015277777472942837  0.9994764641027544  1.0000
  Cu  Cu10      1.0  0.009831593024408667  0.008749999673744227  0.9992205985481315  1.0000
  Cu  Cu11      1.0  0.002212544735673834  0.005416666305808008  0.9994997246159766  1.0000
  Cu  Cu12      1.0  0.006022068344940357  0.002083333123244388  0.9993601614937029  1.0000
