data_image0
_chemical_formula_structural       COCa4Ge8Rh8
_chemical_formula_sum              "C1 O1 Ca4 Ge8 Rh8"
_cell_length_a       6.063525924016029
_cell_length_b       5.9566850662231445
_cell_length_c       105.7401123046875
_cell_angle_alpha    90.0
_cell_angle_beta     90.0
_cell_angle_gamma    119.41881856496127

_space_group_name_H-M_alt    "P 1"
_space_group_IT_number       1

loop_
  _space_group_symop_operation_xyz
  'x, y, z'

loop_
  _atom_site_type_symbol
  _atom_site_label
  _atom_site_symmetry_multiplicity
  _atom_site_fract_x
  _atom_site_fract_y
  _atom_site_fract_z
  _atom_site_occupancy
  C   C1        1.0  0.004555798371757594  0.008944573890975806  0.00016169786100115097  1.0000
  O   O1        1.0  0.004555798371757594  0.008944573890975806  0.0002751833155982928  1.0000
  Ca  Ca1       1.0  0.001223309352514738  0.0006116629252304631  0.9991563443301408  1.0000
  Ca  Ca2       1.0  0.001223309352514738  0.005611662893968055  0.9994380106445236  1.0000
  Ca  Ca3       1.0  0.0012239697149607517  0.0006119962064533806  0.9997170462176382  1.0000
  Ca  Ca4       1.0  0.0012232236552787534  0.005611622546936269  0.99999383830452  1.0000
  Ge  Ge1       1.0  0.008701396167237037  0.004350706276314774  0.9991563443301408  1.0000
  Ge  Ge2       1.0  0.008701396167237037  0.009350706301329205  0.9994380106445236  1.0000
  Ge  Ge3       1.0  0.003745222424940111  0.001872619409326373  0.9994380106445236  1.0000
  Ge  Ge4       1.0  0.003745222424940111  0.006872619430180742  0.9991563443301408  1.0000
  Ge  Ge5       1.0  0.00864547360713595  0.004322727496310948  0.9997215422091439  1.0000
  Ge  Ge6       1.0  0.008776776584532442  0.009388374933795882  0.9999998472400078  1.0000
  Ge  Ge7       1.0  0.0036673948754615882  0.0018337247346522443  0.0  1.0000
  Ge  Ge8       1.0  0.0037993950686422023  0.006899722012342125  0.9997215326264137  1.0000
  Rh  Rh1       1.0  0.0062233092960885745  0.0006116628907708355  0.9990155111729493  1.0000
  Rh  Rh2       1.0  0.0062233092960885745  0.005611662978326354  0.9992971774873323  1.0000
  Rh  Rh3       1.0  0.0062233092960885745  0.005611662978326354  0.9990155111729493  1.0000
  Rh  Rh4       1.0  0.0062233092960885745  0.0006116628907708355  0.9992971774873323  1.0000
  Rh  Rh5       1.0  0.0062233092960885745  0.0006116628907708355  0.9995788435198701  1.0000
  Rh  Rh6       1.0  0.0062229340621005585  0.005611320575685863  0.999866528916161  1.0000
  Rh  Rh7       1.0  0.0062233092960885745  0.005611662978326354  0.9995788435198701  1.0000
  Rh  Rh8       1.0  0.006222932651446468  0.0006116251326695429  0.9998665328619911  1.0000
