data_image0
_chemical_formula_structural       COZn8Cu16Sn8Se32
_chemical_formula_sum              "C1 O1 Zn8 Cu16 Sn8 Se32"
_cell_length_a       24.077817891290717
_cell_length_b       8.255067825317383
_cell_length_c       103.02027130126953
_cell_angle_alpha    90.0
_cell_angle_beta     80.1293326352192
_cell_angle_gamma    80.1293326352192

_space_group_name_H-M_alt    "P 1"
_space_group_IT_number       1

loop_
  _space_group_symop_operation_xyz
  'x, y, z'

loop_
  _atom_site_type_symbol
  _atom_site_label
  _atom_site_symmetry_multiplicity
  _atom_site_fract_x
  _atom_site_fract_y
  _atom_site_fract_z
  _atom_site_occupancy
  C   C1        1.0  0.008016783863531107  0.00854270067052052  0.9996290604311401  1.0000
  O   O1        1.0  0.008016783863531107  0.00854270067052052  0.9997455425969034  1.0000
  Zn  Zn1       1.0  0.005711067908125073  0.0021702348788865196  0.9993822632737784  1.0000
  Zn  Zn2       1.0  0.0004747609006398276  0.004799700897459782  0.999527553437789  1.0000
  Zn  Zn3       1.0  0.0007151074680784344  0.009664135824473853  0.9991713060314087  1.0000
  Zn  Zn4       1.0  0.005715107758325054  0.007164135679350543  0.9989709797218327  1.0000
  Zn  Zn5       1.0  0.008215107783841241  0.0009141354319304226  0.9988708165718369  1.0000
  Zn  Zn6       1.0  0.0032151074138565385  0.0034141356169227733  0.9990711428846075  1.0000
  Zn  Zn7       1.0  0.0030161417614603197  0.00852752511056658  0.9994322569103689  1.0000
  Zn  Zn8       1.0  0.008215107783841241  0.0059141356665924506  0.9992714690057309  1.0000
  Cu  Cu1       1.0  0.006965107452130818  0.00903913572414211  0.9991212240872748  1.0000
  Cu  Cu2       1.0  0.0019647638894400386  0.001515290731441415  0.9993280927566386  1.0000
  Cu  Cu3       1.0  0.00196510756057461  0.006539135435258187  0.9989208979469829  1.0000
  Cu  Cu4       1.0  0.006754063075032775  0.004109199794361165  0.9994809549984213  1.0000
  Cu  Cu5       1.0  0.006965107452130818  0.004039135489480082  0.9991212240872748  1.0000
  Cu  Cu6       1.0  0.0019661357034073622  0.006590563352413755  0.9993286904237759  1.0000
  Cu  Cu7       1.0  0.00196510756057461  0.0015391356518692889  0.9989208979469829  1.0000
  Cu  Cu8       1.0  0.006754475161441932  0.009207733900550087  0.9994811774383098  1.0000
  Cu  Cu9       1.0  0.009465107477647004  0.002789135476721989  0.9990210609372788  1.0000
  Cu  Cu10      1.0  0.004465107426614632  0.005289135502238175  0.9992213872372706  1.0000
  Cu  Cu11      1.0  0.004465107426614632  0.0002891357188492781  0.9988207348033765  1.0000
  Cu  Cu12      1.0  0.009383039767568364  0.007797874656125748  0.9994222537968362  1.0000
  Cu  Cu13      1.0  0.009465107477647004  0.007789135711384017  0.9990210609372788  1.0000
  Cu  Cu14      1.0  0.004465107426614632  0.0002891357188492781  0.9992213872372706  1.0000
  Cu  Cu15      1.0  0.004465107426614632  0.005289135502238175  0.9988207348033765  1.0000
  Cu  Cu16      1.0  0.009382385915293773  0.002890774163733657  0.9994221816363568  1.0000
  Sn  Sn1       1.0  0.008215107783841241  0.0009141354319304226  0.9992714690057309  1.0000
  Sn  Sn2       1.0  0.003292328324342654  0.0033837577373959818  0.9994895311919498  1.0000
  Sn  Sn3       1.0  0.0032151074138565385  0.008414135851584802  0.9990711428846075  1.0000
  Sn  Sn4       1.0  0.008215107783841241  0.0059141356665924506  0.9988708165718369  1.0000
  Sn  Sn5       1.0  0.005715107758325054  0.002164135444688516  0.9989709797218327  1.0000
  Sn  Sn6       1.0  0.0007151074680784344  0.004664135589811826  0.9991713060314087  1.0000
  Sn  Sn7       1.0  0.0006844243337601273  0.00969285312721543  0.9995803210072763  1.0000
  Sn  Sn8       1.0  0.005668423343823956  0.007192783956067291  0.9993728603639886  1.0000
  Se  Se1       1.0  0.007539107459520306  0.008842695407145688  0.9988979007003133  1.0000
  Se  Se2       1.0  0.0025391075679640973  0.0013426955605094326  0.9990982269939156  1.0000
  Se  Se3       1.0  0.0025298365806150636  0.006251903944527554  0.9995052466139975  1.0000
  Se  Se4       1.0  0.007539107459520306  0.003842695623756791  0.9992985531342073  1.0000
  Se  Se5       1.0  0.006391107444741331  0.0018261356014803772  0.9991514785752159  1.0000
  Se  Se6       1.0  0.0013641251430029147  0.004358210179855799  0.9993562075079591  1.0000
  Se  Se7       1.0  0.0013911075531851222  0.00932613578192051  0.9989511521456381  1.0000
  Se  Se8       1.0  0.006325586343590105  0.00687176489130197  0.9995501489601718  1.0000
  Se  Se9       1.0  0.0062994762680279  0.0018859555488900388  0.9995543095202224  1.0000
  Se  Se10      1.0  0.0013911075531851222  0.004326135547258482  0.9989366389562145  1.0000
  Se  Se11      1.0  0.0013718528795077507  0.009347987205313064  0.9993415267441932  1.0000
  Se  Se12      1.0  0.006391107444741331  0.006826135836142405  0.9991369650965063  1.0000
  Se  Se13      1.0  0.007539107459520306  0.003661575799087016  0.9988979007003133  1.0000
  Se  Se14      1.0  0.0025391075679640973  0.00616157574486512  0.9990982269939156  1.0000
  Se  Se15      1.0  0.00252742896895909  0.001286489317325455  0.9995049160894449  1.0000
  Se  Se16      1.0  0.007539107459520306  0.008661576033749044  0.9992985531342073  1.0000
  Se  Se17      1.0  0.009960892719093  0.002562469841502568  0.9996009142474671  1.0000
  Se  Se18      1.0  0.005039107434004119  0.005092695636514885  0.9989980638503092  1.0000
  Se  Se19      1.0  0.005028536396961802  8.84243092934156e-05  0.999396955706233  1.0000
  Se  Se20      1.0  3.910750008705485e-05  0.007592695603473416  0.9991983901456086  1.0000
  Se  Se21      1.0  0.008851949054913119  0.0006077904140884792  0.9994507376198367  1.0000
  Se  Se22      1.0  0.003891107419225144  0.0030761356142384702  0.9988509890020317  1.0000
  Se  Se23      1.0  0.003891107419225144  0.008076135848900498  0.9992516417252119  1.0000
  Se  Se24      1.0  0.008891107470257517  0.0055761358233843115  0.9990513154252201  1.0000
  Se  Se25      1.0  0.008891107470257517  0.0005761355887222837  0.9990368019465105  1.0000
  Se  Se26      1.0  0.003891107419225144  0.0030761356142384702  0.9992371282465022  1.0000
  Se  Se27      1.0  0.003891107419225144  0.008076135848900498  0.998836475812608  1.0000
  Se  Se28      1.0  0.008830978577181525  0.0056190525286735704  0.9994430722204463  1.0000
  Se  Se29      1.0  0.009959278820307912  0.007543689966609113  0.9996017582452297  1.0000
  Se  Se30      1.0  0.005039107434004119  0.009911576046507137  0.9989980638503092  1.0000
  Se  Se31      1.0  0.005030241197160674  0.004934942094449037  0.9993963018881029  1.0000
  Se  Se32      1.0  3.910750008705485e-05  0.0024115757697781787  0.9991983901456086  1.0000
