data_image0
_chemical_formula_structural       HZn4Se4Zn4Se4
_chemical_formula_sum              "H1 Zn8 Se8"
_cell_length_a       7.108276844024658
_cell_length_b       7.895686200944844
_cell_length_c       102.83172607421875
_cell_angle_alpha    105.06333228291714
_cell_angle_beta     90.0
_cell_angle_gamma    63.24754281493266

_space_group_name_H-M_alt    "P 1"
_space_group_IT_number       1

loop_
  _space_group_symop_operation_xyz
  'x, y, z'

loop_
  _atom_site_type_symbol
  _atom_site_label
  _atom_site_symmetry_multiplicity
  _atom_site_fract_x
  _atom_site_fract_y
  _atom_site_fract_z
  _atom_site_occupancy
  H   H1        1.0  0.005941966854084976  0.009914620316657215  0.00024359433334747945  1.0000
  Zn  Zn1       1.0  0.001347078430850766  8.53789992085814e-05  0.9995875438858792  1.0000
  Zn  Zn2       1.0  0.006347078598555671  8.53789992085814e-05  0.9997870917629949  1.0000
  Zn  Zn3       1.0  0.005513745157822094  0.0050853789764271195  0.9996873177080559  1.0000
  Zn  Zn4       1.0  0.0005137452521561034  0.0050853789764271195  0.9994877701207567  1.0000
  Se  Se1       1.0  0.009477916066887653  0.0038237054461100865  0.9996621413098494  1.0000
  Se  Se2       1.0  0.004477915375104919  0.0038237054461100865  0.9994625937225502  1.0000
  Se  Se3       1.0  0.003644581994776733  0.008823705302517842  0.9997619151296153  1.0000
  Se  Se4       1.0  0.008644582162481639  0.008823705302517842  0.9995623675423161  1.0000
  Zn  Zn5       1.0  0.0014302910350991716  0.0004630492967770866  0.999993671101769  1.0000
  Zn  Zn6       1.0  0.0063156297717068925  0.009167294481413384  0.00011616039844496959  1.0000
  Zn  Zn7       1.0  0.005777554079736855  0.00535498832652491  4.7678757677590116e-05  1.0000
  Zn  Zn8       1.0  0.0005137452521561034  0.0050853789764271195  0.9998868655851715  1.0000
  Se  Se5       1.0  0.00948625553839483  0.0041549219440513005  8.291048901848428e-05  1.0000
  Se  Se6       1.0  0.004477915375104919  0.0038237054461100865  0.999861689186965  1.0000
  Se  Se7       1.0  0.003365914443937326  0.008917388748617184  0.00017995803713183252  1.0000
  Se  Se8       1.0  0.008847138245039746  0.008886909085661848  0.9999592794654103  1.0000
