data_image0
_chemical_formula_structural       HAl12V4Al12V4
_chemical_formula_sum              "H1 Al24 V8"
_cell_length_a       9.17975134998285
_cell_length_b       5.358663558959961
_cell_length_c       102.15198516845703
_cell_angle_alpha    90.0
_cell_angle_beta     73.02981022563301
_cell_angle_gamma    73.02981022563301

_space_group_name_H-M_alt    "P 1"
_space_group_IT_number       1

loop_
  _space_group_symop_operation_xyz
  'x, y, z'

loop_
  _atom_site_type_symbol
  _atom_site_label
  _atom_site_symmetry_multiplicity
  _atom_site_fract_x
  _atom_site_fract_y
  _atom_site_fract_z
  _atom_site_occupancy
  H   H1        1.0  0.004367849726064334  0.0065660752481982625  0.9998854362099793  1.0000
  Al  Al1       1.0  0.008750000499008427  0.0006249997643995898  0.9998546919850347  1.0000
  Al  Al2       1.0  0.008750000499008427  0.005624999778303393  0.9995924033857352  1.0000
  Al  Al3       1.0  0.006250000356434591  0.0043750000164359554  0.9997891201715385  1.0000
  Al  Al4       1.0  0.006250000356434591  0.009375000377934851  0.9995268315722391  1.0000
  Al  Al5       1.0  0.006250000356434591  0.009375000377934851  0.9997891201715385  1.0000
  Al  Al6       1.0  0.006250000356434591  0.0043750000164359554  0.9995268315722391  1.0000
  Al  Al7       1.0  0.0037500002138607545  0.0031249999069734263  0.9997235477745526  1.0000
  Al  Al8       1.0  0.0037500002138607545  0.00812499992087723  0.9994612591752531  1.0000
  Al  Al9       1.0  0.0012500000712869182  0.006875000159009792  0.9996579759610565  1.0000
  Al  Al10      1.0  0.0012500000712869182  0.0018749999713084428  0.999920264560356  1.0000
  Al  Al11      1.0  0.0012500000712869182  0.0018749999713084428  0.9996579759610565  1.0000
  Al  Al12      1.0  0.0012500000712869182  0.006875000159009792  0.999920264560356  1.0000
  V   V1        1.0  0.0037500002138607545  0.0031249999069734263  0.9994612591752531  1.0000
  V   V2        1.0  0.0037500002138607545  0.00812499992087723  0.9997235477745526  1.0000
  V   V3        1.0  0.008750000499008427  0.0006249997643995898  0.9995924033857352  1.0000
  V   V4        1.0  0.008750000499008427  0.005624999778303393  0.9998546919850347  1.0000
  Al  Al13      1.0  0.008750000499008427  0.0006249997643995898  0.9993301147864356  1.0000
  Al  Al14      1.0  0.008750000499008427  0.005624999778303393  0.9990678258953912  1.0000
  Al  Al15      1.0  0.006250000356434591  0.0043750000164359554  0.9992645423894497  1.0000
  Al  Al16      1.0  0.006250000356434591  0.009375000377934851  0.9990022537901502  1.0000
  Al  Al17      1.0  0.006250000356434591  0.009375000377934851  0.9992645423894497  1.0000
  Al  Al18      1.0  0.006250000356434591  0.0043750000164359554  0.9990022537901502  1.0000
  Al  Al19      1.0  0.0037500002138607545  0.0031249999069734263  0.9991989702842087  1.0000
  Al  Al20      1.0  0.0037500002138607545  0.00812499992087723  0.9989366816849091  1.0000
  Al  Al21      1.0  0.0012500000712869182  0.006875000159009792  0.9991333981789676  1.0000
  Al  Al22      1.0  0.0012500000712869182  0.0018749999713084428  0.9993956867782672  1.0000
  Al  Al23      1.0  0.0012500000712869182  0.0018749999713084428  0.9991333981789676  1.0000
  Al  Al24      1.0  0.0012500000712869182  0.006875000159009792  0.9993956867782672  1.0000
  V   V5        1.0  0.0037500002138607545  0.0031249999069734263  0.9989366816849091  1.0000
  V   V6        1.0  0.0037500002138607545  0.00812499992087723  0.9991989702842087  1.0000
  V   V7        1.0  0.008750000499008427  0.0006249997643995898  0.9990678258953912  1.0000
  V   V8        1.0  0.008750000499008427  0.005624999778303393  0.9993301147864356  1.0000
