data_image0
_chemical_formula_structural       COCo8Zn24
_chemical_formula_sum              "C1 O1 Co8 Zn24"
_cell_length_a       5.337558746337891
_cell_length_b       6.5371479988098145
_cell_length_c       106.97969055175781
_cell_angle_alpha    90.0
_cell_angle_beta     90.0
_cell_angle_gamma    90.0

_space_group_name_H-M_alt    "P 1"
_space_group_IT_number       1

loop_
  _space_group_symop_operation_xyz
  'x, y, z'

loop_
  _atom_site_type_symbol
  _atom_site_label
  _atom_site_symmetry_multiplicity
  _atom_site_fract_x
  _atom_site_fract_y
  _atom_site_fract_z
  _atom_site_occupancy
  C   C1        1.0  0.009999989419245089  0.007938776332949243  0.00012992156384925962  1.0000
  O   O1        1.0  0.009999989419245089  0.007938776332949243  0.00024209261479176853  1.0000
  Co  Co1       1.0  1.0400000048123984e-08  0.001605887878980127  0.9994262922128246  1.0000
  Co  Co2       1.0  0.005000010413249558  0.001605887878980127  0.998994204368112  1.0000
  Co  Co3       1.0  1.0400000048123984e-08  0.008272554672916592  0.9991382337425426  1.0000
  Co  Co4       1.0  0.005000010413249558  0.004939221347181455  0.999282262838394  1.0000
  Co  Co5       1.0  0.009999989419245089  0.007938776332949243  0.9999680168730061  1.0000
  Co  Co6       1.0  0.005000010413249558  0.008272554672916592  0.9995703215872552  1.0000
  Co  Co7       1.0  1.0400000048123984e-08  0.004939221347181455  0.9997143509616859  1.0000
  Co  Co8       1.0  0.004999970281758301  0.0016289671169704598  0.9998485297736949  1.0000
  Zn  Zn1       1.0  1.0400000048123984e-08  0.001605887878980127  0.998994204368112  1.0000
  Zn  Zn2       1.0  0.005000010413249558  0.008272554672916592  0.9991382337425426  1.0000
  Zn  Zn3       1.0  1.0400000048123984e-08  0.004939221347181455  0.999282262838394  1.0000
  Zn  Zn4       1.0  0.005000010413249558  0.001605887878980127  0.9994262922128246  1.0000
  Zn  Zn5       1.0  0.0025000104411671167  0.004939221347181455  0.9990662190553273  1.0000
  Zn  Zn6       1.0  0.007500010385331999  0.001605887878980127  0.9992102481511786  1.0000
  Zn  Zn7       1.0  0.0025000104411671167  0.008272554672916592  0.9993542778041886  1.0000
  Zn  Zn8       1.0  0.007500010385331999  0.008272554672916592  0.9989221896808967  1.0000
  Zn  Zn9       1.0  0.007500010385331999  0.004939221347181455  0.9990662190553273  1.0000
  Zn  Zn10      1.0  0.0025000104411671167  0.001605887878980127  0.9992102481511786  1.0000
  Zn  Zn11      1.0  0.007500010385331999  0.008272554672916592  0.9993542778041886  1.0000
  Zn  Zn12      1.0  0.0025000104411671167  0.008272554672916592  0.9989221896808967  1.0000
  Zn  Zn13      1.0  1.0400000048123984e-08  0.008272554672916592  0.9995703215872552  1.0000
  Zn  Zn14      1.0  0.005000010413249558  0.004939221347181455  0.9997143509616859  1.0000
  Zn  Zn15      1.0  7.04999998142201e-08  0.0015115058795819771  0.9998766724070931  1.0000
  Zn  Zn16      1.0  0.005000021929242701  0.00848849352775867  0.0  1.0000
  Zn  Zn17      1.0  0.0025000104411671167  0.001605887878980127  0.9996423359958914  1.0000
  Zn  Zn18      1.0  0.007476670607955996  0.00824735240374975  0.9997804650617221  1.0000
  Zn  Zn19      1.0  0.002544239183196542  0.004767329334438805  0.999945093700511  1.0000
  Zn  Zn20      1.0  0.007500010385331999  0.004939221347181455  0.9994983066214607  1.0000
  Zn  Zn21      1.0  0.007500010385331999  0.001605887878980127  0.9996423359958914  1.0000
  Zn  Zn22      1.0  0.002523334165946617  0.008247288009031472  0.9997804684046732  1.0000
  Zn  Zn23      1.0  0.007455807816014263  0.004767380622267521  0.9999450541422569  1.0000
  Zn  Zn24      1.0  0.0025000104411671167  0.004939221347181455  0.9994983066214607  1.0000
