data_image0
_chemical_formula_structural       COAu6Ca12Pd6
_chemical_formula_sum              "C1 O1 Au6 Ca12 Pd6"
_cell_length_a       7.304571628570557
_cell_length_b       8.946237015569043
_cell_length_c       109.3363265991211
_cell_angle_alpha    94.34775306119676
_cell_angle_beta     90.0
_cell_angle_gamma    114.09484147586046

_space_group_name_H-M_alt    "P 1"
_space_group_IT_number       1

loop_
  _space_group_symop_operation_xyz
  'x, y, z'

loop_
  _atom_site_type_symbol
  _atom_site_label
  _atom_site_symmetry_multiplicity
  _atom_site_fract_x
  _atom_site_fract_y
  _atom_site_fract_z
  _atom_site_occupancy
  C   C1        1.0  0.005847630544063103  0.0037981744443447117  0.0001243505614729982  1.0000
  O   O1        1.0  0.005847630544063103  0.0037981744443447117  0.00023410387669724986  1.0000
  Au  Au1       1.0  0.006952101258242022  0.0035286906943089716  0.9997230042285007  1.0000
  Au  Au2       1.0  0.002785434653569092  0.005195357339614722  0.9994231928203331  1.0000
  Au  Au3       1.0  0.0013015958040861599  0.0022252013549539204  1.3802908333034927e-05  1.0000
  Au  Au4       1.0  0.009868767715876865  0.009362023609578659  0.9995730982956529  1.0000
  Au  Au5       1.0  0.005702101331479448  0.0010286908407838257  0.999273287071019  1.0000
  Au  Au6       1.0  0.0040287594258716745  0.007682570396107847  0.9998586962975049  1.0000
  Ca  Ca1       1.0  0.0017437678136949012  0.008112023682816086  0.9993482398531994  1.0000
  Ca  Ca2       1.0  0.00013123188761581165  0.00493045893911427  0.9999443682072062  1.0000
  Ca  Ca3       1.0  0.005910434564675958  0.006445357266377295  0.9996480512627866  1.0000
  Ca  Ca4       1.0  0.005178888586922882  0.0049347639266240665  0.9999442471754965  1.0000
  Ca  Ca5       1.0  0.0009104346054755053  0.006445357266377295  0.9996480512627866  1.0000
  Ca  Ca6       1.0  0.006743767772895353  0.008112023682816086  0.9993482398531994  1.0000
  Ca  Ca7       1.0  0.008827101784455317  0.0022786907675463987  0.9994981452408978  1.0000
  Ca  Ca8       1.0  0.004660434637913384  0.003945357412852149  0.9991983341053049  1.0000
  Ca  Ca9       1.0  0.0029777802719992354  0.0006380896086175785  0.9998087362100829  1.0000
  Ca  Ca10      1.0  0.009660435107108192  0.003945357412852149  0.9991983341053049  1.0000
  Ca  Ca11      1.0  0.008034780194028665  0.000637975747305185  0.9998089590151007  1.0000
  Ca  Ca12      1.0  0.0038271015702576864  0.0022786907675463987  0.9994981452408978  1.0000
  Pd  Pd1       1.0  0.0019521013787281876  0.0035286906943089716  0.9997230042285007  1.0000
  Pd  Pd2       1.0  0.007785434580894897  0.005195357339614722  0.9994231928203331  1.0000
  Pd  Pd3       1.0  0.006339634314005723  0.0023081090976645115  0.9999865260076514  1.0000
  Pd  Pd4       1.0  0.00486876774073909  0.009362023609578659  0.9995730982956529  1.0000
  Pd  Pd5       1.0  0.0007021014519656145  0.0010286908407838257  0.999273287071019  1.0000
  Pd  Pd6       1.0  0.008990064601134412  0.007601401355689224  0.9998506326731262  1.0000
