data_image0
_chemical_formula_structural       HGe8Pt8Ge8Pt8
_chemical_formula_sum              "H1 Ge16 Pt16"
_cell_length_a       6.217412948608398
_cell_length_b       12.385994965764002
_cell_length_c       99.99728393554688
_cell_angle_alpha    107.6218790753152
_cell_angle_beta     90.0
_cell_angle_gamma    90.0

_space_group_name_H-M_alt    "P 1"
_space_group_IT_number       1

loop_
  _space_group_symop_operation_xyz
  'x, y, z'

loop_
  _atom_site_type_symbol
  _atom_site_label
  _atom_site_symmetry_multiplicity
  _atom_site_fract_x
  _atom_site_fract_y
  _atom_site_fract_z
  _atom_site_occupancy
  H   H1        1.0  0.0009816274378569138  0.008196105578810123  0.00030733444108603844  1.0000
  Ge  Ge1       1.0  0.0040735123339962235  0.0009382851907066473  0.9996201697825466  1.0000
  Ge  Ge2       1.0  0.0040735123339962235  0.005938285225419857  0.9998076578769011  1.0000
  Ge  Ge3       1.0  0.005811456340891765  0.0040617146862192465  0.9995498027263398  1.0000
  Ge  Ge4       1.0  0.005811456340891765  0.009061714799826114  0.9997372908236525  1.0000
  Ge  Ge5       1.0  0.0008114560562857872  0.0034382850108291077  0.999713913822328  1.0000
  Ge  Ge6       1.0  0.0008114560562857872  0.008438285124435976  0.999526425769299  1.0000
  Ge  Ge7       1.0  0.00907351239391327  0.0015617147872031287  0.9998310351319731  1.0000
  Ge  Ge8       1.0  0.00907351239391327  0.006561714900809996  0.9996435467809127  1.0000
  Pt  Pt1       1.0  0.008008024905935027  0.004999307742866438  0.9997724484573763  1.0000
  Pt  Pt2       1.0  0.008008024905935027  0.009999307225324043  0.9995849603806808  1.0000
  Pt  Pt3       1.0  0.0018769437689529606  6.923000134977108e-07  0.9997725002080746  1.0000
  Pt  Pt4       1.0  0.0018769437689529606  0.005000692168772665  0.9995850121458645  1.0000
  Pt  Pt5       1.0  0.006876943828870008  0.0024993076860630047  0.99967870440872  1.0000
  Pt  Pt6       1.0  0.006876943828870008  0.007499307326307925  0.9998661924882828  1.0000
  Pt  Pt7       1.0  0.00300802454643274  0.0025006922697565475  0.9998662442534665  1.0000
  Pt  Pt8       1.0  0.00300802454643274  0.007500692067788784  0.9996787561886041  1.0000
  Ge  Ge9       1.0  0.004171937469514206  0.00097477216622464  0.9999897386635835  1.0000
  Ge  Ge10      1.0  0.004174332353921278  0.0059121531213754365  0.00019839634292549628  1.0000
  Ge  Ge11      1.0  0.005811456340891765  0.0040617146862192465  0.9999247791747128  1.0000
  Ge  Ge12      1.0  0.005672345133125135  0.009103261462296699  0.00013738663488397049  1.0000
  Ge  Ge13      1.0  0.0007747321486262985  0.003572704656055765  0.00010045071844856735  1.0000
  Ge  Ge14      1.0  0.0008114560562857872  0.008438285124435976  0.9999014019196407  1.0000
  Ge  Ge15      1.0  0.009225268495481966  0.001555838471999149  0.00020772128333907942  1.0000
  Ge  Ge16      1.0  0.009191511230659736  0.006568985740308396  1.9603831357062777e-05  1.0000
  Pt  Pt9       1.0  0.00786688071273102  0.005070951704620045  0.00013511295759448326  1.0000
  Pt  Pt10      1.0  0.007883857609100795  1.2040899204390535e-05  0.9999792364436629  1.0000
  Pt  Pt11      1.0  0.0020309067651907453  0.009894650685846173  0.00011966503147027026  1.0000
  Pt  Pt12      1.0  0.0019978013978503486  0.004975822994401535  0.9999666868533033  1.0000
  Pt  Pt13      1.0  0.007038582049159205  0.0025731985391893807  5.460707229158001e-05  1.0000
  Pt  Pt14      1.0  0.006739643913463293  0.00744895991852782  0.00020873371269837537  1.0000
  Pt  Pt15      1.0  0.002831742899206679  0.0023831845845801816  0.00020571219309925413  1.0000
  Pt  Pt16      1.0  0.002938986026673344  0.0074297471038428575  4.235942417759197e-05  1.0000
