data_image0
_chemical_formula_structural       HPd12V6
_chemical_formula_sum              "H1 Pd12 V6"
_cell_length_a       4.803231089480091
_cell_length_b       6.186267548923373
_cell_length_c       102.57515716552734
_cell_angle_alpha    84.91047342898852
_cell_angle_beta     87.59432075853103
_cell_angle_gamma    74.08092204421943

_space_group_name_H-M_alt    "P 1"
_space_group_IT_number       1

loop_
  _space_group_symop_operation_xyz
  'x, y, z'

loop_
  _atom_site_type_symbol
  _atom_site_label
  _atom_site_symmetry_multiplicity
  _atom_site_fract_x
  _atom_site_fract_y
  _atom_site_fract_z
  _atom_site_occupancy
  H   H1        1.0  0.0016272341167079814  0.009849141207378355  5.414057126754031e-05  1.0000
  Pd  Pd1       1.0  0.009365073239471649  0.006717177494885479  0.999737180023456  1.0000
  Pd  Pd2       1.0  0.0020772291125183994  0.0029025901577807906  0.9998967437732589  1.0000
  Pd  Pd3       1.0  0.005683405957361398  0.009180346249510783  3.7141401949897813e-05  1.0000
  Pd  Pd4       1.0  0.006287068550251955  0.0049477781622117535  0.999942014452177  1.0000
  Pd  Pd5       1.0  0.0006723897583127749  0.002531811229516686  0.9996349368509113  1.0000
  Pd  Pd6       1.0  0.0035296797369387045  0.008786440961850791  0.9997897407149942  1.0000
  Pd  Pd7       1.0  0.0007936446249175008  0.008145748754731449  0.9992835033911394  1.0000
  Pd  Pd8       1.0  0.003650787365479993  0.0043362249763201355  0.9994347290227992  1.0000
  Pd  Pd9       1.0  0.006507930133454988  0.000526701119379686  0.9995859543642839  1.0000
  Pd  Pd10      1.0  0.007815246698995446  0.006341335164986272  0.9994837110810307  1.0000
  Pd  Pd11      1.0  0.0021009612131358954  0.003960382646420929  0.9991812603701523  1.0000
  Pd  Pd12      1.0  0.004958103943418699  0.00015085889745804126  0.9993324857111334  1.0000
  V   V1        1.0  0.0006349268200495981  0.007071527970826825  0.9999609179499526  1.0000
  V   V2        1.0  0.005018731083347604  0.004624494440730219  0.9996860584375803  1.0000
  V   V3        1.0  0.007709221647505378  0.0009873232689856463  0.999829521853025  1.0000
  V   V4        1.0  0.0021615888405672272  0.008434017905024987  0.9995348328066227  1.0000
  V   V5        1.0  0.00644730270264574  0.006053065386459645  0.9992323819590189  1.0000
  V   V6        1.0  0.009304445721690327  0.0022435419221648756  0.9993836072979093  1.0000
