data_image0
_chemical_formula_structural       CORu8Se16
_chemical_formula_sum              "C1 O1 Ru8 Se16"
_cell_length_a       8.535223007202148
_cell_length_b       6.035313606262207
_cell_length_c       104.1408920288086
_cell_angle_alpha    90.0
_cell_angle_beta     90.0
_cell_angle_gamma    90.0

_space_group_name_H-M_alt    "P 1"
_space_group_IT_number       1

loop_
  _space_group_symop_operation_xyz
  'x, y, z'

loop_
  _atom_site_type_symbol
  _atom_site_label
  _atom_site_symmetry_multiplicity
  _atom_site_fract_x
  _atom_site_fract_y
  _atom_site_fract_z
  _atom_site_occupancy
  C   C1        1.0  0.009298696176351953  0.005584648962192374  5.19615952946365e-05  1.0000
  O   O1        1.0  0.009298696176351953  0.005584648962192374  0.00016718976820802707  1.0000
  Ru  Ru1       1.0  0.004595099938350784  0.0055198625243640465  0.999893256859638  1.0000
  Ru  Ru2       1.0  0.009398129803862195  0.005549537996653228  0.9994869683178442  1.0000
  Ru  Ru3       1.0  0.006898129454693553  0.00054953752600099  0.9992820723813741  1.0000
  Ru  Ru4       1.0  0.0018981298475082768  0.00054953752600099  0.9996918642543144  1.0000
  Ru  Ru5       1.0  0.009298696176351953  0.005584648962192374  0.9998856435103632  1.0000
  Ru  Ru6       1.0  0.004398129541985714  0.005549537996653228  0.9994869683178442  1.0000
  Ru  Ru7       1.0  0.006898129454693553  0.00054953752600099  0.9996918642543144  1.0000
  Ru  Ru8       1.0  0.0018981298475082768  0.00054953752600099  0.9992820723813741  1.0000
  Se  Se1       1.0  0.008239574278226514  0.0015971501892830592  0.9998970944409706  1.0000
  Se  Se2       1.0  0.0031906124980167223  0.0017570548270537895  0.9994869683178442  1.0000
  Se  Se3       1.0  0.0031056468914772684  0.006757055104815766  0.9992820723813741  1.0000
  Se  Se4       1.0  0.00810564715335375  0.006757055104815766  0.9996918642543144  1.0000
  Se  Se5       1.0  0.009398129803862195  0.009342020394691621  0.9993880022177729  1.0000
  Se  Se6       1.0  0.004387994485649448  0.009450462990944911  0.999805388552563  1.0000
  Se  Se7       1.0  0.006898129454693553  0.004342020579866272  0.9993810384814455  1.0000
  Se  Se8       1.0  0.0019255264921931479  0.004328524434066764  0.9997928541705815  1.0000
  Se  Se9       1.0  0.006962778465484819  0.006426760931921305  0.0  1.0000
  Se  Se10      1.0  0.0018981298475082768  0.006757055104815766  0.999592898154243  1.0000
  Se  Se11      1.0  0.0043451270512959465  0.0018606642106088582  0.9999969631310139  1.0000
  Se  Se12      1.0  0.009398129803862195  0.0017570548270537895  0.9995859344179157  1.0000
  Se  Se13      1.0  0.0006906126398664835  0.004342020579866272  0.9992820723813741  1.0000
  Se  Se14      1.0  0.005690612628954963  0.004342020579866272  0.9996918642543144  1.0000
  Se  Se15      1.0  0.005605646804185107  0.009342020394691621  0.9994869683178442  1.0000
  Se  Se16      1.0  0.000601870119757163  0.009243377858207771  0.9998944290246744  1.0000
