data_image0
_chemical_formula_structural       HGe4Rh4Ge4Rh4
_chemical_formula_sum              "H1 Ge8 Rh8"
_cell_length_a       4.952929496765137
_cell_length_b       4.952929496765137
_cell_length_c       104.6705093383789
_cell_angle_alpha    90.0
_cell_angle_beta     90.0
_cell_angle_gamma    90.0

_space_group_name_H-M_alt    "P 1"
_space_group_IT_number       1

loop_
  _space_group_symop_operation_xyz
  'x, y, z'

loop_
  _atom_site_type_symbol
  _atom_site_label
  _atom_site_symmetry_multiplicity
  _atom_site_fract_x
  _atom_site_fract_y
  _atom_site_fract_z
  _atom_site_occupancy
  H   H1        1.0  0.007342264345416397  0.0036999812073615543  0.00013207258997914847  1.0000
  Ge  Ge1       1.0  0.0033701585790127434  0.006757750230431251  0.9995599510770281  1.0000
  Ge  Ge2       1.0  0.006629841511243909  0.0017577501853029245  0.9991691089171859  1.0000
  Ge  Ge3       1.0  0.001629841466115583  0.003498067298200085  0.9993233547599077  1.0000
  Ge  Ge4       1.0  0.008370158248071686  0.008498066967259027  0.9994057052343063  1.0000
  Rh  Rh1       1.0  0.0062659248085307415  0.003861984000913253  0.9994229254090183  1.0000
  Rh  Rh2       1.0  0.0037340752817259116  0.00886198404604158  0.9993061345851957  1.0000
  Rh  Rh3       1.0  0.008734075326854237  0.006393833151648698  0.9991863293766231  1.0000
  Rh  Rh4       1.0  0.001265924763402415  0.0013938334825897565  0.999542730902316  1.0000
  Ge  Ge5       1.0  0.0031431181580042103  0.006261946370508035  2.872990259831845e-05  1.0000
  Ge  Ge6       1.0  0.006629841511243909  0.0017577501853029245  0.9996423015514266  1.0000
  Ge  Ge7       1.0  0.0016085224687557946  0.003475970213282968  0.999795309978816  1.0000
  Ge  Ge8       1.0  0.008058309479904104  0.008452470810757938  0.9998982563288424  1.0000
  Rh  Rh5       1.0  0.006373179421030772  0.0036770872314178644  0.9998881816155155  1.0000
  Rh  Rh6       1.0  0.0037699891558437308  0.008800022854187803  0.9997754709025333  1.0000
  Rh  Rh7       1.0  0.008734075326854237  0.006393833151648698  0.9996595217261387  1.0000
  Rh  Rh8       1.0  0.0015414103485545843  0.0011380161382324196  0.0  1.0000
