data_image0
_chemical_formula_structural       COV18Si6V18Si6
_chemical_formula_sum              "C1 O1 V36 Si12"
_cell_length_a       10.537039144623787
_cell_length_b       4.712306976318359
_cell_length_c       109.9852523803711
_cell_angle_alpha    90.0
_cell_angle_beta     108.434948002997
_cell_angle_gamma    90.0

_space_group_name_H-M_alt    "P 1"
_space_group_IT_number       1

loop_
  _space_group_symop_operation_xyz
  'x, y, z'

loop_
  _atom_site_type_symbol
  _atom_site_label
  _atom_site_symmetry_multiplicity
  _atom_site_fract_x
  _atom_site_fract_y
  _atom_site_fract_z
  _atom_site_occupancy
  C   C1        1.0  0.0038812578713112345  0.007499999968378203  0.00022911501149476464  1.0000
  O   O1        1.0  0.0038812578713112345  0.007499999968378203  0.00033822076939396366  1.0000
  V   V1        1.0  0.007916666229404724  0.006250000237163473  0.9998611436409444  1.0000
  V   V2        1.0  0.004583333472462134  0.006250000237163473  6.311627279183538e-05  1.0000
  V   V3        1.0  0.0012499999701866859  0.006250000237163473  0.9996591708654846  1.0000
  V   V4        1.0  0.009583333353208877  0.006250000237163473  6.311635588823865e-05  1.0000
  V   V5        1.0  0.006249999850933429  0.006250000237163473  0.9996591709485809  1.0000
  V   V6        1.0  0.0029166665349911955  0.006250000237163473  0.9998611435634931  1.0000
  V   V7        1.0  0.005416666661697781  0.008750000094865389  0.9998611433397199  1.0000
  V   V8        1.0  0.0020833333457555476  0.008750000094865389  6.311649656502976e-05  1.0000
  V   V9        1.0  0.008749999791306801  0.008750000094865389  0.9996591707191627  1.0000
  V   V10       1.0  0.005416666661697781  0.0037499999841891017  0.9998611433397199  1.0000
  V   V11       1.0  0.0020833333457555476  0.0037499999841891017  6.311649656502976e-05  1.0000
  V   V12       1.0  0.008749999791306801  0.0037499999841891017  0.9996591707191627  1.0000
  V   V13       1.0  0.006249999850933429  0.001250000027669072  0.00011360946101164188  1.0000
  V   V14       1.0  0.0029166665349911955  0.001250000027669072  0.9997096640593495  1.0000
  V   V15       1.0  0.009583333353208877  0.001250000027669072  0.9999116368517447  1.0000
  V   V16       1.0  0.007916666229404724  0.001250000027669072  1.2623145087888893e-05  1.0000
  V   V17       1.0  0.004583333472462134  0.001250000027669072  0.9996086777603611  1.0000
  V   V18       1.0  0.0012499999701866859  0.001250000027669072  0.9998106503696281  1.0000
  Si  Si1       1.0  0.007083333412835505  0.001250000027669072  0.9997601570350864  1.0000
  Si  Si2       1.0  0.0037499999105600574  0.001250000027669072  0.9999621301862864  1.0000
  Si  Si3       1.0  0.0004166666412011274  0.001250000027669072  0.9995581842441025  1.0000
  Si  Si4       1.0  0.007083333412835505  0.006250000237163473  6.311658530656882e-05  1.0000
  Si  Si5       1.0  0.0037499999105600574  0.006250000237163473  0.9996591706360662  1.0000
  Si  Si6       1.0  0.0004166666412011274  0.006250000237163473  0.9998611437943227  1.0000
  V   V19       1.0  0.007916666229404724  0.006250000237163473  0.999255225082437  1.0000
  V   V20       1.0  0.004583333472462134  0.006250000237163473  0.9994571982562176  1.0000
  V   V21       1.0  0.0012499999701866859  0.006250000237163473  0.9990532523069773  1.0000
  V   V22       1.0  0.009583333353208877  0.006250000237163473  0.9994571980683474  1.0000
  V   V23       1.0  0.006249999850933429  0.006250000237163473  0.9990532523900737  1.0000
  V   V24       1.0  0.0029166665349911955  0.006250000237163473  0.9992552252759523  1.0000
  V   V25       1.0  0.005416666661697781  0.008750000094865389  0.9992552253231456  1.0000
  V   V26       1.0  0.0020833333457555476  0.008750000094865389  0.9994571979380578  1.0000
  V   V27       1.0  0.008749999791306801  0.008750000094865389  0.9990532524316219  1.0000
  V   V28       1.0  0.005416666661697781  0.0037499999841891017  0.9992552253231456  1.0000
  V   V29       1.0  0.0020833333457555476  0.0037499999841891017  0.9994571979380578  1.0000
  V   V30       1.0  0.008749999791306801  0.0037499999841891017  0.9990532524316219  1.0000
  V   V31       1.0  0.006249999850933429  0.001250000027669072  0.9995076914444374  1.0000
  V   V32       1.0  0.0029166665349911955  0.001250000027669072  0.9991037455008422  1.0000
  V   V33       1.0  0.009583333353208877  0.001250000027669072  0.9993057182932373  1.0000
  V   V34       1.0  0.007916666229404724  0.001250000027669072  0.9994067048575471  1.0000
  V   V35       1.0  0.004583333472462134  0.001250000027669072  0.9990027592018539  1.0000
  V   V36       1.0  0.0012499999701866859  0.001250000027669072  0.9992047320820874  1.0000
  Si  Si7       1.0  0.007083333412835505  0.001250000027669072  0.9991542387475456  1.0000
  Si  Si8       1.0  0.0037499999105600574  0.001250000027669072  0.9993562116277791  1.0000
  Si  Si9       1.0  0.0004166666412011274  0.001250000027669072  0.9989522659565617  1.0000
  Si  Si10      1.0  0.007083333412835505  0.006250000237163473  0.9994571980267992  1.0000
  Si  Si11      1.0  0.0037499999105600574  0.006250000237163473  0.9990532523485255  1.0000
  Si  Si12      1.0  0.0004166666412011274  0.006250000237163473  0.9992552252358153  1.0000
