data_image0
_chemical_formula_structural       HFe12Pt4Fe12Pt4
_chemical_formula_sum              "H1 Fe24 Pt8"
_cell_length_a       5.231142520904541
_cell_length_b       8.172751281104052
_cell_length_c       107.6755142211914
_cell_angle_alpha    107.34652541476378
_cell_angle_beta     90.0
_cell_angle_gamma    50.20287290588478

_space_group_name_H-M_alt    "P 1"
_space_group_IT_number       1

loop_
  _space_group_symop_operation_xyz
  'x, y, z'

loop_
  _atom_site_type_symbol
  _atom_site_label
  _atom_site_symmetry_multiplicity
  _atom_site_fract_x
  _atom_site_fract_y
  _atom_site_fract_z
  _atom_site_occupancy
  H   H1        1.0  0.0028810645681297256  0.0033692289747540493  0.00017805135594857469  1.0000
  Fe  Fe1       1.0  0.001874999914543557  0.006874999999999999  0.9991808110110507  1.0000
  Fe  Fe2       1.0  0.009375000170912888  0.0043749999999999995  0.9993266022130829  1.0000
  Fe  Fe3       1.0  0.0043750001709128876  0.009375  0.9990350200857975  1.0000
  Fe  Fe4       1.0  0.006874999914543556  0.001875  0.9994723934151151  1.0000
  Fe  Fe5       1.0  0.006875000170912888  0.006874999999999999  0.9991808110110507  1.0000
  Fe  Fe6       1.0  0.004374999914543556  0.0043749999999999995  0.9993266022130829  1.0000
  Fe  Fe7       1.0  0.009374999715145188  0.009375  0.9990350200857975  1.0000
  Fe  Fe8       1.0  0.0018750000142427408  0.001875  0.9994723934151151  1.0000
  Fe  Fe9       1.0  0.005625000182659534  0.0006249999597678715  0.9992537067550814  1.0000
  Fe  Fe10      1.0  0.003124999686659706  0.008125  0.9993994976701739  1.0000
  Fe  Fe11      1.0  0.008124999686659707  0.0031249999999999997  0.9991079155539597  1.0000
  Fe  Fe12      1.0  0.0006250001424274061  0.005625  0.9995452888722062  1.0000
  Pt  Pt1       1.0  0.008124999943029036  0.008125  0.9993994976701739  1.0000
  Pt  Pt2       1.0  0.005624999686659707  0.005625  0.9995452888722062  1.0000
  Pt  Pt3       1.0  0.0006250000153073325  0.0006249999597678715  0.9992537067550814  1.0000
  Pt  Pt4       1.0  0.0031250001424274064  0.0031249999999999997  0.9991079155539597  1.0000
  Fe  Fe13      1.0  0.001874999914543557  0.006874999999999999  0.9997639755313293  1.0000
  Fe  Fe14      1.0  0.009193043232488207  0.004538962659950068  0.9999148212615768  1.0000
  Fe  Fe15      1.0  0.0043750001709128876  0.009375  0.9996181843292972  1.0000
  Fe  Fe16      1.0  0.0062613166100121825  0.0022076284557145326  4.99588250407005e-05  1.0000
  Fe  Fe17      1.0  0.006875000170912888  0.006874999999999999  0.9997639755313293  1.0000
  Fe  Fe18      1.0  0.0042284603005712336  0.004538911484682695  0.9999148466742611  1.0000
  Fe  Fe19      1.0  0.009374999715145188  0.009375  0.9996181843292972  1.0000
  Fe  Fe20      1.0  0.0018236500610252244  0.0022079923150841257  4.994436333111687e-05  1.0000
  Fe  Fe21      1.0  0.005625000182659534  0.0006249999597678715  0.99983687127536  1.0000
  Fe  Fe22      1.0  0.003152609482421527  0.008096247224304994  0.9999733815430455  1.0000
  Fe  Fe23      1.0  0.008124999686659707  0.0031249999999999997  0.9996910800742383  1.0000
  Fe  Fe24      1.0  0.0006507650782395297  0.005598809206243923  0.00011509785875354828  1.0000
  Pt  Pt5       1.0  0.007896473436248833  0.008353248773338496  0.9999917156717102  1.0000
  Pt  Pt6       1.0  0.005493374804927394  0.005756777279056737  0.00013048229692001854  1.0000
  Pt  Pt7       1.0  0.0006250000153073325  0.0006249999597678715  0.99983687127536  1.0000
  Pt  Pt8       1.0  0.0031250001424274064  0.0031249999999999997  0.9996910800742383  1.0000
