data_image0
_chemical_formula_structural       COV6Sn2V6Sn2
_chemical_formula_sum              "C1 O1 V12 Sn4"
_cell_length_a       5.671743886488486
_cell_length_b       4.542364597320557
_cell_length_c       30.297794342041016
_cell_angle_alpha    90.0
_cell_angle_beta     119.99999990255856
_cell_angle_gamma    90.0

_space_group_name_H-M_alt    "P 1"
_space_group_IT_number       1

loop_
  _space_group_symop_operation_xyz
  'x, y, z'

loop_
  _atom_site_type_symbol
  _atom_site_label
  _atom_site_symmetry_multiplicity
  _atom_site_fract_x
  _atom_site_fract_y
  _atom_site_fract_z
  _atom_site_occupancy
  C   C1        1.0  0.008893894810108235  0.0050000003608534046  0.0008324680799901863  1.0000
  O   O1        1.0  0.008893894810108235  0.0050000003608534046  0.0012285363343621412  1.0000
  V   V1        1.0  0.0013099837560748054  0.00750000013121942  0.999026356012524  1.0000
  V   V2        1.0  0.0028042341716858652  0.002499999975396359  0.9995858030490308  1.0000
  V   V3        1.0  0.008321482329488735  0.002499999975396359  0.9995858032093119  1.0000
  V   V4        1.0  0.006827231819074499  0.00750000013121942  0.9990263561639314  1.0000
  V   V5        1.0  0.001106104499724637  0.007499999311098045  0.9997876366594143  1.0000
  V   V6        1.0  0.007804127741847424  0.002500001410608765  0.0004254149978450574  1.0000
  Sn  Sn1       1.0  0.00645740993522246  0.007499999311098045  0.9999192925487054  1.0000
  Sn  Sn2       1.0  0.0032117571932949464  0.002499999770366015  0.0005773018931141392  1.0000
  V   V7        1.0  0.0013099837560748054  0.00750000013121942  0.9971543572658471  1.0000
  V   V8        1.0  0.0028042341716858652  0.002499999975396359  0.997713804302354  1.0000
  V   V9        1.0  0.008321482329488735  0.002499999975396359  0.9977138042167234  1.0000
  V   V10       1.0  0.006827231819074499  0.00750000013121942  0.9971543571713429  1.0000
  V   V11       1.0  0.0013099837560748054  0.00750000013121942  0.9979935278204097  1.0000
  V   V12       1.0  0.008321482329488735  0.002499999975396359  0.9987466326547492  1.0000
  Sn  Sn3       1.0  0.006482400052635937  0.00750000013121942  0.9980580804326855  1.0000
  Sn  Sn4       1.0  0.003149066506943488  0.002499999975396359  0.9986820800868413  1.0000
