data_image0
_chemical_formula_structural       COAg18Pd6Ag18Pd6
_chemical_formula_sum              "C1 O1 Ag36 Pd12"
_cell_length_a       9.287016247211819
_cell_length_b       9.241517266479576
_cell_length_c       105.24174499511719
_cell_angle_alpha    108.5290031536397
_cell_angle_beta     71.56505117707799
_cell_angle_gamma    78.40545455449912

_space_group_name_H-M_alt    "P 1"
_space_group_IT_number       1

loop_
  _space_group_symop_operation_xyz
  'x, y, z'

loop_
  _atom_site_type_symbol
  _atom_site_label
  _atom_site_symmetry_multiplicity
  _atom_site_fract_x
  _atom_site_fract_y
  _atom_site_fract_z
  _atom_site_occupancy
  C   C1        1.0  0.008762261564844253  0.00962298732881151  2.4018891908716936e-05  1.0000
  O   O1        1.0  0.008762261564844253  0.00962298732881151  0.00013804231787197725  1.0000
  Ag  Ag1       1.0  0.007502800009526254  0.002513960244500609  0.9990930164162285  1.0000
  Ag  Ag2       1.0  0.000836133351316126  0.002513960244500609  0.9992790523786202  1.0000
  Ag  Ag3       1.0  0.004169466574714452  0.002513960244500609  0.9989069803771423  1.0000
  Ag  Ag4       1.0  0.000836133351316126  0.002513960244500609  0.9989999983553883  1.0000
  Ag  Ag5       1.0  0.004169466574714452  0.002513960244500609  0.9991860344003741  1.0000
  Ag  Ag6       1.0  0.007502800009526254  0.002513960244500609  0.9993720701562807  1.0000
  Ag  Ag7       1.0  2.8000000249096185e-06  1.3960250211625623e-05  0.9990930165185977  1.0000
  Ag  Ag8       1.0  0.003336133400151688  1.3960250211625623e-05  0.9992790525586518  1.0000
  Ag  Ag9       1.0  0.006669466623550014  1.3960250211625623e-05  0.9989069802739943  1.0000
  Ag  Ag10      1.0  0.009169466714497676  0.007513960434021749  0.9991860344017621  1.0000
  Ag  Ag11      1.0  0.002502799844874072  0.007513960434021749  0.9993720703700534  1.0000
  Ag  Ag12      1.0  0.005836133279685875  0.007513960434021749  0.998999998362676  1.0000
  Ag  Ag13      1.0  0.005836133279685875  0.007513960434021749  0.9992790523859078  1.0000
  Ag  Ag14      1.0  0.009169466714497676  0.007513960434021749  0.9989069803785303  1.0000
  Ag  Ag15      1.0  0.002502799844874072  0.007513960434021749  0.9990930163468216  1.0000
  Ag  Ag16      1.0  0.008336132901581613  0.005013960452071382  0.9989999985549657  1.0000
  Ag  Ag17      1.0  0.001669466666198436  0.005013960452071382  0.9991860345055583  1.0000
  Ag  Ag18      1.0  0.005002799889596762  0.005013960452071382  0.9993720705505441  1.0000
  Pd  Pd1       1.0  2.8000000249096185e-06  1.3960250211625623e-05  0.9993720705418295  1.0000
  Pd  Pd2       1.0  0.003336133400151688  1.3960250211625623e-05  0.99899999853542  1.0000
  Pd  Pd3       1.0  0.006669466623550014  1.3960250211625623e-05  0.9991860345804058  1.0000
  Pd  Pd4       1.0  0.008336132901581613  0.005013960452071382  0.9992790525781976  1.0000
  Pd  Pd5       1.0  0.001669466666198436  0.005013960452071382  0.9989069804823264  1.0000
  Pd  Pd6       1.0  0.005002799889596762  0.005013960452071382  0.9990930165273122  1.0000
  Ag  Ag19      1.0  0.007488533970607905  0.002473150251291314  0.9996501237842439  1.0000
  Ag  Ag20      1.0  0.0008014673828022242  0.0025298497871327433  0.9998388589071038  1.0000
  Ag  Ag21      1.0  0.004169466574714452  0.002513960244500609  0.9994650881404263  1.0000
  Ag  Ag22      1.0  0.000836133351316126  0.002513960244500609  0.9995581061186725  1.0000
  Ag  Ag23      1.0  0.004143625839722207  0.0025237481089039155  0.9997497298511676  1.0000
  Ag  Ag24      1.0  0.007537456576679973  0.0024314684608376692  0.999924760364493  1.0000
  Ag  Ag25      1.0  0.009997200031719155  0.009986040342112444  0.9996476384887174  1.0000
  Ag  Ag26      1.0  0.003345281552531145  3.0138849598223484e-05  0.9998360383079787  1.0000
  Ag  Ag27      1.0  0.006669466623550014  1.3960250211625623e-05  0.999465088320458  1.0000
  Ag  Ag28      1.0  0.009091175967774569  0.007557162680383694  0.999756670399635  1.0000
  Ag  Ag29      1.0  0.002522066621502505  0.007514076402909843  0.9999249941955287  1.0000
  Ag  Ag30      1.0  0.005836133279685875  0.007513960434021749  0.99955810612596  1.0000
  Ag  Ag31      1.0  0.005834086740145029  0.007540601240185909  0.9998393717651726  1.0000
  Ag  Ag32      1.0  0.009169466714497676  0.007513960434021749  0.9994650881418143  1.0000
  Ag  Ag33      1.0  0.002497195132732762  0.007473610480817948  0.9996489096726308  1.0000
  Ag  Ag34      1.0  0.008336132901581613  0.005013960452071382  0.9995581063182498  1.0000
  Ag  Ag35      1.0  0.0016190000799795633  0.005030892360973934  0.9997483434246284  1.0000
  Ag  Ag36      1.0  0.005082397497873038  0.005013832299681426  0.9999228327971004  1.0000
  Pd  Pd7       1.0  0.00014113374585649375  0.00996700068738776  0.999910898965557  1.0000
  Pd  Pd8       1.0  0.003336133400151688  1.3960250211625623e-05  0.999558106298704  1.0000
  Pd  Pd9       1.0  0.0066597237328472995  0.009978399030240902  0.9997418456157077  1.0000
  Pd  Pd10      1.0  0.00835461022617807  0.004918175565395349  0.9998268999635674  1.0000
  Pd  Pd11      1.0  0.001669466666198436  0.005013960452071382  0.9994650885287901  1.0000
  Pd  Pd12      1.0  0.004956338163902717  0.005016368724272776  0.9996548820280733  1.0000
