data_image0
_chemical_formula_structural       COIn6Pt3
_chemical_formula_sum              "C1 O1 In6 Pt3"
_cell_length_a       4.616677761077881
_cell_length_b       4.616677882376467
_cell_length_c       103.9255142211914
_cell_angle_alpha    90.0
_cell_angle_beta     90.0
_cell_angle_gamma    119.99999913086315

_space_group_name_H-M_alt    "P 1"
_space_group_IT_number       1

loop_
  _space_group_symop_operation_xyz
  'x, y, z'

loop_
  _atom_site_type_symbol
  _atom_site_label
  _atom_site_symmetry_multiplicity
  _atom_site_fract_x
  _atom_site_fract_y
  _atom_site_fract_z
  _atom_site_occupancy
  C   C1        1.0  0.008333333488625182  0.0016666669772503653  0.00014303093954693696  1.0000
  O   O1        1.0  0.008333333488625182  0.0016666669772503653  0.0002584984877098899  1.0000
  In  In1       1.0  0.0033333333806874073  0.006666666511374817  0.9995690437747422  1.0000
  In  In2       1.0  2.0000000307458415e-10  5.000000064542523e-11  0.999206332164245  1.0000
  In  In3       1.0  0.006666666053861332  0.0033333337215629565  0.999952736919333  1.0000
  In  In4       1.0  4.0346007359111744e-10  0.01  0.999745028736265  1.0000
  In  In5       1.0  0.006666667031303778  0.0033333332556874087  0.9993876879694936  1.0000
  In  In6       1.0  0.0033333333806874073  0.006666666511374817  0.9990249760722302  1.0000
  Pt  Pt1       1.0  0.0033333333806874073  0.006666666511374817  0.9992970102102524  1.0000
  Pt  Pt2       1.0  0.010000000025  5.000000064542523e-11  0.0  1.0000
  Pt  Pt3       1.0  0.006666667031303778  0.0033333332556874087  0.9996597221075157  1.0000
