data_image0
_chemical_formula_structural       HPt6V3Pt6V3
_chemical_formula_sum              "H1 Pt12 V6"
_cell_length_a       7.672976970672607
_cell_length_b       4.841608260446714
_cell_length_c       98.77214813232422
_cell_angle_alpha    90.8540783818716
_cell_angle_beta     90.0
_cell_angle_gamma    113.34082377990902

_space_group_name_H-M_alt    "P 1"
_space_group_IT_number       1

loop_
  _space_group_symop_operation_xyz
  'x, y, z'

loop_
  _atom_site_type_symbol
  _atom_site_label
  _atom_site_symmetry_multiplicity
  _atom_site_fract_x
  _atom_site_fract_y
  _atom_site_fract_z
  _atom_site_occupancy
  H   H1        1.0  0.0004432547789318125  0.009102214047752738  3.864946329023311e-05  1.0000
  Pt  Pt1       1.0  0.001468697540104653  0.006539872328790827  0.9993001189242264  1.0000
  Pt  Pt2       1.0  0.0045567449150211575  0.008892061631826176  0.9994800272628831  1.0000
  Pt  Pt3       1.0  0.0010141521127892555  0.004721690437463806  0.9995649353673669  1.0000
  Pt  Pt4       1.0  0.004103325710123193  0.007077330289255924  0.9997465328866963  1.0000
  Pt  Pt5       1.0  0.0005384194530492841  0.002816047569773063  0.9998386670298971  1.0000
  Pt  Pt6       1.0  0.003650547779792087  0.0052634705936876235  3.845797053394923e-06  1.0000
  V   V1        1.0  0.0030127213590023082  0.0027159674077507816  0.9993900731263028  1.0000
  V   V2        1.0  0.002558175912361869  0.0008977856211890251  0.9996548895695199  1.0000
  V   V3        1.0  0.002093350596095923  0.009037336690899705  0.9998991554491644  1.0000
  Pt  Pt7       1.0  0.006468697501870912  0.006539872328790827  0.9993001189242264  1.0000
  Pt  Pt8       1.0  0.009556744982992253  0.008892061631826176  0.9994800272628831  1.0000
  Pt  Pt9       1.0  0.006014152029039157  0.004721690437463806  0.9995649353673669  1.0000
  Pt  Pt10      1.0  0.009103325778094288  0.007077330289255924  0.9997465328866963  1.0000
  Pt  Pt11      1.0  0.005538419566536737  0.002816047569773063  0.9998386670298971  1.0000
  Pt  Pt12      1.0  0.008650547847763182  0.0052634705936876235  3.845797053394923e-06  1.0000
  V   V4        1.0  0.008012721426973403  0.0027159674077507816  0.9993900731263028  1.0000
  V   V5        1.0  0.0075581759803329636  0.0008977856211890251  0.9996548895695199  1.0000
  V   V6        1.0  0.007093350527517944  0.009037336690899705  0.9998991554491644  1.0000
