data_image0
_chemical_formula_structural       COCa6Cu24In6
_chemical_formula_sum              "C1 O1 Ca6 Cu24 In6"
_cell_length_a       9.044380634879502
_cell_length_b       7.384705543518066
_cell_length_c       109.76785278320312
_cell_angle_alpha    90.0
_cell_angle_beta     85.65224718680973
_cell_angle_gamma    114.0948414366742

_space_group_name_H-M_alt    "P 1"
_space_group_IT_number       1

loop_
  _space_group_symop_operation_xyz
  'x, y, z'

loop_
  _atom_site_type_symbol
  _atom_site_label
  _atom_site_symmetry_multiplicity
  _atom_site_fract_x
  _atom_site_fract_y
  _atom_site_fract_z
  _atom_site_occupancy
  C   C1        1.0  2.2676598195983455e-05  0.006666333605599959  0.9999998583531536  1.0000
  O   O1        1.0  2.2676598195983455e-05  0.006666333605599959  0.00010918019934481024  1.0000
  Ca  Ca1       1.0  0.0039224540743688675  0.006922012316308335  0.9994601716510624  1.0000
  Ca  Ca2       1.0  0.005653928852485561  0.002729957377155067  0.9997576942164375  1.0000
  Ca  Ca3       1.0  0.0022557874439235524  0.0010886788237363765  0.9991582629460027  1.0000
  Ca  Ca4       1.0  0.00975578728092747  0.009838678919587637  0.999611126430531  1.0000
  Ca  Ca5       1.0  0.0013818626711212553  0.005668488404138162  0.9999337580863833  1.0000
  Ca  Ca6       1.0  0.008089120650482156  0.0040053454270156785  0.9993092177254713  1.0000
  Cu  Cu1       1.0  0.004094658982060637  0.005769134704001322  0.9997238295234919  1.0000
  Cu  Cu2       1.0  0.000804927456040174  0.004119654390985764  0.9991207179859896  1.0000
  Cu  Cu3       1.0  0.0024715940298896274  0.009952987930140609  0.9994226269629058  1.0000
  Cu  Cu4       1.0  0.008710918103466261  0.0005598384425550216  0.9991965820474104  1.0000
  Cu  Cu5       1.0  0.0003775848663458933  0.006393172076224955  0.9994984904421291  1.0000
  Cu  Cu6       1.0  0.0019715858909519412  0.0023267826904047324  0.9998047377124749  1.0000
  Cu  Cu7       1.0  0.004881610403896467  0.008618434832086061  0.9998737597914106  1.0000
  Cu  Cu8       1.0  0.0016339903305146169  0.0070213748083093165  0.9992708986219426  1.0000
  Cu  Cu9       1.0  0.0033006568477682084  0.002854707940821054  0.9995728073277094  1.0000
  Cu  Cu10      1.0  0.0012066477691182668  0.004320514547524811  0.9996486713494087  1.0000
  Cu  Cu11      1.0  0.002954692457254169  0.00033054340679759684  0.9999324457482782  1.0000
  Cu  Cu12      1.0  0.009539980468577949  0.008487180897254651  0.9993467629580484  1.0000
  Cu  Cu13      1.0  0.009977322500019705  0.008772301433052241  0.9998676429743305  1.0000
  Cu  Cu14      1.0  0.006638260379619469  0.0070363208527754115  0.9992716724957225  1.0000
  Cu  Cu15      1.0  0.008304927462831678  0.002869654394381516  0.999573581197954  1.0000
  Cu  Cu16      1.0  0.0045442510745860795  0.0034765050542299894  0.999347536518836  1.0000
  Cu  Cu17      1.0  0.006210917705031395  0.009309838495567706  0.9996494452238956  1.0000
  Cu  Cu18      1.0  0.007802061006492257  0.005031732341620298  0.9999320374383914  1.0000
  Cu  Cu19      1.0  0.005800656567052734  0.004104707800463317  0.9991199444269695  1.0000
  Cu  Cu20      1.0  0.00746732319749805  0.009938041241801032  0.9994218534035324  1.0000
  Cu  Cu21      1.0  0.009233303340605422  0.005820440716533868  0.9997231569619693  1.0000
  Cu  Cu22      1.0  0.0070481171967618  0.007325591229290348  0.9998027529802348  1.0000
  Cu  Cu23      1.0  0.0037066474884027926  0.005570514407167074  0.9991958081771657  1.0000
  Cu  Cu24      1.0  0.005373314345231555  0.0014038478355814547  0.9994977168808112  1.0000
  In  In1       1.0  0.002672454101534881  0.008797012329891342  0.9996866037808974  1.0000
  In  In2       1.0  0.004597328937568067  0.004763815346786984  0.9999791302818075  1.0000
  In  In3       1.0  0.0010057875842812895  0.002963678819034429  0.9993846945321243  1.0000
  In  In4       1.0  0.008435269996272388  0.0015193659828102886  0.999855095594892  1.0000
  In  In5       1.0  0.005172453820819407  4.7012189533605366e-05  0.9992337400656479  1.0000
  In  In6       1.0  0.006839120451264722  0.005880345252526145  0.999535649313714  1.0000
