data_image0
_chemical_formula_structural       COAg12
_chemical_formula_sum              "C1 O1 Ag12"
_cell_length_a       5.954419136047363
_cell_length_b       5.954419104152393
_cell_length_c       99.17057800292969
_cell_angle_alpha    90.0
_cell_angle_beta     90.0
_cell_angle_gamma    59.999999822807716

_space_group_name_H-M_alt    "P 1"
_space_group_IT_number       1

loop_
  _space_group_symop_operation_xyz
  'x, y, z'

loop_
  _atom_site_type_symbol
  _atom_site_label
  _atom_site_symmetry_multiplicity
  _atom_site_fract_x
  _atom_site_fract_y
  _atom_site_fract_z
  _atom_site_occupancy
  C   C1        1.0  0.000833333358087796  0.0008333334152076622  0.00020167252555412994  1.0000
  O   O1        1.0  0.000833333358087796  0.0008333334152076622  0.0003226764015055292  1.0000
  Ag  Ag1       1.0  0.000833333358087796  0.0008333334152076622  0.0  1.0000
  Ag  Ag2       1.0  0.0041666668928398  0.0041666667148280365  0.9995097575089706  1.0000
  Ag  Ag3       1.0  0.0025000002427702744  0.0025000000650178492  0.9997548786042274  1.0000
  Ag  Ag4       1.0  0.0008333331898402469  0.005833333545243361  0.0  1.0000
  Ag  Ag5       1.0  0.004166666622191431  0.00916666720607401  0.9995097575089706  1.0000
  Ag  Ag6       1.0  0.0025000000624244745  0.007500000375658685  0.9997548786042274  1.0000
  Ag  Ag7       1.0  0.005833333542649987  0.0008333334152076622  0.0  1.0000
  Ag  Ag8       1.0  0.009166666842789037  0.0041666667148280365  0.9995097575089706  1.0000
  Ag  Ag9       1.0  0.007500000192719512  0.0025000000650178492  0.9997548786042274  1.0000
  Ag  Ag10      1.0  0.0058333334526067555  0.005833333545243361  0.0  1.0000
  Ag  Ag11      1.0  0.009166667197775211  0.00916666720607401  0.9995097575089706  1.0000
  Ag  Ag12      1.0  0.007500000012373711  0.007500000375658685  0.9997548786042274  1.0000
