data_image0
_chemical_formula_structural       HZn12Cu12As12
_chemical_formula_sum              "H1 Zn12 Cu12 As12"
_cell_length_a       10.305952073430758
_cell_length_b       9.516558541166871
_cell_length_c       99.25159454345703
_cell_angle_alpha    104.6303213298977
_cell_angle_beta     89.43415010055038
_cell_angle_gamma    68.99474827405317

_space_group_name_H-M_alt    "P 1"
_space_group_IT_number       1

loop_
  _space_group_symop_operation_xyz
  'x, y, z'

loop_
  _atom_site_type_symbol
  _atom_site_label
  _atom_site_symmetry_multiplicity
  _atom_site_fract_x
  _atom_site_fract_y
  _atom_site_fract_z
  _atom_site_occupancy
  H   H1        1.0  0.0070962656646669856  0.009699590001271458  0.00021837996910673536  1.0000
  Zn  Zn1       1.0  0.0012553261260759238  0.008135766846326433  9.501911265996376e-05  1.0000
  Zn  Zn2       1.0  0.004502422245686622  0.008572794319892916  0.9998827321379656  1.0000
  Zn  Zn3       1.0  0.007835755540461297  0.008572794319892916  0.9996371307677594  1.0000
  Zn  Zn4       1.0  0.004356337408610151  0.007716426497357904  0.00018124468741543342  1.0000
  Zn  Zn5       1.0  0.0089133635080832  0.006103748558308791  0.9999488661418995  1.0000
  Zn  Zn6       1.0  0.0019468677239716612  0.006239456970233737  0.9997026245963038  1.0000
  Zn  Zn7       1.0  0.0029430684604058277  0.0035942378632400447  1.340894121713746e-05  1.0000
  Zn  Zn8       1.0  0.006378622221868498  0.0035727943722191073  0.9997444928838394  1.0000
  Zn  Zn9       1.0  0.009711955516643174  0.0035727943722191073  0.9994988918139036  1.0000
  Zn  Zn10      1.0  0.006974961509321218  0.0003004100848487324  1.2282425157049572e-07  1.0000
  Zn  Zn11      1.0  0.0004897350743194721  0.0012394569135470304  0.9998099867090577  1.0000
  Zn  Zn12      1.0  0.0038230684594660015  0.0012394569135470304  0.9995643853387588  1.0000
  Cu  Cu1       1.0  0.004418629268888889  0.005126905350097659  0.9999748452129723  1.0000
  Cu  Cu2       1.0  0.006891480550181576  0.006278811062292559  0.9996979035993738  1.0000
  Cu  Cu3       1.0  0.0006085304374134628  0.005985235404788156  0.00013611467099416296  1.0000
  Cu  Cu4       1.0  0.004687703109149033  0.0035334400621344912  0.9994918767287394  1.0000
  Cu  Cu5       1.0  0.008282144896011524  0.0036285788881931912  0.999927018737715  1.0000
  Cu  Cu6       1.0  0.0013543699951180652  0.0035334400621344912  0.9997374780987603  1.0000
  Cu  Cu7       1.0  0.005439246434191156  0.0012788112236316465  0.9998049048736174  1.0000
  Cu  Cu8       1.0  0.008772579367478417  0.0012788112236316465  0.9995593035037817  1.0000
  Cu  Cu9       1.0  0.0023816908390729605  0.0011886250715333912  0.99998678170931  1.0000
  Cu  Cu10      1.0  0.002806604689677242  0.008533439791782506  0.9996304768212834  1.0000
  Cu  Cu11      1.0  0.006271895521472726  0.008490740747975968  0.00012054272940223139  1.0000
  Cu  Cu12      1.0  0.00947327164071401  0.008533439791782506  0.9998760783466276  1.0000
  As  As1       1.0  0.005267580406237152  0.008770698078269712  0.9996383281337292  1.0000
  As  As2       1.0  0.008646072259506789  0.008638872705754676  0.00014115371936413524  1.0000
  As  As3       1.0  0.0019342467499750616  0.008770698078269712  0.9998839295043062  1.0000
  As  As4       1.0  0.0029078590445599886  0.006154412956511829  0.0002043284534072729  1.0000
  As  As5       1.0  0.006277100411608048  0.006104255250256496  0.9999453911408015  1.0000
  As  As6       1.0  0.009510628822879718  0.006041552775805352  0.9996941007205324  1.0000
  As  As7       1.0  0.007113577963517401  0.0037706985666474927  0.999502314238336  1.0000
  As  As8       1.0  0.00028804392831918393  0.0035551713472048996  5.531360410942651e-05  1.0000
  As  As9       1.0  0.0037802450302301394  0.0037706985666474927  0.9997479156081716  1.0000
  As  As10      1.0  0.004516291606706762  0.0010478199796103672  9.58763913259514e-05  1.0000
  As  As11      1.0  0.008023293267073456  0.0010415527191186451  0.9998036881819586  1.0000
  As  As12      1.0  0.0013566270390115197  0.0010415527191186451  0.9995580866558731  1.0000
