data_image0
_chemical_formula_structural       COTi12Rh20Ti12Rh20
_chemical_formula_sum              "C1 O1 Ti24 Rh40"
_cell_length_a       21.492885300912196
_cell_length_b       5.432089328765869
_cell_length_c       98.97102355957031
_cell_angle_alpha    90.0
_cell_angle_beta     78.89765111666017
_cell_angle_gamma    90.0

_space_group_name_H-M_alt    "P 1"
_space_group_IT_number       1

loop_
  _space_group_symop_operation_xyz
  'x, y, z'

loop_
  _atom_site_type_symbol
  _atom_site_label
  _atom_site_symmetry_multiplicity
  _atom_site_fract_x
  _atom_site_fract_y
  _atom_site_fract_z
  _atom_site_occupancy
  C   C1        1.0  0.0011977653339239544  0.008065901298701527  0.9999066178166657  1.0000
  O   O1        1.0  0.0011977653339239544  0.008065901298701527  2.7865671715613604e-05  1.0000
  Ti  Ti1       1.0  0.0006893759878696224  0.009823625108487008  0.9997609385130464  1.0000
  Ti  Ti2       1.0  0.005610286592691704  0.009954186431045802  0.9995649058222544  1.0000
  Ti  Ti3       1.0  0.003142808077407604  0.005038297864507791  0.9996642339530504  1.0000
  Ti  Ti4       1.0  0.008140849012260379  0.005045813130046505  0.9994509291426538  1.0000
  Ti  Ti5       1.0  0.0013612995476458662  0.003539415408530452  0.9995230284127423  1.0000
  Ti  Ti6       1.0  0.0063791225151638205  0.003524566955565951  0.9997176606377107  1.0000
  Ti  Ti7       1.0  0.004922149062813982  0.006648001083794764  0.999376439548102  1.0000
  Ti  Ti8       1.0  0.00991394145029152  0.006470629570071482  0.9995871085890955  1.0000
  Ti  Ti9       1.0  0.0024221491687934148  0.00844362525859344  0.9994809832026543  1.0000
  Ti  Ti10      1.0  0.00743351260154808  0.0085323648502267  0.999681705629107  1.0000
  Ti  Ti11      1.0  0.0038595483964831336  0.0016480011729478891  0.9994208748127809  1.0000
  Ti  Ti12      1.0  0.00885133513172424  0.0015565184082384905  0.9996237739459143  1.0000
  Rh  Rh1       1.0  0.0031418450776255543  7.975559801147e-05  0.9996474017724345  1.0000
  Rh  Rh2       1.0  0.008140849012260379  4.581339600570793e-05  0.9994509291426538  1.0000
  Rh  Rh3       1.0  0.0006912849865663297  0.005067212280316824  0.9997399873366267  1.0000
  Rh  Rh4       1.0  0.0056092377495688475  0.0051788549668593965  0.9995512606899507  1.0000
  Rh  Rh5       1.0  0.001750376099812165  0.0012732775586080025  0.9997074648616735  1.0000
  Rh  Rh6       1.0  0.006836695782843789  0.0010847406446715684  0.9995053023148867  1.0000
  Rh  Rh7       1.0  0.0044726549605835645  0.008819164966923478  0.9995954472485339  1.0000
  Rh  Rh8       1.0  0.009460758557259868  0.00901595746023255  0.9993957338733088  1.0000
  Rh  Rh9       1.0  0.0020224348427140865  0.006308178174709313  0.999695609873845  1.0000
  Rh  Rh10      1.0  0.006950456932445375  0.006086978298955303  0.999499888064616  1.0000
  Rh  Rh11      1.0  0.004268716971156412  0.003827729070971988  0.9996058604397939  1.0000
  Rh  Rh12      1.0  0.009320938478119515  0.004015957720833991  0.999401580794378  1.0000
  Rh  Rh13      1.0  0.0026053005288458496  0.0031831499200266292  0.9994733242773232  1.0000
  Rh  Rh14      1.0  0.007661178326250705  0.0032216767571910856  0.9996766526674223  1.0000
  Rh  Rh15      1.0  0.0036763972130630872  0.006908476340066382  0.9994285337307257  1.0000
  Rh  Rh16      1.0  0.008664885515081523  0.006884829502356802  0.9996333949911996  1.0000
  Rh  Rh17      1.0  0.0011696213473552507  0.008321980620118633  0.9995285945850361  1.0000
  Rh  Rh18      1.0  0.006269700870082668  0.008224721418704157  0.9997378170121222  1.0000
  Rh  Rh19      1.0  0.00531727783545571  0.002222623752657257  0.9997728588994753  1.0000
  Rh  Rh20      1.0  7.78507969840599e-05  0.0016639748412185587  0.9995862776652711  1.0000
  Ti  Ti13      1.0  0.0006408488886177072  4.581339600570793e-05  0.999346385500885  1.0000
  Ti  Ti14      1.0  0.005640848588342647  4.581339600570793e-05  0.9991372981954734  1.0000
  Ti  Ti15      1.0  0.0031408488709544686  0.005045813130046505  0.9992418418426394  1.0000
  Ti  Ti16      1.0  0.008140849012260379  0.005045813130046505  0.9990327545187621  1.0000
  Ti  Ti17      1.0  0.0013595485024625665  0.0034436255191948816  0.9991072438434414  1.0000
  Ti  Ti18      1.0  0.006359548113871312  0.0034436255191948816  0.9993163311656148  1.0000
  Ti  Ti19      1.0  0.004922149062813982  0.006648001083794764  0.9989582649242102  1.0000
  Ti  Ti20      1.0  0.009922149204119893  0.006648001083794764  0.9991673522242246  1.0000
  Ti  Ti21      1.0  0.0024221491687934148  0.00844362525859344  0.9990628085787626  1.0000
  Ti  Ti22      1.0  0.007422148780202161  0.00844362525859344  0.9992718959009359  1.0000
  Ti  Ti23      1.0  0.0038595483964831336  0.0016480011729478891  0.999002700188889  1.0000
  Ti  Ti24      1.0  0.008859548537789044  0.0016480011729478891  0.9992117874889035  1.0000
  Rh  Rh21      1.0  0.0031408488709544686  4.581339600570793e-05  0.9992418418426394  1.0000
  Rh  Rh22      1.0  0.008140849012260379  4.581339600570793e-05  0.9990327545187621  1.0000
  Rh  Rh23      1.0  0.0006408488886177072  0.005045813130046505  0.999346385500885  1.0000
  Rh  Rh24      1.0  0.005640848588342647  0.005045813130046505  0.9991372981954734  1.0000
  Rh  Rh25      1.0  0.0018209387960578139  0.0010756688855846212  0.9992970371341433  1.0000
  Rh  Rh26      1.0  0.006820938760731336  0.0010756688855846212  0.9990879498176523  1.0000
  Rh  Rh27      1.0  0.004460758769218734  0.00901595746023255  0.9991866465585219  1.0000
  Rh  Rh28      1.0  0.009460758557259868  0.00901595746023255  0.9989775592494171  1.0000
  Rh  Rh29      1.0  0.0019607588751981674  0.006075668882155654  0.9992911902130742  1.0000
  Rh  Rh30      1.0  0.00696075883987169  0.006075668882155654  0.9990821028965832  1.0000
  Rh  Rh31      1.0  0.004320938690078381  0.004015957720833991  0.9991924934795909  1.0000
  Rh  Rh32      1.0  0.009320938478119515  0.004015957720833991  0.9989834061704862  1.0000
  Rh  Rh33      1.0  0.0026053005288458496  0.0031831499200266292  0.9990551496534315  1.0000
  Rh  Rh34      1.0  0.007605300316886983  0.0031831499200266292  0.9992642369682184  1.0000
  Rh  Rh35      1.0  0.0036763972130630872  0.006908476340066382  0.9990103591068339  1.0000
  Rh  Rh36      1.0  0.008676397001104222  0.006908476340066382  0.999219446421621  1.0000
  Rh  Rh37      1.0  0.0011763971424101317  0.008183150002321822  0.9991149027687726  1.0000
  Rh  Rh38      1.0  0.006176397283716043  0.008183150002321822  0.999323990068787  1.0000
  Rh  Rh39      1.0  0.005105300599498805  0.0019084767721161415  0.9993687806153845  1.0000
  Rh  Rh40      1.0  0.00010530060170670975  0.0019084767721161415  0.9991596933093687  1.0000
