data_image0
_chemical_formula_structural       HPt12Si4
_chemical_formula_sum              "H1 Pt12 Si4"
_cell_length_a       5.561720273669859
_cell_length_b       5.561720260629348
_cell_length_c       101.87316131591797
_cell_angle_alpha    91.53430772152451
_cell_angle_beta     91.53430771792618
_cell_angle_gamma    91.05126364140237

_space_group_name_H-M_alt    "P 1"
_space_group_IT_number       1

loop_
  _space_group_symop_operation_xyz
  'x, y, z'

loop_
  _atom_site_type_symbol
  _atom_site_label
  _atom_site_symmetry_multiplicity
  _atom_site_fract_x
  _atom_site_fract_y
  _atom_site_fract_z
  _atom_site_occupancy
  H   H1        1.0  0.004703549586537272  0.009682327243375042  0.0001345413527444601  1.0000
  Pt  Pt1       1.0  0.0020459749386943283  0.007169697920706459  1.3481981426475782e-05  1.0000
  Pt  Pt2       1.0  0.007191112463037049  0.002024944566923146  1.3472011443238268e-05  1.0000
  Pt  Pt3       1.0  0.0003392971372986195  0.0039016519553901454  0.9998348508815066  1.0000
  Pt  Pt4       1.0  0.003923025187194668  0.00031767275159867465  0.9998348499292836  1.0000
  Pt  Pt5       1.0  0.0069101973058430235  0.0068891213650235745  0.9999929564992166  1.0000
  Pt  Pt6       1.0  0.007496312603693237  0.007474844963130505  0.9996996938709202  1.0000
  Pt  Pt7       1.0  0.006903708778497889  0.002364570242209094  0.9996461068006357  1.0000
  Pt  Pt8       1.0  0.0023860380307058346  0.006882241387474417  0.9996461068012168  1.0000
  Pt  Pt9       1.0  0.005300169366887472  0.008968109710392538  0.9994505620907269  1.0000
  Pt  Pt10      1.0  0.008989577343267406  0.005278701644520779  0.9994505620905961  1.0000
  Pt  Pt11      1.0  0.0017934347144400356  0.001771967001638606  0.9995925191470793  1.0000
  Pt  Pt12      1.0  0.002496312525640837  0.002474844735272296  0.9993086049916953  1.0000
  Si  Si1       1.0  0.004695764661419007  0.004674167010973823  0.9998285052623668  1.0000
  Si  Si2       1.0  0.009660702354828948  0.009639367258879265  0.9998776582558765  1.0000
  Si  Si3       1.0  0.009630784258077646  0.009609316782227772  0.9994217821043555  1.0000
  Si  Si4       1.0  0.004658962452077232  0.004637494572685546  0.999479342369511  1.0000
