data_image0
_chemical_formula_structural       Rh8Sn16H
_chemical_formula_sum              "Rh8 Sn16 H1"
_cell_length_a       5.452058435107585
_cell_length_b       8.737701002682389
_cell_length_c       101.40425109863281
_cell_angle_alpha    93.65957731232335
_cell_angle_beta     92.93178293404284
_cell_angle_gamma    95.2737191267753

_space_group_name_H-M_alt    "P 1"
_space_group_IT_number       1

loop_
  _space_group_symop_operation_xyz
  'x, y, z'

loop_
  _atom_site_type_symbol
  _atom_site_label
  _atom_site_symmetry_multiplicity
  _atom_site_fract_x
  _atom_site_fract_y
  _atom_site_fract_z
  _atom_site_occupancy
  Rh  Rh1       1.0  0.0010800996003986288  0.0012499999828328246  0.9995421369265991  1.0000
  Rh  Rh2       1.0  0.007679461491135031  0.006252643230002136  0.9997876264504625  1.0000
  Rh  Rh3       1.0  0.004424460419513234  0.0011810599324154397  1.8662721540532355e-05  1.0000
  Rh  Rh4       1.0  0.004413432873056991  0.006249999914164123  0.9992840590773789  1.0000
  Rh  Rh5       1.0  0.007746766367122749  0.008750000309009158  0.9994130979661239  1.0000
  Rh  Rh6       1.0  0.00441343268673845  0.0037499999484984737  0.9996711761057586  1.0000
  Rh  Rh7       1.0  0.0012794697721683812  0.008715909732025061  0.999909327407034  1.0000
  Rh  Rh8       1.0  0.0010800995729118806  0.0037499999484984737  0.9991550201915277  1.0000
  Sn  Sn1       1.0  0.002746766220226657  0.009189925488415756  0.9993449770462888  1.0000
  Sn  Sn2       1.0  0.009413432864826397  0.004189925127905071  0.9996030553572769  1.0000
  Sn  Sn3       1.0  0.006357708229416699  0.009154740503997508  0.9998724723878873  1.0000
  Sn  Sn4       1.0  0.006080099280628191  0.004189925127905071  0.9990868991478564  1.0000
  Sn  Sn5       1.0  0.007253233527500625  0.008310074271243788  0.9991323129123459  1.0000
  Sn  Sn6       1.0  0.003919900287661  0.003310074554502184  0.9993903910567328  1.0000
  Sn  Sn7       1.0  0.0005865670005200811  0.008310074271243788  0.9996484692448971  1.0000
  Sn  Sn8       1.0  0.007132361291251958  0.003457852175745841  0.9999225218406345  1.0000
  Sn  Sn9       1.0  0.008240298467286198  0.001689925269534268  0.9993067662301133  1.0000
  Sn  Sn10      1.0  0.004906965239315705  0.00668992509357072  0.9995648441251342  1.0000
  Sn  Sn11      1.0  0.0014706373004581223  0.0017803885588617673  0.9998274671375662  1.0000
  Sn  Sn12      1.0  0.009030058812835282  0.0067709653203004904  6.937034410057016e-05  1.0000
  Sn  Sn13      1.0  0.006080099474319006  0.0008100746961313812  0.9996102584328859  1.0000
  Sn  Sn14      1.0  0.002836763782936243  0.005764177003686795  0.9998784546389313  1.0000
  Sn  Sn15      1.0  0.002746766232209263  0.0008100746961313812  0.999094102224406  1.0000
  Sn  Sn16      1.0  0.009413432421298275  0.005810074734757526  0.9993521799955678  1.0000
  H   H1        1.0  0.004342486519058248  0.0021397669605375804  7.080694415934007e-05  1.0000
