data_image0
_chemical_formula_structural       HAl18Pt12
_chemical_formula_sum              "H1 Al18 Pt12"
_cell_length_a       6.770963698676633
_cell_length_b       9.06305059898079
_cell_length_c       98.42530059814453
_cell_angle_alpha    90.10670294320097
_cell_angle_beta     95.26664800941228
_cell_angle_gamma    90.44795583662018

_space_group_name_H-M_alt    "P 1"
_space_group_IT_number       1

loop_
  _space_group_symop_operation_xyz
  'x, y, z'

loop_
  _atom_site_type_symbol
  _atom_site_label
  _atom_site_symmetry_multiplicity
  _atom_site_fract_x
  _atom_site_fract_y
  _atom_site_fract_z
  _atom_site_occupancy
  H   H1        1.0  0.00960472046734023  0.0015651154432888123  0.9999584746781643  1.0000
  Al  Al1       1.0  0.0049215634243680705  3.3079449323147814e-05  0.9996327755263968  1.0000
  Al  Al2       1.0  0.0025406108306930326  0.006699746493861133  0.9993577271895866  1.0000
  Al  Al3       1.0  0.008731086839303055  0.0033664128864908096  0.9994952512410964  1.0000
  Al  Al4       1.0  0.00860822050588154  0.006765905052102105  0.9994925218660111  1.0000
  Al  Al5       1.0  0.00479869709132752  0.003432571650259524  0.9996300458485287  1.0000
  Al  Al6       1.0  0.0024177444718459975  9.923835118081442e-05  0.9993549976909004  1.0000
  Al  Al7       1.0  0.008853953194825317  0.009966920720879515  0.9994979807397087  1.0000
  Al  Al8       1.0  0.005044429782487812  0.006633587524564676  0.9996355050250668  1.0000
  Al  Al9       1.0  0.0026634774381573806  0.003300254122722095  0.9993604565663672  1.0000
  Al  Al10      1.0  0.002776276077933648  0.00037359044963550887  4.292414417999744e-05  1.0000
  Al  Al11      1.0  0.0010469722559791595  0.006740290540593867  0.9997658561718255  1.0000
  Al  Al12      1.0  0.007209457315863968  0.0034860723714152672  0.99991555517847  1.0000
  Al  Al13      1.0  0.007323801183712722  0.006737205158121535  0.999916296967414  1.0000
  Al  Al14      1.0  0.0032576737180160576  0.0033649859073737434  3.343511001366813e-05  1.0000
  Al  Al15      1.0  0.001068961662424084  8.675704958101937e-05  0.9997638615074829  1.0000
  Al  Al16      1.0  0.007519503767255769  0.009857623533682873  0.9998932504649104  1.0000
  Al  Al17      1.0  0.003505330004945669  0.006470632387489181  2.3244248165822615e-05  1.0000
  Al  Al18      1.0  0.0012182287659390407  0.0032627039986162227  0.9997718526423968  1.0000
  Pt  Pt1       1.0  0.005637313997787092  0.008365624482070089  0.999426521587117  1.0000
  Pt  Pt2       1.0  0.0018277900284978611  0.005032290874699765  0.9995640458688877  1.0000
  Pt  Pt3       1.0  0.009446837384699078  0.0016989573700933128  0.9992889974809493  1.0000
  Pt  Pt4       1.0  0.0018248604245349413  0.008367202113022502  0.9995639809506306  1.0000
  Pt  Pt5       1.0  0.009443907637065195  0.005033868094596692  0.9992889325616968  1.0000
  Pt  Pt6       1.0  0.0056343842247276905  0.001700534898281854  0.9994264565442637  1.0000
  Pt  Pt7       1.0  0.004376948344355344  0.008346918991158032  0.999844325428979  1.0000
  Pt  Pt8       1.0  0.0003952790948556159  0.004987110944204315  0.9999649094467815  1.0000
  Pt  Pt9       1.0  0.00801826603821614  0.0016989573700933128  0.9997015702232134  1.0000
  Pt  Pt10      1.0  0.00047974489999860406  0.00833980033226437  0.9999669000749891  1.0000
  Pt  Pt11      1.0  0.00801533629058226  0.005033868094596692  0.9997015050011696  1.0000
  Pt  Pt12      1.0  0.004349731830087139  0.0016861116806513223  0.9998437023226667  1.0000
