data_image0
_chemical_formula_structural       COV4Pt12V4Pt12
_chemical_formula_sum              "C1 O1 V8 Pt24"
_cell_length_a       8.857884573426693
_cell_length_b       5.515091419219971
_cell_length_c       103.0905532836914
_cell_angle_alpha    90.0
_cell_angle_beta     71.86182099315654
_cell_angle_gamma    71.86182099315654

_space_group_name_H-M_alt    "P 1"
_space_group_IT_number       1

loop_
  _space_group_symop_operation_xyz
  'x, y, z'

loop_
  _atom_site_type_symbol
  _atom_site_label
  _atom_site_symmetry_multiplicity
  _atom_site_fract_x
  _atom_site_fract_y
  _atom_site_fract_z
  _atom_site_occupancy
  C   C1        1.0  0.00803658122566198  0.003481709657357844  0.9999437728613553  1.0000
  O   O1        1.0  0.00803658122566198  0.003481709657357844  6.0175615404592756e-05  1.0000
  V   V1        1.0  0.00125  0.004375000067547209  0.9992978444447729  1.0000
  V   V2        1.0  0.00125  0.009375000135094416  0.9995653325121131  1.0000
  V   V3        1.0  0.00625  0.0018750000675472078  0.9994315886518962  1.0000
  V   V4        1.0  0.00625  0.006875000135094417  0.9996990761410589  1.0000
  Pt  Pt1       1.0  0.0037500000000000003  0.005625000270188834  0.9996322040374972  1.0000
  Pt  Pt2       1.0  0.0037500000000000003  0.0006250000337736039  0.9993647165483346  1.0000
  Pt  Pt3       1.0  0.0037500000000000003  0.0006250000337736039  0.9996322040374972  1.0000
  Pt  Pt4       1.0  0.0037500000000000003  0.005625000270188834  0.9993647165483346  1.0000
  Pt  Pt5       1.0  0.00125  0.004375000067547209  0.9995653325121131  1.0000
  Pt  Pt6       1.0  0.00125  0.009375000135094416  0.9992978444447729  1.0000
  Pt  Pt7       1.0  0.00875  0.008124999999999999  0.9994984601772804  1.0000
  Pt  Pt8       1.0  0.00875  0.0031250002701888333  0.9997659482446205  1.0000
  Pt  Pt9       1.0  0.00875  0.0031250002701888333  0.9994984601772804  1.0000
  Pt  Pt10      1.0  0.00875  0.008124999999999999  0.9997659482446205  1.0000
  Pt  Pt11      1.0  0.00625  0.0018750000675472078  0.9996990761410589  1.0000
  Pt  Pt12      1.0  0.00625  0.006875000135094417  0.9994315886518962  1.0000
  V   V5        1.0  0.00125  0.004375000067547209  0.9987628691773588  1.0000
  V   V6        1.0  0.00125  0.009375000135094416  0.9990303569556102  1.0000
  V   V7        1.0  0.00625  0.0018750000675472078  0.9988966130953933  1.0000
  V   V8        1.0  0.00625  0.006875000135094417  0.9991641005845561  1.0000
  Pt  Pt13      1.0  0.0037500000000000003  0.005625000270188834  0.9990972287700831  1.0000
  Pt  Pt14      1.0  0.0037500000000000003  0.0006250000337736039  0.9988297409918316  1.0000
  Pt  Pt15      1.0  0.0037500000000000003  0.0006250000337736039  0.9990972287700831  1.0000
  Pt  Pt16      1.0  0.0037500000000000003  0.005625000270188834  0.9988297409918316  1.0000
  Pt  Pt17      1.0  0.00125  0.004375000067547209  0.9990303569556102  1.0000
  Pt  Pt18      1.0  0.00125  0.009375000135094416  0.9987628691773588  1.0000
  Pt  Pt19      1.0  0.00875  0.008124999999999999  0.9989634849098663  1.0000
  Pt  Pt20      1.0  0.00875  0.0031250002701888333  0.9992309726881177  1.0000
  Pt  Pt21      1.0  0.00875  0.0031250002701888333  0.9989634849098663  1.0000
  Pt  Pt22      1.0  0.00875  0.008124999999999999  0.9992309726881177  1.0000
  Pt  Pt23      1.0  0.00625  0.0018750000675472078  0.9991641005845561  1.0000
  Pt  Pt24      1.0  0.00625  0.006875000135094417  0.9988966130953933  1.0000
