data_image0
_chemical_formula_structural       COCo5Pt5Co5Pt5
_chemical_formula_sum              "C1 O1 Co10 Pt10"
_cell_length_a       4.57307099774926
_cell_length_b       5.997178681533815
_cell_length_c       101.80917358398438
_cell_angle_alpha    103.07600218789264
_cell_angle_beta     105.61657527295868
_cell_angle_gamma    74.79446948740548

_space_group_name_H-M_alt    "P 1"
_space_group_IT_number       1

loop_
  _space_group_symop_operation_xyz
  'x, y, z'

loop_
  _atom_site_type_symbol
  _atom_site_label
  _atom_site_symmetry_multiplicity
  _atom_site_fract_x
  _atom_site_fract_y
  _atom_site_fract_z
  _atom_site_occupancy
  C   C1        1.0  0.009449485302472267  0.004508385217538441  0.00017434571017639375  1.0000
  O   O1        1.0  0.009449485302472267  0.004508385217538441  0.0002922135200825022  1.0000
  Co  Co1       1.0  0.004550514784130494  0.006999999852126066  0.9999170576889713  1.0000
  Co  Co2       1.0  0.002550514740829114  0.0010000000300400917  0.9998129113011757  1.0000
  Co  Co3       1.0  0.006550515043938777  0.0029999999707808027  2.1204130173761916e-05  1.0000
  Co  Co4       1.0  0.0005505146975277337  0.0049999998763453945  0.9997087648621241  1.0000
  Co  Co5       1.0  0.008550514870733255  0.008999999827906736  0.00012535051581846806  1.0000
  Pt  Pt1       1.0  0.0005505146975277337  0.0049999998763453945  0.999969130555214  1.0000
  Pt  Pt2       1.0  0.008550514870733255  0.008999999827906736  0.9998649842372741  1.0000
  Pt  Pt3       1.0  0.002550514740829114  0.0010000000300400917  7.327699426539214e-05  1.0000
  Pt  Pt4       1.0  0.006550515043938777  0.0029999999707808027  0.9997608378516294  1.0000
  Pt  Pt5       1.0  0.004550514784130494  0.006999999852126066  0.999656691410427  1.0000
  Co  Co6       1.0  0.004550514784130494  0.006999999852126066  0.9993963257173373  1.0000
  Co  Co7       1.0  0.002550514740829114  0.0010000000300400917  0.9992921793295415  1.0000
  Co  Co8       1.0  0.006550515043938777  0.0029999999707808027  0.9995004718658124  1.0000
  Co  Co9       1.0  0.0005505146975277337  0.0049999998763453945  0.9991880328904901  1.0000
  Co  Co10      1.0  0.008550514870733255  0.008999999827906736  0.9996046182514571  1.0000
  Pt  Pt6       1.0  0.0005505146975277337  0.0049999998763453945  0.9994483988763071  1.0000
  Pt  Pt7       1.0  0.008550514870733255  0.008999999827906736  0.99934425226564  1.0000
  Pt  Pt8       1.0  0.002550514740829114  0.0010000000300400917  0.9995525453153585  1.0000
  Pt  Pt9       1.0  0.006550515043938777  0.0029999999707808027  0.9992401058799953  1.0000
  Pt  Pt10      1.0  0.004550514784130494  0.006999999852126066  0.9991359597315201  1.0000
