data_image0
_chemical_formula_structural       COCo4As8Co4As8
_chemical_formula_sum              "C1 O1 Co8 As16"
_cell_length_a       6.034423048792984
_cell_length_b       5.942147731781006
_cell_length_c       106.20653533935547
_cell_angle_alpha    90.0
_cell_angle_beta     117.35429230805673
_cell_angle_gamma    90.0

_space_group_name_H-M_alt    "P 1"
_space_group_IT_number       1

loop_
  _space_group_symop_operation_xyz
  'x, y, z'

loop_
  _atom_site_type_symbol
  _atom_site_label
  _atom_site_symmetry_multiplicity
  _atom_site_fract_x
  _atom_site_fract_y
  _atom_site_fract_z
  _atom_site_occupancy
  C   C1        1.0  0.008997341656882447  0.008228169243211158  0.00024920722606777267  1.0000
  O   O1        1.0  0.008997341656882447  0.008228169243211158  0.0003621948523033155  1.0000
  Co  Co1       1.0  0.006945922141982273  0.005588309975085838  0.9995700947430403  1.0000
  Co  Co2       1.0  0.0019408313001994567  0.0055238286965376086  0.9998593164857867  1.0000
  Co  Co3       1.0  0.006907538149118193  0.000617375187395875  0.9998567947507413  1.0000
  Co  Co4       1.0  0.001945922267093071  0.0005883100879326205  0.9995700950718109  1.0000
  As  As1       1.0  0.006002658315315154  0.009226231327919951  0.9996236890652435  1.0000
  As  As2       1.0  0.0010516505257333673  0.0094116899998371  0.9999152959161097  1.0000
  As  As3       1.0  0.008371420674593864  0.003045378883624534  7.098998062729373e-05  1.0000
  As  As4       1.0  0.002889186267525187  0.0019503889357150098  0.9998005897653098  1.0000
  As  As5       1.0  0.006095381403103922  0.006740165297566033  0.9999224731472003  1.0000
  As  As6       1.0  0.001002658266660955  0.006950388822868228  0.9996236888282632  1.0000
  As  As7       1.0  0.0025124316066530744  0.0032281693560579404  6.559279428119952e-05  1.0000
  As  As8       1.0  0.007889185968649392  0.004226231127303449  0.9998005899932171  1.0000
  Co  Co5       1.0  0.006945922141982273  0.005588309975085838  0.999001916720709  1.0000
  Co  Co6       1.0  0.001945922267093071  0.005588309975085838  0.9992860057800381  1.0000
  Co  Co7       1.0  0.006945922141982273  0.0005883100879326205  0.9992860057318746  1.0000
  Co  Co8       1.0  0.001945922267093071  0.0005883100879326205  0.9990019167688725  1.0000
  As  As9       1.0  0.006002658315315154  0.009226231327919951  0.9990555110429123  1.0000
  As  As10      1.0  0.001002658266660955  0.009226231327919951  0.9993396000977048  1.0000
  As  As11      1.0  0.007889185968649392  0.0019503889357150098  0.9995165007014443  1.0000
  As  As12      1.0  0.002889186267525187  0.0019503889357150098  0.9992324114623714  1.0000
  As  As13      1.0  0.006002658315315154  0.006950388822868228  0.9993396000540778  1.0000
  As  As14      1.0  0.001002658266660955  0.006950388822868228  0.999055510805932  1.0000
  As  As15      1.0  0.002889186267525187  0.004226231127303449  0.9995165007541442  1.0000
  As  As16      1.0  0.007889185968649392  0.004226231127303449  0.9992324116902787  1.0000
