data_image0
_chemical_formula_structural       CORe18Pd6
_chemical_formula_sum              "C1 O1 Re18 Pd6"
_cell_length_a       9.667072296142578
_cell_length_b       7.134724908223427
_cell_length_c       98.53890228271484
_cell_angle_alpha    85.2919446893717
_cell_angle_beta     90.0
_cell_angle_gamma    47.35402829131631

_space_group_name_H-M_alt    "P 1"
_space_group_IT_number       1

loop_
  _space_group_symop_operation_xyz
  'x, y, z'

loop_
  _atom_site_type_symbol
  _atom_site_label
  _atom_site_symmetry_multiplicity
  _atom_site_fract_x
  _atom_site_fract_y
  _atom_site_fract_z
  _atom_site_occupancy
  C   C1        1.0  0.004146422151006252  0.009801372321115824  1.5907675128870305e-05  1.0000
  O   O1        1.0  0.004146422151006252  0.009801372321115824  0.00013768723671020577  1.0000
  Re  Re1       1.0  0.0023105750272462  0.008555421111453779  0.999938704658002  1.0000
  Re  Re2       1.0  0.005668858347926555  0.0017462897717604809  0.9997168405555434  1.0000
  Re  Re3       1.0  0.009017012635089482  0.005007762224419847  0.9994759020503652  1.0000
  Re  Re4       1.0  0.003961122371831994  0.00017197249603824173  0.9998390296097949  1.0000
  Re  Re5       1.0  0.00741992909509456  0.0034106784140769788  0.9995915394071794  1.0000
  Re  Re6       1.0  0.0007532624275496766  0.006744011595023271  0.9993501886593942  1.0000
  Re  Re7       1.0  0.005822845284751692  0.0066048460347627146  0.9993602649959933  1.0000
  Re  Re8       1.0  0.00916284481907285  6.182039967741169e-05  0.9998357434125896  1.0000
  Re  Re9       1.0  0.0024895117981531007  0.0032715128538164224  0.9996016157437785  1.0000
  Re  Re10      1.0  0.0008756730426769958  0.004932099201357805  0.9998397919644133  1.0000
  Re  Re11      1.0  0.004156178784394528  0.00834109540536614  0.999596577337908  1.0000
  Re  Re12      1.0  0.007489511876051539  0.0016744292220521176  0.9993552270642034  1.0000
  Re  Re13      1.0  0.009316320727878486  0.00313734213597837  0.9999417369255619  1.0000
  Re  Re14      1.0  0.0023758455500740546  0.006746605984394531  0.9997168481155394  1.0000
  Re  Re15      1.0  0.00575326232438945  0.009938179215709008  0.9994809402835361  1.0000
  Re  Re16      1.0  0.0072874833487356384  0.006818193130322099  0.9997130477266325  1.0000
  Re  Re17      1.0  0.0006836794178055765  7.734539496750922e-05  0.9994708641186748  1.0000
  Re  Re18      1.0  0.003870533831174017  0.0035404389557095904  0.9999353333909732  1.0000
  Pd  Pd1       1.0  0.005794387634867693  0.005006738254936449  0.9998429601555366  1.0000
  Pd  Pd2       1.0  0.009086595799219924  0.00834109540536614  0.999596577337908  1.0000
  Pd  Pd3       1.0  0.0024199287367334594  0.0016744292220521176  0.9993552270642034  1.0000
  Pd  Pd4       1.0  0.0074261947127694595  0.008408875256318813  0.9999500267603766  1.0000
  Pd  Pd5       1.0  0.0007415976363694632  0.001767439366777443  0.9997066867892521  1.0000
  Pd  Pd6       1.0  0.004086595620264087  0.005007762224419847  0.9994759020503652  1.0000
