data_image0
_chemical_formula_structural       HIn2Au3In2Au3
_chemical_formula_sum              "H1 In4 Au6"
_cell_length_a       4.744082927703857
_cell_length_b       4.744083216006311
_cell_length_c       104.7626724243164
_cell_angle_alpha    90.0
_cell_angle_beta     90.0
_cell_angle_gamma    119.99999798971311

_space_group_name_H-M_alt    "P 1"
_space_group_IT_number       1

loop_
  _space_group_symop_operation_xyz
  'x, y, z'

loop_
  _atom_site_type_symbol
  _atom_site_label
  _atom_site_symmetry_multiplicity
  _atom_site_fract_x
  _atom_site_fract_y
  _atom_site_fract_z
  _atom_site_occupancy
  H   H1        1.0  0.00666666669641232  0.009999999310886474  0.0002135300703428836  1.0000
  In  In1       1.0  0.008333331763593174  0.003333333481432293  0.9994375302203088  1.0000
  In  In2       1.0  0.0049999983629643524  0.006666666962864586  0.9996299030590572  1.0000
  Au  Au1       1.0  0.008333331763593174  0.003333333481432293  0.9991550702404727  1.0000
  Au  Au2       1.0  0.0049999983629643524  0.006666666962864586  0.9993593241621079  1.0000
  Au  Au3       1.0  0.0016666650565320483  3.499999773633702e-10  0.9992571972012904  1.0000
  In  In3       1.0  0.008333334896455026  0.003333331894657725  0.0  1.0000
  In  In4       1.0  0.004999998559276809  0.006666666962864586  0.00019185196570239144  1.0000
  Au  Au4       1.0  0.008333331763593174  0.003333333481432293  0.9997081085483087  1.0000
  Au  Au5       1.0  0.004999999571208717  0.006666667416228749  0.9999163126846445  1.0000
  Au  Au6       1.0  0.0016666650565320483  3.499999773633702e-10  0.9998102355091264  1.0000
