data_image0
_chemical_formula_structural       COGa16Na4
_chemical_formula_sum              "C1 O1 Ga16 Na4"
_cell_length_a       6.517004265466064
_cell_length_b       6.135159492492676
_cell_length_c       106.81095886230469
_cell_angle_alpha    90.0
_cell_angle_beta     90.0
_cell_angle_gamma    118.08000211802144

_space_group_name_H-M_alt    "P 1"
_space_group_IT_number       1

loop_
  _space_group_symop_operation_xyz
  'x, y, z'

loop_
  _atom_site_type_symbol
  _atom_site_label
  _atom_site_symmetry_multiplicity
  _atom_site_fract_x
  _atom_site_fract_y
  _atom_site_fract_z
  _atom_site_occupancy
  C   C1        1.0  0.009432722963775059  0.0024828220133299066  0.00016114203478646957  1.0000
  O   O1        1.0  0.009432722963775059  0.0024828220133299066  0.00027348972683855616  1.0000
  Ga  Ga1       1.0  0.005568532255095097  0.005553595282614847  0.9989991428682373  1.0000
  Ga  Ga2       1.0  0.005568532255095097  0.0005535952401106026  0.999286339977797  1.0000
  Ga  Ga3       1.0  0.008359539984765811  0.0044490990123474275  0.9991427415625268  1.0000
  Ga  Ga4       1.0  0.008359539984765811  0.009449098941001016  0.9994299383930673  1.0000
  Ga  Ga5       1.0  0.0027775245254243824  0.001658091282676712  0.9994299383930673  1.0000
  Ga  Ga6       1.0  0.0027775245254243824  0.006658091211330301  0.9991427415625268  1.0000
  Ga  Ga7       1.0  0.005568532255095097  0.0005535952401106026  0.9989991428682373  1.0000
  Ga  Ga8       1.0  0.005568532255095097  0.005553595282614847  0.999286339977797  1.0000
  Ga  Ga9       1.0  0.005568532255095097  0.005553595282614847  0.9995735373663761  1.0000
  Ga  Ga10      1.0  0.005577888410614836  0.0005509011084125852  0.9998646772981157  1.0000
  Ga  Ga11      1.0  0.008359539984765811  0.0044490990123474275  0.9997171357816462  1.0000
  Ga  Ga12      1.0  0.00829816876174751  0.009415966299398976  0.0  1.0000
  Ga  Ga13      1.0  0.002847984002133781  0.0016939913736920935  0.9999989430747706  1.0000
  Ga  Ga14      1.0  0.0027775245254243824  0.006658091211330301  0.9997171357816462  1.0000
  Ga  Ga15      1.0  0.005568532255095097  0.0005535952401106026  0.9995735373663761  1.0000
  Ga  Ga16      1.0  0.005581835994271215  0.005560304229331624  0.9998644780783127  1.0000
  Na  Na1       1.0  0.0005685321822076593  0.0005535951679936781  0.9991427415625268  1.0000
  Na  Na2       1.0  0.0005685321822076593  0.00555359503972194  0.9994299383930673  1.0000
  Na  Na3       1.0  0.0005685321822076593  0.0005535951679936781  0.9997171357816462  1.0000
  Na  Na4       1.0  0.0005672772629858593  0.005549677751564322  0.9999979626008381  1.0000
