data_image0
_chemical_formula_structural       COAl2Os2Al2Os2Al2Os2Al2Os2Al2Os2Al2Os2Al2Os2Al2Os2
_chemical_formula_sum              "C1 O1 Al16 Os16"
_cell_length_a       6.064787864685059
_cell_length_b       8.576905250549316
_cell_length_c       100.0191650390625
_cell_angle_alpha    90.0
_cell_angle_beta     90.0
_cell_angle_gamma    90.0

_space_group_name_H-M_alt    "P 1"
_space_group_IT_number       1

loop_
  _space_group_symop_operation_xyz
  'x, y, z'

loop_
  _atom_site_type_symbol
  _atom_site_label
  _atom_site_symmetry_multiplicity
  _atom_site_fract_x
  _atom_site_fract_y
  _atom_site_fract_z
  _atom_site_occupancy
  C   C1        1.0  0.004999999090911378  0.004999999843637714  0.0001731719487811784  1.0000
  O   O1        1.0  0.004999999090911378  0.004999999843637714  0.0002931486023491591  1.0000
  Al  Al1       1.0  1.0999999998453353e-09  0.002499999921818857  0.9993546873278948  1.0000
  Al  Al2       1.0  1.0999999998453353e-09  0.0  0.9995690688847703  1.0000
  Os  Os1       1.0  0.002500001081078361  0.002499999921818857  0.9995690688847703  1.0000
  Os  Os2       1.0  0.002500001081078361  0.0  0.9993546873278948  1.0000
  Al  Al3       1.0  0.009999998181822756  0.002500001876347426  0.9997806570092844  1.0000
  Al  Al4       1.0  0.009999998796071824  0.009999999687275428  0.0  1.0000
  Os  Os3       1.0  0.0024999909459687253  0.002500000790498221  0.9999895509241545  1.0000
  Os  Os4       1.0  0.0024999984705198187  1.0000000054271451e-10  0.9997780733450704  1.0000
  Al  Al5       1.0  1.0999999998453353e-09  0.007500000416966094  0.9993546873278948  1.0000
  Al  Al6       1.0  1.0999999998453353e-09  0.004999999843637714  0.9995690688847703  1.0000
  Os  Os5       1.0  0.002500001081078361  0.007500000416966094  0.9995690688847703  1.0000
  Os  Os6       1.0  0.002500001081078361  0.004999999843637714  0.9993546873278948  1.0000
  Al  Al7       1.0  0.009999998181822756  0.0075000021543248216  0.9997806570092844  1.0000
  Al  Al8       1.0  0.009999998796071824  0.004999999843637714  0.0  1.0000
  Os  Os7       1.0  0.0024999909459687253  0.007500001285645458  0.9999895509241545  1.0000
  Os  Os8       1.0  0.0024999984705198187  0.005000000277977396  0.9997780733450704  1.0000
  Al  Al9       1.0  0.005000001240783119  0.002499999921818857  0.9993546873278948  1.0000
  Al  Al10      1.0  0.005000001240783119  0.0  0.9995690688847703  1.0000
  Os  Os9       1.0  0.007500001400487876  0.002499999921818857  0.9995690688847703  1.0000
  Os  Os10      1.0  0.007500001400487876  0.0  0.9993546873278948  1.0000
  Al  Al11      1.0  0.004999998169537775  0.002500001876347426  0.9997806570092844  1.0000
  Al  Al12      1.0  0.004999999090911378  0.009999999687275428  0.0  1.0000
  Os  Os11      1.0  0.007499990958253706  0.002500000790498221  0.9999895509241545  1.0000
  Os  Os12      1.0  0.0074999983292425325  1.0000000054271451e-10  0.9997780733450704  1.0000
  Al  Al13      1.0  0.005000001240783119  0.007500000416966094  0.9993546873278948  1.0000
  Al  Al14      1.0  0.005000001240783119  0.004999999843637714  0.9995690688847703  1.0000
  Os  Os13      1.0  0.007500001400487876  0.007500000416966094  0.9995690688847703  1.0000
  Os  Os14      1.0  0.007500001400487876  0.004999999843637714  0.9993546873278948  1.0000
  Al  Al15      1.0  0.004999998169537775  0.0075000021543248216  0.9997806570092844  1.0000
  Al  Al16      1.0  0.004999999090911378  0.004999999843637714  0.0  1.0000
  Os  Os15      1.0  0.007499990958253706  0.007500001285645458  0.9999895509241545  1.0000
  Os  Os16      1.0  0.0074999983292425325  0.005000000277977396  0.9997780733450704  1.0000
