data_image0
_chemical_formula_structural       COAl26Os8
_chemical_formula_sum              "C1 O1 Al26 Os8"
_cell_length_a       7.856115281426619
_cell_length_b       9.150015136788202
_cell_length_c       40.90315246582031
_cell_angle_alpha    94.34000980792625
_cell_angle_beta     97.6558507810711
_cell_angle_gamma    64.93508852210175

_space_group_name_H-M_alt    "P 1"
_space_group_IT_number       1

loop_
  _space_group_symop_operation_xyz
  'x, y, z'

loop_
  _atom_site_type_symbol
  _atom_site_label
  _atom_site_symmetry_multiplicity
  _atom_site_fract_x
  _atom_site_fract_y
  _atom_site_fract_z
  _atom_site_occupancy
  C   C1        1.0  0.0021895691467959753  0.0068350881601176115  0.00027302024513117763  1.0000
  O   O1        1.0  0.0021895691467959753  0.0068350881601176115  0.0005663963957240048  1.0000
  Al  Al1       1.0  0.003440113460205733  0.007659430453611092  0.9992299100458721  1.0000
  Al  Al2       1.0  0.005526333801221823  0.0008295686503203834  0.00015544869903967636  1.0000
  Al  Al3       1.0  0.0030116982188979832  0.004382125796398259  0.9999740718725909  1.0000
  Al  Al4       1.0  0.008641567726980989  0.004410446566667392  0.9999784736442083  1.0000
  Al  Al5       1.0  0.006615480826451002  0.0028268643256105473  0.9994937885895879  1.0000
  Al  Al6       1.0  0.009371196782392684  0.0013091780243583153  0.00010548041089892915  1.0000
  Al  Al7       1.0  0.0006288033501094221  0.003659704288791424  0.9994581621334678  1.0000
  Al  Al8       1.0  0.0012186801924789588  0.007659282996428918  0.9997735439387223  1.0000
  Al  Al9       1.0  0.004884524717273248  0.006133550275936265  0.9998767820152586  1.0000
  Al  Al10      1.0  0.006963510768609697  0.007651090131526627  0.9997721925546285  1.0000
  Al  Al11      1.0  0.0015850014512740931  0.0003086913270929166  0.9996373882998515  1.0000
  Al  Al12      1.0  0.0041014326888980926  0.0015677664467483058  0.9995562524982057  1.0000
  Al  Al13      1.0  0.009305696072973747  0.0068260833815842  0.9992755104413377  1.0000
  Al  Al14      1.0  0.0034401137945604633  0.006230858978798735  0.9982136818544981  1.0000
  Al  Al15      1.0  0.0058465966434428  0.009112540961447297  0.9991503957708109  1.0000
  Al  Al16      1.0  0.0030075045813274803  0.0028884555721724213  0.9989437777109993  1.0000
  Al  Al17      1.0  0.008665412697055412  0.002902668556362825  0.9989430001012897  1.0000
  Al  Al18      1.0  0.006555231387826139  0.0013992038934191571  0.9984780699042894  1.0000
  Al  Al19      1.0  0.0088472539705118  5.3906603880378545e-05  0.9990988843169872  1.0000
  Al  Al20      1.0  0.0006896494927402464  0.0022325509654460493  0.9984324691628842  1.0000
  Al  Al21      1.0  0.0013299320407476633  0.006155966015449715  0.9987649798498566  1.0000
  Al  Al22      1.0  0.004997672368901538  0.00452931728590627  0.9988539899755732  1.0000
  Al  Al23      1.0  0.006987840634930342  0.006170178999640118  0.998764201888086  1.0000
  Al  Al24      1.0  0.0011480911406842001  0.009004728182177782  0.9986090956473401  1.0000
  Al  Al25      1.0  0.0041487476676961505  0.009946093934051738  0.9985575839708877  1.0000
  Al  Al26      1.0  0.009305695450418983  0.005397511906771844  0.9982592825897821  1.0000
  Os  Os1       1.0  0.003040300136302288  0.005089869470039175  0.999370516209454  1.0000
  Os  Os2       1.0  0.007849496968033646  0.009855227941182394  0.9996861323814507  1.0000
  Os  Os3       1.0  0.00695504522405555  0.005397336576585721  0.9993536915932477  1.0000
  Os  Os4       1.0  0.001947102445772395  0.0023067974549293166  4.403330612826477e-05  1.0000
  Os  Os5       1.0  0.003040299992202272  0.003661297995226818  0.9983542883701411  1.0000
  Os  Os6       1.0  0.007913253843351101  0.008351344508832643  0.9986448486578787  1.0000
  Os  Os7       1.0  0.00695504555841028  0.003968765101773365  0.9983374637661772  1.0000
  Os  Os8       1.0  0.002082091197581167  0.0007072894448286003  0.9990631309262561  1.0000
