data_image0
_chemical_formula_structural       COAu3Cu6Pd3Au3Cu6Pd3Au3Cu6Pd3Au3Cu6Pd3
_chemical_formula_sum              "C1 O1 Au12 Cu24 Pd12"
_cell_length_a       8.734162217595799
_cell_length_b       8.734162330627441
_cell_length_c       102.09136199951172
_cell_angle_alpha    90.0
_cell_angle_beta     90.0
_cell_angle_gamma    120.00000042809563

_space_group_name_H-M_alt    "P 1"
_space_group_IT_number       1

loop_
  _space_group_symop_operation_xyz
  'x, y, z'

loop_
  _atom_site_type_symbol
  _atom_site_label
  _atom_site_symmetry_multiplicity
  _atom_site_fract_x
  _atom_site_fract_y
  _atom_site_fract_z
  _atom_site_occupancy
  C   C1        1.0  0.0016666665944330002  0.002499999929761609  0.00016965699532310677  1.0000
  O   O1        1.0  0.0016666665944330002  0.002499999929761609  0.00028719842565594616  1.0000
  Au  Au1       1.0  0.0024999998916495005  0.004166666552778691  0.9996507339354962  1.0000
  Au  Au2       1.0  0.004166666732333636  0.0025000000776180292  0.0  1.0000
  Au  Au3       1.0  0.0008333333587792841  0.0008333333375259193  0.9993014675790742  1.0000
  Cu  Cu1       1.0  0.004166666732333636  0.0025000000776180292  0.9992141507710302  1.0000
  Cu  Cu2       1.0  0.0008333333587792841  0.0008333333375259193  0.9995634171274521  1.0000
  Cu  Cu3       1.0  0.0024999998916495005  0.004166666552778691  0.9999126831919559  1.0000
  Cu  Cu4       1.0  0.0024999998916495005  0.004166666552778691  0.9993887840952002  1.0000
  Cu  Cu5       1.0  0.004166666732333636  0.0025000000776180292  0.999738050159704  1.0000
  Cu  Cu6       1.0  0.0008333333587792841  0.0008333333375259193  0.9990395177387782  1.0000
  Pd  Pd1       1.0  0.0008333333587792841  0.0008333333375259193  0.9998253669677482  1.0000
  Pd  Pd2       1.0  0.0024999998916495005  0.004166666552778691  0.9991268342549041  1.0000
  Pd  Pd3       1.0  0.004166666732333636  0.0025000000776180292  0.9994761006113261  1.0000
  Au  Au4       1.0  0.0024999998916495005  0.009166666237154283  0.9996507339354962  1.0000
  Au  Au5       1.0  0.004166666732333636  0.007500000135198158  0.0  1.0000
  Au  Au6       1.0  0.0008333333587792841  0.0058333330219015106  0.9993014675790742  1.0000
  Cu  Cu7       1.0  0.004166666732333636  0.007500000135198158  0.9992141507710302  1.0000
  Cu  Cu8       1.0  0.0008333333587792841  0.0058333330219015106  0.9995634171274521  1.0000
  Cu  Cu9       1.0  0.0024999998916495005  0.009166666237154283  0.9999126831919559  1.0000
  Cu  Cu10      1.0  0.0024999998916495005  0.009166666237154283  0.9993887840952002  1.0000
  Cu  Cu11      1.0  0.004166666732333636  0.007500000135198158  0.999738050159704  1.0000
  Cu  Cu12      1.0  0.0008333333587792841  0.0058333330219015106  0.9990395177387782  1.0000
  Pd  Pd4       1.0  0.0008333333587792841  0.0058333330219015106  0.9998253669677482  1.0000
  Pd  Pd5       1.0  0.0024999998916495005  0.009166666237154283  0.9991268342549041  1.0000
  Pd  Pd6       1.0  0.004166666732333636  0.007500000135198158  0.9994761006113261  1.0000
  Au  Au7       1.0  0.007499999921199637  0.004166666592078629  0.9996507339354962  1.0000
  Au  Au8       1.0  0.00916666700813491  0.0025000002133860684  0.0  1.0000
  Au  Au9       1.0  0.005833333326766637  0.000833333372701932  0.9993014675790742  1.0000
  Cu  Cu13      1.0  0.00916666700813491  0.0025000002133860684  0.9992141507710302  1.0000
  Cu  Cu14      1.0  0.005833333326766637  0.000833333372701932  0.9995634171274521  1.0000
  Cu  Cu15      1.0  0.007499999921199637  0.004166666592078629  0.9999126831919559  1.0000
  Cu  Cu16      1.0  0.007499999921199637  0.004166666592078629  0.9993887840952002  1.0000
  Cu  Cu17      1.0  0.00916666700813491  0.0025000002133860684  0.999738050159704  1.0000
  Cu  Cu18      1.0  0.005833333326766637  0.000833333372701932  0.9990395177387782  1.0000
  Pd  Pd7       1.0  0.005833333326766637  0.000833333372701932  0.9998253669677482  1.0000
  Pd  Pd8       1.0  0.007499999921199637  0.004166666592078629  0.9991268342549041  1.0000
  Pd  Pd9       1.0  0.00916666700813491  0.0025000002133860684  0.9994761006113261  1.0000
  Au  Au10      1.0  0.007499999921199637  0.009166666303111687  0.9996507339354962  1.0000
  Au  Au11      1.0  0.00916666700813491  0.007500000111021396  0.0  1.0000
  Au  Au12      1.0  0.005833333326766637  0.005833333270337259  0.9993014675790742  1.0000
  Cu  Cu19      1.0  0.00916666700813491  0.007500000111021396  0.9992141507710302  1.0000
  Cu  Cu20      1.0  0.005833333326766637  0.005833333270337259  0.9995634171274521  1.0000
  Cu  Cu21      1.0  0.007499999921199637  0.009166666303111687  0.9999126831919559  1.0000
  Cu  Cu22      1.0  0.007499999921199637  0.009166666303111687  0.9993887840952002  1.0000
  Cu  Cu23      1.0  0.00916666700813491  0.007500000111021396  0.999738050159704  1.0000
  Cu  Cu24      1.0  0.005833333326766637  0.005833333270337259  0.9990395177387782  1.0000
  Pd  Pd10      1.0  0.005833333326766637  0.005833333270337259  0.9998253669677482  1.0000
  Pd  Pd11      1.0  0.007499999921199637  0.009166666303111687  0.9991268342549041  1.0000
  Pd  Pd12      1.0  0.00916666700813491  0.007500000111021396  0.9994761006113261  1.0000
