data_image0
_chemical_formula_structural       COAl42Ca18Cu12
_chemical_formula_sum              "C1 O1 Al42 Ca18 Cu12"
_cell_length_a       9.278679847717285
_cell_length_b       14.602011238879271
_cell_length_c       103.82489013671875
_cell_angle_alpha    101.13012390402557
_cell_angle_beta     90.0
_cell_angle_gamma    106.47424376794808

_space_group_name_H-M_alt    "P 1"
_space_group_IT_number       1

loop_
  _space_group_symop_operation_xyz
  'x, y, z'

loop_
  _atom_site_type_symbol
  _atom_site_label
  _atom_site_symmetry_multiplicity
  _atom_site_fract_x
  _atom_site_fract_y
  _atom_site_fract_z
  _atom_site_occupancy
  C   C1        1.0  0.008461962554951363  0.0035768694326507224  0.0001509917434267316  1.0000
  O   O1        1.0  0.008461962554951363  0.0035768694326507224  0.00026657119940201064  1.0000
  Al  Al1       1.0  0.001670573301655978  0.006727492013381003  4.693246977587036e-05  1.0000
  Al  Al2       1.0  0.004976564396802504  0.009993189445675869  0.9998860240898438  1.0000
  Al  Al3       1.0  0.008334481807253095  0.0033401439383567762  0.9996922155286253  1.0000
  Al  Al4       1.0  0.001543736339005124  0.003870262271070014  0.9997066077068533  1.0000
  Al  Al5       1.0  0.004700236920094627  0.007180280497790982  6.717404587360654e-05  1.0000
  Al  Al6       1.0  0.00816480042430264  0.0005176253548031936  0.999901119523034  1.0000
  Al  Al7       1.0  0.003176960909789757  0.005511454373644721  0.9998897102722667  1.0000
  Al  Al8       1.0  0.006522180486122875  0.008848706278449702  0.9997042667149865  1.0000
  Al  Al9       1.0  0.009964082969591613  0.0021830930004201033  5.451360120374938e-05  1.0000
  Al  Al10      1.0  0.0031888467097008722  0.005515372525036363  0.999617281475003  1.0000
  Al  Al11      1.0  0.0064278254708201  0.008800831824463897  0.9999737795912969  1.0000
  Al  Al12      1.0  0.009851911332021953  0.002195314612531646  0.9997951617730754  1.0000
  Al  Al13      1.0  0.00010491224849685145  0.007829259019372653  0.9999513113358368  1.0000
  Al  Al14      1.0  0.0034801167679165915  0.0011649152158754643  0.9997671495785608  1.0000
  Al  Al15      1.0  0.0068134502621489765  0.004498248561883625  0.9995861561744406  1.0000
  Al  Al16      1.0  0.0017806279091007282  0.009481445086458028  0.9998645269481998  1.0000
  Al  Al17      1.0  0.005125227274497344  0.002810025605643539  0.9996778233503973  1.0000
  Al  Al18      1.0  0.00856663092121457  0.006159608307147574  3.797636247792475e-05  1.0000
  Al  Al19      1.0  0.00014678331837569042  0.007831581772090061  0.999680164220684  1.0000
  Al  Al20      1.0  0.003386085521420529  0.0011959308362201812  3.2468316375918344e-05  1.0000
  Al  Al21      1.0  0.006846210515216523  0.004467882209589769  0.9998707600896608  1.0000
  Al  Al22      1.0  0.0016678149638521239  0.006673477148563212  0.9995112221208181  1.0000
  Al  Al23      1.0  0.005001148338825509  6.8106501704438226e-06  0.9993302288472216  1.0000
  Al  Al24      1.0  0.008334481807253095  0.0033401439383567762  0.9991492354415314  1.0000
  Al  Al25      1.0  0.001543736339005124  0.003870262271070014  0.9991636276197594  1.0000
  Al  Al26      1.0  0.004877070040147891  0.0072035960244833525  0.9995256143137936  1.0000
  Al  Al27      1.0  0.008210403709360747  0.0005369290608635784  0.9993446210275666  1.0000
  Al  Al28      1.0  0.0031888467097008722  0.005515372525036363  0.9993422800209523  1.0000
  Al  Al29      1.0  0.006522180486122875  0.008848706278449702  0.9991612866278926  1.0000
  Al  Al30      1.0  0.009855513352357214  0.0021820393148299275  0.9995232734287595  1.0000
  Al  Al31      1.0  0.0031888467097008722  0.005515372525036363  0.9990743013879091  1.0000
  Al  Al32      1.0  0.006522180486122875  0.008848706278449702  0.9994362880819433  1.0000
  Al  Al33      1.0  0.009855513352357214  0.0021820393148299275  0.9992552947957163  1.0000
  Al  Al34      1.0  0.00014678331837569042  0.007831581772090061  0.9994051627666334  1.0000
  Al  Al35      1.0  0.0034801167679165915  0.0011649152158754643  0.999224169491467  1.0000
  Al  Al36      1.0  0.0068134502621489765  0.004498248561883625  0.9990431760873467  1.0000
  Al  Al37      1.0  0.0017918935636060454  0.00947669202605641  0.999315836534783  1.0000
  Al  Al38      1.0  0.005125227274497344  0.002810025605643539  0.9991348432633035  1.0000
  Al  Al39      1.0  0.008458560708123961  0.006143358815849974  0.9994968299425901  1.0000
  Al  Al40      1.0  0.00014678331837569042  0.007831581772090061  0.9991371841335901  1.0000
  Al  Al41      1.0  0.0034801167679165915  0.0011649152158754643  0.9994991709455177  1.0000
  Al  Al42      1.0  0.0068134502621489765  0.004498248561883625  0.9993181775413973  1.0000
  Ca  Ca1       1.0  0.006667815353296706  0.006673477148563212  0.9997827121643651  1.0000
  Ca  Ca2       1.0  1.1483000959107983e-06  6.8106501704438226e-06  0.9996017188907685  1.0000
  Ca  Ca3       1.0  0.003313138531181167  0.0032880780999071002  0.9999508042451362  1.0000
  Ca  Ca4       1.0  0.003277540062444665  0.0076793790003060036  0.9998128309730875  1.0000
  Ca  Ca5       1.0  0.0066655185994085415  0.000959847751989945  0.9996275928871592  1.0000
  Ca  Ca6       1.0  4.110161759351576e-05  0.004326087825274901  1.7793347455346269e-06  1.0000
  Ca  Ca7       1.0  3.444868745258335e-06  0.0057204401926244704  0.999756838171935  1.0000
  Ca  Ca8       1.0  0.003336778402744191  0.009053773402830907  0.9995758447641278  1.0000
  Ca  Ca9       1.0  0.006655929946852186  0.00231924169958993  0.9999595832698186  1.0000
  Ca  Ca10      1.0  0.006667815353296706  0.006673477148563212  0.9992397320772712  1.0000
  Ca  Ca11      1.0  1.1483000959107983e-06  6.8106501704438226e-06  0.9990587388036747  1.0000
  Ca  Ca12      1.0  0.0033344817189254576  0.0033401439383567762  0.9994207254850784  1.0000
  Ca  Ca13      1.0  0.0033321852449226326  0.007626514647708856  0.9992656060844489  1.0000
  Ca  Ca14      1.0  0.0066655185994085415  0.000959847751989945  0.9990846128000653  1.0000
  Ca  Ca15      1.0  0.009998852525433071  0.004293181165898969  0.9994465994848823  1.0000
  Ca  Ca16      1.0  3.444868745258335e-06  0.0057204401926244704  0.9992138580848411  1.0000
  Ca  Ca17      1.0  0.003336778402744191  0.009053773402830907  0.999032864964078  1.0000
  Ca  Ca18      1.0  0.006670112013263174  0.0023871069824180353  0.9993948514926483  1.0000
  Cu  Cu1       1.0  0.005700255169289817  0.005715402491805659  9.05680007929309e-06  1.0000
  Cu  Cu2       1.0  0.008845339309496618  0.008906669714245705  0.9998513536399227  1.0000
  Cu  Cu3       1.0  0.0021841511444226163  0.002240238502421851  0.9996623542050471  1.0000
  Cu  Cu4       1.0  0.007547222267158524  0.007600510246846427  5.5437345706792624e-05  1.0000
  Cu  Cu5       1.0  0.0010670518740673784  0.0010508863771035491  0.9998982314280134  1.0000
  Cu  Cu6       1.0  0.004484812615384464  0.004440049645895153  0.9997220768595773  1.0000
  Cu  Cu7       1.0  0.005517484578049234  0.0055735717126282865  0.9994813607972399  1.0000
  Cu  Cu8       1.0  0.008850817810931222  0.008906904922834722  0.9993003673894327  1.0000
  Cu  Cu9       1.0  0.0021841511444226163  0.002240238502421851  0.9991193741179533  1.0000
  Cu  Cu10      1.0  0.007818146170222617  0.00777338312770504  0.9995410834591438  1.0000
  Cu  Cu11      1.0  0.0011514789601739974  0.0011067161640852664  0.9993600901729168  1.0000
  Cu  Cu12      1.0  0.004484812615384464  0.004440049645895153  0.9991790967724834  1.0000
