data_image0
_chemical_formula_structural       COAu6Sn24
_chemical_formula_sum              "C1 O1 Au6 Sn24"
_cell_length_a       13.482603114571596
_cell_length_b       6.917362213894146
_cell_length_c       105.29378509521484
_cell_angle_alpha    89.28453754731174
_cell_angle_beta     79.80966662461404
_cell_angle_gamma    91.87317087939293

_space_group_name_H-M_alt    "P 1"
_space_group_IT_number       1

loop_
  _space_group_symop_operation_xyz
  'x, y, z'

loop_
  _atom_site_type_symbol
  _atom_site_label
  _atom_site_symmetry_multiplicity
  _atom_site_fract_x
  _atom_site_fract_y
  _atom_site_fract_z
  _atom_site_occupancy
  C   C1        1.0  0.006602981933723775  0.006808454203679078  0.9998816843676125  1.0000
  O   O1        1.0  0.006602981933723775  0.006808454203679078  0.9999956514389629  1.0000
  Au  Au1       1.0  0.007291666329576404  0.0007366546848776094  0.9996838896607634  1.0000
  Au  Au2       1.0  0.005624999932581948  0.0007366546998564266  0.9991252340871655  1.0000
  Au  Au3       1.0  0.0014583332378244255  0.005736654800276457  0.9994045617412595  1.0000
  Au  Au4       1.0  0.008541666689139351  0.0032366548513891014  0.9992648976174134  1.0000
  Au  Au5       1.0  0.004374999853927553  0.008236654807608455  0.999544225840887  1.0000
  Au  Au6       1.0  0.002708333176024544  0.00823665502227769  0.9989855699904492  1.0000
  Sn  Sn1       1.0  0.0033951725645057725  0.0010458051105421988  0.9991620698305695  1.0000
  Sn  Sn2       1.0  0.009228505515803474  0.006045805173419858  0.9994413980361488  1.0000
  Sn  Sn3       1.0  0.005061838961500229  0.001045805078732631  0.9997207259702607  1.0000
  Sn  Sn4       1.0  0.0031280437003457055  0.0054275043688092875  0.999179978046423  1.0000
  Sn  Sn5       1.0  0.008961376651643408  0.0004275043785017751  0.9994593059690062  1.0000
  Sn  Sn6       1.0  0.004794710097340162  0.005427504673614732  0.9997386336197587  1.0000
  Sn  Sn7       1.0  0.0010386229944118165  0.0085458054728542  0.9992101533958665  1.0000
  Sn  Sn8       1.0  0.006871956367072348  0.0035458050231189303  0.9994894813092811  1.0000
  Sn  Sn9       1.0  0.002705289531860549  0.008545805248630295  0.9997688095325338  1.0000
  Sn  Sn10      1.0  0.008417796692107184  0.004400813831305438  0.9997210439187443  1.0000
  Sn  Sn11      1.0  0.006751130295112727  0.004400814065084014  0.9991623877788873  1.0000
  Sn  Sn12      1.0  0.0025844637408094814  0.009400813771120698  0.9994417159962025  1.0000
  Sn  Sn13      1.0  0.009082202723603027  0.009572495860982883  0.99978639921593  1.0000
  Sn  Sn14      1.0  0.007415536326608571  0.009572496094761457  0.9992277436421526  1.0000
  Sn  Sn15      1.0  0.0032488694913967732  0.004572495577026874  0.9995070715829752  1.0000
  Sn  Sn16      1.0  0.009225653170363585  0.0020724956616211426  0.9989964992772498  1.0000
  Sn  Sn17      1.0  0.00505898661606034  0.007072495906241849  0.9992758269280436  1.0000
  Sn  Sn18      1.0  0.0008923200617570935  0.0020724956769086153  0.999555154862266  1.0000
  Sn  Sn19      1.0  0.0007743466161459153  0.006900814249781755  0.9996729600843919  1.0000
  Sn  Sn20      1.0  0.009107679443843854  0.006900814215384942  0.9991143045057551  1.0000
  Sn  Sn21      1.0  0.0049410128895406085  0.0019008138514057036  0.9993936324400878  1.0000
  Sn  Sn22      1.0  0.0007714940600246113  0.0029275044543590235  0.9992280613304982  1.0000
  Sn  Sn23      1.0  0.00660482750291228  0.007927504752647037  0.999507389524748  1.0000
  Sn  Sn24      1.0  0.002438160667700482  0.0029275045042044634  0.9997867174653498  1.0000
