data_image0
_chemical_formula_structural       HSb12Os6
_chemical_formula_sum              "H1 Sb12 Os6"
_cell_length_a       6.042284965515137
_cell_length_b       9.428879557937
_cell_length_c       100.15753936767578
_cell_angle_alpha    69.59864818410809
_cell_angle_beta     90.0
_cell_angle_gamma    90.0

_space_group_name_H-M_alt    "P 1"
_space_group_IT_number       1

loop_
  _space_group_symop_operation_xyz
  'x, y, z'

loop_
  _atom_site_type_symbol
  _atom_site_label
  _atom_site_symmetry_multiplicity
  _atom_site_fract_x
  _atom_site_fract_y
  _atom_site_fract_z
  _atom_site_occupancy
  H   H1        1.0  0.004068718203970457  0.00883287504954553  0.9998640336143897  1.0000
  Sb  Sb1       1.0  0.00318778100508697  0.00845488045862785  0.9992014115079284  1.0000
  Sb  Sb2       1.0  0.0032381338638245083  0.0016982943807963414  0.9997077181236176  1.0000
  Sb  Sb3       1.0  0.00318778100508697  0.005121547018505667  0.9994523291328827  1.0000
  Sb  Sb4       1.0  0.006825115894098531  0.006070595827961517  0.9995952090899972  1.0000
  Sb  Sb5       1.0  0.006825115894098531  0.009403929268083701  0.9993442914650429  1.0000
  Sb  Sb6       1.0  0.006687906889545826  0.0027532788184347467  0.9998621112132471  1.0000
  Sb  Sb7       1.0  0.0018251158016180289  0.00845488045862785  0.9995777881424402  1.0000
  Sb  Sb8       1.0  0.0018251158016180289  0.0017882135783834836  0.9993268704208798  1.0000
  Sb  Sb9       1.0  0.0024659108855913108  0.004939394607309656  0.9998379047556143  1.0000
  Sb  Sb10      1.0  0.008124453995118214  0.009276033039813725  0.9997397864134654  1.0000
  Sb  Sb11      1.0  0.008187780943433302  0.0027372621770718666  0.9994697500873565  1.0000
  Sb  Sb12      1.0  0.008187780943433302  0.006070595827961517  0.9992188327530398  1.0000
  Os  Os1       1.0  0.004899302235848066  0.007333875746501274  0.9997511790431023  1.0000
  Os  Os2       1.0  0.00500644860372692  0.0005960712103584502  0.9995237689160889  1.0000
  Os  Os3       1.0  0.00500644860372692  0.0039294044924050335  0.9992728515938765  1.0000
  Os  Os4       1.0  6.448300516108402e-06  0.007262738354062151  0.9993983102920461  1.0000
  Os  Os5       1.0  0.009829802460662  0.0009328068576705977  0.9998661136350225  1.0000
  Os  Os6       1.0  0.009993552136117093  0.0038914098626386937  0.9996668254114114  1.0000
