data_image0
_chemical_formula_structural       COSi18V30
_chemical_formula_sum              "C1 O1 Si18 V30"
_cell_length_a       9.753850498065662
_cell_length_b       7.079946038299573
_cell_length_c       107.91162109375
_cell_angle_alpha    93.71519764619846
_cell_angle_beta     91.1897115189907
_cell_angle_gamma    75.85189309667982

_space_group_name_H-M_alt    "P 1"
_space_group_IT_number       1

loop_
  _space_group_symop_operation_xyz
  'x, y, z'

loop_
  _atom_site_type_symbol
  _atom_site_label
  _atom_site_symmetry_multiplicity
  _atom_site_fract_x
  _atom_site_fract_y
  _atom_site_fract_z
  _atom_site_occupancy
  C   C1        1.0  0.0008426535855721588  0.002852440520760896  0.00017387518109805892  1.0000
  O   O1        1.0  0.0008426535855721588  0.002852440520760896  0.00028507696448731157  1.0000
  Si  Si1       1.0  0.003886311260554924  0.006392098284246428  0.9993057331788149  1.0000
  Si  Si2       1.0  0.007219644993022792  0.004725431174010578  0.9998912685116299  1.0000
  Si  Si3       1.0  0.0005529781681465483  0.005558764862859081  0.9995985007340183  1.0000
  Si  Si4       1.0  0.007499999716404409  0.004363389259124799  0.9994274932508346  1.0000
  Si  Si5       1.0  0.0008333332361755846  0.00269672277933934  1.3028362230190748e-05  1.0000
  Si  Si6       1.0  0.004166666771702071  0.0035300557880635994  0.9997202610822774  1.0000
  Si  Si7       1.0  0.006674398595846386  0.008736456095483592  0.9996477482224406  1.0000
  Si  Si8       1.0  7.732199471509297e-06  0.009569789112943119  0.9993549807189523  1.0000
  Si  Si9       1.0  0.0033410652572612824  0.007903123284169058  0.9999405155036023  1.0000
  Si  Si10      1.0  0.009447021306019961  0.0019180138945777063  0.9996956372395204  1.0000
  Si  Si11      1.0  0.002780355219673901  0.002751347071415417  0.999402870013465  1.0000
  Si  Si12      1.0  0.0061136883613176225  0.0010846804235165072  0.9999884050709633  1.0000
  Si  Si13      1.0  0.0024999999054681364  0.0031133891849966064  0.9998666447216494  1.0000
  Si  Si14      1.0  0.00583333324405324  0.003946722787235729  0.9995738774438502  1.0000
  Si  Si15      1.0  0.009166666582638344  0.004780056125833322  0.9992811096125834  1.0000
  Si  Si16      1.0  0.00332560102602616  0.008740322823192568  0.9996463897713929  1.0000
  Si  Si17      1.0  0.006658934758494028  0.009573655502043496  0.9993536224904073  1.0000
  Si  Si18      1.0  0.009992267703196367  0.007906988656734858  0.9999391575466968  1.0000
  V   V1        1.0  0.0032505929463877785  0.005553322398797384  0.9995374160162772  1.0000
  V   V2        1.0  0.0065839260880315  0.006386655803626781  0.9992446481849223  1.0000
  V   V3        1.0  0.00991725903273384  0.004719988958318144  0.9998301832412119  1.0000
  V   V4        1.0  0.0008333332361755846  0.008946723042980869  0.9995738769284783  1.0000
  V   V5        1.0  0.004166666771702071  0.009780055788063598  0.9992811096474048  1.0000
  V   V6        1.0  0.007499999716404409  0.008113388942754964  0.9998666447036944  1.0000
  V   V7        1.0  0.007917720266300545  0.0010942401195510455  0.9995227977258531  1.0000
  V   V8        1.0  0.0012510537860717205  0.0019275734288523624  0.9992300299472746  1.0000
  V   V9        1.0  0.004584386927715442  0.0002609067809534527  0.999815565004773  1.0000
  V   V10       1.0  0.005415612694157104  0.007215871926809482  0.9994785729688317  1.0000
  V   V11       1.0  0.008748946032742207  0.008049204738124016  0.9991858054114967  1.0000
  V   V12       1.0  0.002082279552513383  0.006382538521980087  0.9997713408001866  1.0000
  V   V13       1.0  0.009166666582638344  0.008530055809463486  0.9997202610654432  1.0000
  V   V14       1.0  0.0024999999054681364  0.009363388921355076  0.9994274932856559  1.0000
  V   V15       1.0  0.00583333324405324  0.007696722998148953  1.3028346604783414e-05  1.0000
  V   V16       1.0  0.004748237825228684  0.0010532774936037096  0.9995371884617474  1.0000
  V   V17       1.0  0.008081571557696553  0.0018866106997376955  0.9992444211830035  1.0000
  V   V18       1.0  0.001414904683584963  0.0002199439569535485  0.9998299562925419  1.0000
  V   V19       1.0  0.006749406478543385  0.001923456638838884  0.9997567225107071  1.0000
  V   V20       1.0  8.274039835174305e-05  0.0027567898136068507  0.9994639547323076  1.0000
  V   V21       1.0  0.003416073533841046  0.003590123220505991  0.9991711871771234  1.0000
  V   V22       1.0  0.0012484684380732098  0.006053853081433493  0.9993615685712818  1.0000
  V   V23       1.0  0.004581801875129005  0.004387186597828409  0.9999471036300329  1.0000
  V   V24       1.0  0.007915134819831342  0.005220520068889607  0.9996543363509369  1.0000
  V   V25       1.0  0.008585094741346201  0.007256834685220426  0.9994641816804144  1.0000
  V   V26       1.0  0.0019184286550001407  0.008090167598416605  0.9991714144532381  1.0000
  V   V27       1.0  0.005251761796643862  0.006423501214159226  0.9997569495118572  1.0000
  V   V28       1.0  0.00875153147921141  0.0014229252633402073  0.9999325694013342  1.0000
  V   V29       1.0  0.0020848648020412026  0.002256258638873328  0.9996398021750147  1.0000
  V   V30       1.0  0.0054181981406263065  0.0030895919774709206  0.9993470343437478  1.0000
