data_image0
_chemical_formula_structural       COIn6Au9In6Au9
_chemical_formula_sum              "C1 O1 In12 Au18"
_cell_length_a       5.793778896331787
_cell_length_b       12.551664606484378
_cell_length_c       103.20858001708984
_cell_angle_alpha    79.10660621242062
_cell_angle_beta     90.0
_cell_angle_gamma    90.0

_space_group_name_H-M_alt    "P 1"
_space_group_IT_number       1

loop_
  _space_group_symop_operation_xyz
  'x, y, z'

loop_
  _atom_site_type_symbol
  _atom_site_label
  _atom_site_symmetry_multiplicity
  _atom_site_fract_x
  _atom_site_fract_y
  _atom_site_fract_z
  _atom_site_occupancy
  C   C1        1.0  0.004936902722001311  0.0068465635247964415  0.9999629895355842  1.0000
  O   O1        1.0  0.004936902722001311  0.0068465635247964415  7.925859685859309e-05  1.0000
  In  In1       1.0  0.0017392346061066949  0.008333333212436223  0.9990699307134422  1.0000
  In  In2       1.0  0.0017392346061066949  0.004999999806564624  0.9993763705316507  1.0000
  In  In3       1.0  0.0017392346061066949  0.0016666665518144121  0.9992231506273491  1.0000
  In  In4       1.0  0.008260765200998976  0.006111110740359973  0.9991210040238665  1.0000
  In  In5       1.0  0.008260765200998976  0.0027777776367311495  0.9994274438351286  1.0000
  In  In6       1.0  0.008260765200998976  0.009444444146231573  0.9992742239246949  1.0000
  Au  Au1       1.0  0.006846650449140298  0.008333333212436223  0.9990699307134422  1.0000
  Au  Au2       1.0  0.006846650449140298  0.004999999806564624  0.9993763705316507  1.0000
  Au  Au3       1.0  0.006846650449140298  0.0016666665518144121  0.9992231506273491  1.0000
  Au  Au4       1.0  0.0031533493579653732  0.006111110740359973  0.9991210040238665  1.0000
  Au  Au5       1.0  0.0031533493579653732  0.0027777776367311495  0.9994274438351286  1.0000
  Au  Au6       1.0  0.0031533493579653732  0.009444444146231573  0.9992742239246949  1.0000
  Au  Au7       1.0  0.004999999742807562  0.007222222278640873  0.9993252972212264  1.0000
  Au  Au8       1.0  0.004999999742807562  0.0038888885705264994  0.9991720773273445  1.0000
  Au  Au9       1.0  0.004999999742807562  0.0005555555424583686  0.9994785171368699  1.0000
  In  In7       1.0  0.0017392346061066949  0.008333333212436223  0.9995295907212373  1.0000
  In  In8       1.0  0.0019198304744336315  0.005176959928817329  0.999865147846778  1.0000
  In  In9       1.0  0.0021600302080234165  0.0013889107309667521  0.9996789289400667  1.0000
  In  In10      1.0  0.008260765200998976  0.006111110740359973  0.9995806640316616  1.0000
  In  In11      1.0  0.007984059572764267  0.002710777969614088  0.9998844125217038  1.0000
  In  In12      1.0  0.007633567363020336  0.009064681539990094  0.9997916665410385  1.0000
  Au  Au10      1.0  0.006846650449140298  0.008333333212436223  0.9995295907212373  1.0000
  Au  Au11      1.0  0.00702792032239998  0.0050050236859683446  0.9998374827438843  1.0000
  Au  Au12      1.0  0.007412457095157498  0.0014877507676869762  0.9996703317639456  1.0000
  Au  Au13      1.0  0.0031533493579653732  0.006111110740359973  0.9995806640316616  1.0000
  Au  Au14      1.0  0.002872305536283269  0.002875219498374872  0.9998793949690651  1.0000
  Au  Au15      1.0  0.0024729486922690424  0.009068110182028105  0.9997889484907789  1.0000
  Au  Au16      1.0  0.004936902722001311  0.007112132765840364  0.9997920893540916  1.0000
  Au  Au17      1.0  0.004999999742807562  0.0038888885705264994  0.9996317373351395  1.0000
  Au  Au18      1.0  0.004988687133423618  0.0007399824969032931  0.9999096536101135  1.0000
