data_image0
_chemical_formula_structural       HSi8Mo4Si8Mo4
_chemical_formula_sum              "H1 Si16 Mo8"
_cell_length_a       4.564632892608643
_cell_length_b       8.524264760347947
_cell_length_c       101.95243072509766
_cell_angle_alpha    105.53003572060281
_cell_angle_beta     90.0
_cell_angle_gamma    74.46996427939719

_space_group_name_H-M_alt    "P 1"
_space_group_IT_number       1

loop_
  _space_group_symop_operation_xyz
  'x, y, z'

loop_
  _atom_site_type_symbol
  _atom_site_label
  _atom_site_symmetry_multiplicity
  _atom_site_fract_x
  _atom_site_fract_y
  _atom_site_fract_z
  _atom_site_occupancy
  H   H1        1.0  0.005511055426210565  0.0048151865629762975  0.00010779320715105841  1.0000
  Si  Si1       1.0  0.009588769971437445  0.0016611183044232408  0.9994791962927685  1.0000
  Si  Si2       1.0  0.004588770020404673  0.0016611183044232408  0.9997030571145653  1.0000
  Si  Si3       1.0  0.008733690525136869  0.0033712771970243944  0.9992936189521628  1.0000
  Si  Si4       1.0  0.0037336905741040967  0.0033712771970243944  0.9995174800662756  1.0000
  Si  Si5       1.0  0.007088769874640598  0.006661118498016936  0.9993672656406586  1.0000
  Si  Si6       1.0  0.002088769923607826  0.006661118498016936  0.9995911264624553  1.0000
  Si  Si7       1.0  0.006233690369317553  0.008371277508663025  0.999629410238605  1.0000
  Si  Si8       1.0  0.0012336904182847811  0.008371277508663025  0.9994055494168083  1.0000
  Mo  Mo1       1.0  0.00041123016753426956  1.619770003827319e-05  0.9996662337713498  1.0000
  Mo  Mo2       1.0  0.005411230322597157  1.619770003827319e-05  0.999442372949553  1.0000
  Mo  Mo3       1.0  0.007911230258911202  0.005016197729475729  0.9995543031155649  1.0000
  Mo  Mo4       1.0  0.0029112303078784292  0.005016197729475729  0.9993304422937681  1.0000
  Si  Si9       1.0  0.009539352505292241  0.0017595027382194402  0.9999407843706313  1.0000
  Si  Si10      1.0  0.004746117552082347  0.001347877567728556  0.00015934637824795446  1.0000
  Si  Si11      1.0  0.008733690525136869  0.0033712771970243944  0.9997413408880724  1.0000
  Si  Si12      1.0  0.0037193127285036235  0.0033980627734336234  0.999969057149367  1.0000
  Si  Si13      1.0  0.007088769874640598  0.006661118498016936  0.9998149875765681  1.0000
  Si  Si14      1.0  0.002079154793646012  0.006681050621536618  3.472453302982209e-05  1.0000
  Si  Si15      1.0  0.0062626144020222875  0.008315572575582906  7.176993473666755e-05  1.0000
  Si  Si16      1.0  0.0012336904182847811  0.008371277508663025  0.9998532713527177  1.0000
  Mo  Mo5       1.0  0.000411586358197752  1.735499967885167e-05  0.00010396306987000728  1.0000
  Mo  Mo6       1.0  0.005427249144682937  0.009983802497170548  0.9998862884745209  1.0000
  Mo  Mo7       1.0  0.00791286879795697  0.005012171452801427  0.9999909064224388  1.0000
  Mo  Mo8       1.0  0.0029112303078784292  0.005016197729475729  0.9997781642296777  1.0000
