data_image0
_chemical_formula_structural       HNi24Zn8
_chemical_formula_sum              "H1 Ni24 Zn8"
_cell_length_a       6.260921001434326
_cell_length_b       5.112020492553711
_cell_length_c       105.41712188720703
_cell_angle_alpha    90.0
_cell_angle_beta     90.0
_cell_angle_gamma    90.0

_space_group_name_H-M_alt    "P 1"
_space_group_IT_number       1

loop_
  _space_group_symop_operation_xyz
  'x, y, z'

loop_
  _atom_site_type_symbol
  _atom_site_label
  _atom_site_symmetry_multiplicity
  _atom_site_fract_x
  _atom_site_fract_y
  _atom_site_fract_z
  _atom_site_occupancy
  H   H1        1.0  0.0005446048498962651  0.0012400198838175812  9.619102102425283e-05  1.0000
  Ni  Ni1       1.0  0.0027230844195395877  0.0012400112301311653  0.9999379499951256  1.0000
  Ni  Ni2       1.0  0.009394988894984297  0.006240000929511587  0.9998032071390488  1.0000
  Ni  Ni3       1.0  0.006090492730712013  0.001240001027890338  0.9996647427075305  1.0000
  Ni  Ni4       1.0  0.002757159563980572  0.006240000929511587  0.9995247544768913  1.0000
  Ni  Ni5       1.0  0.006048863677992473  0.0037199709283941215  0.9998778625530524  1.0000
  Ni  Ni6       1.0  0.002755448919555315  0.008714278252908117  0.9997353960992045  1.0000
  Ni  Ni7       1.0  0.00942382649245021  0.003740001206429553  0.9995947485922109  1.0000
  Ni  Ni8       1.0  0.00945539517092897  0.008734491078181207  0.0  1.0000
  Ni  Ni9       1.0  0.0060488678430397685  0.008759999595175084  0.999877865945555  1.0000
  Ni  Ni10      1.0  0.0027554417794742356  0.0037657356301846042  0.9997353960992045  1.0000
  Ni  Ni11      1.0  0.00942382649245021  0.008740001016959367  0.9995947485922109  1.0000
  Ni  Ni12      1.0  0.009455335075246554  0.003745557419657179  1.1308342270843953e-09  1.0000
  Ni  Ni13      1.0  0.00942382649245021  0.001240001027890338  0.999384766246252  1.0000
  Ni  Ni14      1.0  0.006090492730712013  0.006240000929511587  0.9992447785810299  1.0000
  Ni  Ni15      1.0  0.002757159563980572  0.001240001027890338  0.9991047906330993  1.0000
  Ni  Ni16      1.0  0.00942382649245021  0.006240000929511587  0.99896480240246  1.0000
  Ni  Ni17      1.0  0.002757159563980572  0.003740001206429553  0.9993147726963495  1.0000
  Ni  Ni18      1.0  0.00942382649245021  0.008740001016959367  0.9991747844657103  1.0000
  Ni  Ni19      1.0  0.006090492730712013  0.003740001206429553  0.9990347965177796  1.0000
  Ni  Ni20      1.0  0.006090492730712013  0.008740001016959367  0.9994547603615717  1.0000
  Ni  Ni21      1.0  0.002757159563980572  0.008740001016959367  0.9993147726963495  1.0000
  Ni  Ni22      1.0  0.00942382649245021  0.003740001206429553  0.9991747844657103  1.0000
  Ni  Ni23      1.0  0.006090492730712013  0.008740001016959367  0.9990347965177796  1.0000
  Ni  Ni24      1.0  0.006090492730712013  0.003740001206429553  0.9994547603615717  1.0000
  Zn  Zn1       1.0  0.002757159563980572  0.001240001027890338  0.9995247544768913  1.0000
  Zn  Zn2       1.0  0.0028429089627095843  0.006239993642196711  0.999955709746662  1.0000
  Zn  Zn3       1.0  0.009383564765257363  0.0012400323633443072  0.9997996766745918  1.0000
  Zn  Zn4       1.0  0.006090492730712013  0.006240000929511587  0.9996647427075305  1.0000
  Zn  Zn5       1.0  0.00942382649245021  0.001240001027890338  0.99896480240246  1.0000
  Zn  Zn6       1.0  0.00942382649245021  0.006240000929511587  0.999384766246252  1.0000
  Zn  Zn7       1.0  0.006090492730712013  0.001240001027890338  0.9992447785810299  1.0000
  Zn  Zn8       1.0  0.002757159563980572  0.006240000929511587  0.9991047906330993  1.0000
