data_image0
_chemical_formula_structural       COSe6Zn6
_chemical_formula_sum              "C1 O1 Se6 Zn6"
_cell_length_a       7.120955910025048
_cell_length_b       5.814236164093018
_cell_length_c       101.31061553955078
_cell_angle_alpha    90.0
_cell_angle_beta     85.65224700947294
_cell_angle_gamma    114.09484259891536

_space_group_name_H-M_alt    "P 1"
_space_group_IT_number       1

loop_
  _space_group_symop_operation_xyz
  'x, y, z'

loop_
  _atom_site_type_symbol
  _atom_site_label
  _atom_site_symmetry_multiplicity
  _atom_site_fract_x
  _atom_site_fract_y
  _atom_site_fract_z
  _atom_site_occupancy
  C   C1        1.0  0.0011651446817510982  0.004912547609848268  4.177318547457217e-05  1.0000
  O   O1        1.0  0.0011651446817510982  0.004912547609848268  0.00016022103276862364  1.0000
  Se  Se1       1.0  0.0023029401000885137  0.00886334580645122  0.9997187698684845  1.0000
  Se  Se2       1.0  0.0041910371531911845  0.004962482671412294  0.9999776678665995  1.0000
  Se  Se3       1.0  0.000625  0.0030208333376047923  0.9994649757478787  1.0000
  Se  Se4       1.0  0.008089049955007093  0.0015059601718334507  0.9998523610638771  1.0000
  Se  Se5       1.0  0.004791666570822883  0.00010416673834561364  0.9993362023583025  1.0000
  Se  Se6       1.0  0.0064583331416457656  0.005937499908427674  0.9995937489448364  1.0000
  Zn  Zn1       1.0  0.0035416665708228826  0.006979166725531238  0.9995293621992737  1.0000
  Zn  Zn2       1.0  0.0052631958488753615  0.0027584117283426845  0.9998075397215218  1.0000
  Zn  Zn3       1.0  0.0018750000000000001  0.001145833295157173  0.9992718159069075  1.0000
  Zn  Zn4       1.0  0.009375  0.009895833119760406  0.999658135688867  1.0000
  Zn  Zn5       1.0  0.001387184946146528  0.0050235677420459824  0.9998702162721332  1.0000
  Zn  Zn6       1.0  0.007708333141645765  0.004062499926047441  0.9994005891038652  1.0000
