data_image0
_chemical_formula_structural       COCo8Ge8
_chemical_formula_sum              "C1 O1 Co8 Ge8"
_cell_length_a       4.967983083224033
_cell_length_b       6.206602840560885
_cell_length_c       99.02023315429688
_cell_angle_alpha    96.01741470967804
_cell_angle_beta     91.95456190124848
_cell_angle_gamma    99.176359559179

_space_group_name_H-M_alt    "P 1"
_space_group_IT_number       1

loop_
  _space_group_symop_operation_xyz
  'x, y, z'

loop_
  _atom_site_type_symbol
  _atom_site_label
  _atom_site_symmetry_multiplicity
  _atom_site_fract_x
  _atom_site_fract_y
  _atom_site_fract_z
  _atom_site_occupancy
  C   C1        1.0  0.00527135135789317  0.001085736005953315  0.0001817793728156416  1.0000
  O   O1        1.0  0.00527135135789317  0.001085736005953315  0.00030296697191971767  1.0000
  Co  Co1       1.0  0.0009347220677677561  0.004313009097486401  0.9997959387844063  1.0000
  Co  Co2       1.0  0.0058896280697019795  0.004324003959087497  0.9997791449684925  1.0000
  Co  Co3       1.0  0.004067140827364379  0.00811826550731359  0.9998394020635883  1.0000
  Co  Co4       1.0  0.007313971522202692  0.009121475579844912  5.068596184155835e-05  1.0000
  Co  Co5       1.0  0.0009052408128988876  0.005625000073419403  0.9994112437468579  1.0000
  Co  Co6       1.0  0.005905240533413542  0.005625000073419403  0.9994112436726414  1.0000
  Co  Co7       1.0  0.004165731714356033  0.009318052973803016  0.9994833997566904  1.0000
  Co  Co8       1.0  0.007644749484077315  0.0006819464939063069  0.9997054301790679  1.0000
  Ge  Ge1       1.0  0.0090148858606654  0.0077603006395358665  0.9998343004628717  1.0000
  Ge  Ge2       1.0  0.0022272125434430923  0.009202473089537058  6.427885449898731e-05  1.0000
  Ge  Ge3       1.0  0.007949343377885948  0.002333135420318058  0.9999470317150514  1.0000
  Ge  Ge4       1.0  0.0042869468130449385  0.00533692007677281  1.1433977279025558e-06  1.0000
  Ge  Ge5       1.0  0.009094759229136986  0.00905926915467209  0.9994783432705072  1.0000
  Ge  Ge6       1.0  0.002715722234854868  0.0009407306954299612  0.9997104863672461  1.0000
  Ge  Ge7       1.0  0.008082617842726653  0.0036865439643415853  0.99956875237289  1.0000
  Ge  Ge8       1.0  0.0037278631993264187  0.006313455656324829  0.9996200775636058  1.0000
