data_image0
_chemical_formula_structural       COTi2Au2Ti2Au2Ti2Au2
_chemical_formula_sum              "C1 O1 Ti6 Au6"
_cell_length_a       4.943378448486328
_cell_length_b       4.630793571472168
_cell_length_c       100.1907730102539
_cell_angle_alpha    90.0
_cell_angle_beta     90.0
_cell_angle_gamma    90.0

_space_group_name_H-M_alt    "P 1"
_space_group_IT_number       1

loop_
  _space_group_symop_operation_xyz
  'x, y, z'

loop_
  _atom_site_type_symbol
  _atom_site_label
  _atom_site_symmetry_multiplicity
  _atom_site_fract_x
  _atom_site_fract_y
  _atom_site_fract_z
  _atom_site_occupancy
  C   C1        1.0  0.002487074865310809  0.005000000064356836  9.858992644418816e-05  1.0000
  O   O1        1.0  0.002487074865310809  0.005000000064356836  0.00021836167745629923  1.0000
  Ti  Ti1       1.0  0.0028869803127293332  0.007500002509916616  0.9998514297722659  1.0000
  Ti  Ti2       1.0  0.0071108810083345105  0.0024999984232575104  0.9998514250129739  1.0000
  Au  Au1       1.0  0.007913586826720437  0.007500002509916616  0.0  1.0000
  Au  Au2       1.0  0.002087169606290277  0.0024999976187970565  0.0  1.0000
  Ti  Ti3       1.0  0.003116466211504352  0.007500002509916616  0.9995422477127793  1.0000
  Ti  Ti4       1.0  0.006883534368761464  0.002500002244444666  0.9995422477127793  1.0000
  Au  Au3       1.0  0.008176383186106783  0.007500002509916616  0.9996929144086998  1.0000
  Au  Au4       1.0  0.0018236168289650562  0.002500002244444666  0.9996929144086998  1.0000
  Ti  Ti5       1.0  0.003116466211504352  0.007500002509916616  0.99924091491585  1.0000
  Ti  Ti6       1.0  0.006883534368761464  0.002500002244444666  0.99924091491585  1.0000
  Au  Au5       1.0  0.008176383186106783  0.007500002509916616  0.9993915813143147  1.0000
  Au  Au6       1.0  0.0018236168289650562  0.002500002244444666  0.9993915813143147  1.0000
