data_image0
_chemical_formula_structural       HAl8Ni8Al8Ni8
_chemical_formula_sum              "H1 Al16 Ni16"
_cell_length_a       8.168219566345215
_cell_length_b       5.001992454653453
_cell_length_c       103.05354309082031
_cell_angle_alpha    92.89141706433722
_cell_angle_beta     90.0
_cell_angle_gamma    90.0

_space_group_name_H-M_alt    "P 1"
_space_group_IT_number       1

loop_
  _space_group_symop_operation_xyz
  'x, y, z'

loop_
  _atom_site_type_symbol
  _atom_site_label
  _atom_site_symmetry_multiplicity
  _atom_site_fract_x
  _atom_site_fract_y
  _atom_site_fract_z
  _atom_site_occupancy
  H   H1        1.0  0.003749999981757149  0.0032376644966050005  0.00015323599708067824  1.0000
  Al  Al1       1.0  0.0012500000319249892  0.0008928572280812143  0.9995492306454833  1.0000
  Al  Al2       1.0  0.003749999981757149  0.000535714318205963  0.9992055791132253  1.0000
  Al  Al3       1.0  0.0012500000319249892  0.007321428673697458  0.9993201298342524  1.0000
  Al  Al4       1.0  0.003749999981757149  0.004107142950889335  0.9994346803844641  1.0000
  Al  Al5       1.0  0.0012500000319249892  0.008035714307020304  7.433187504571013e-06  1.0000
  Al  Al6       1.0  0.003749999981757149  0.007678571863214193  0.9996637810780025  1.0000
  Al  Al7       1.0  0.0012500000319249892  0.004464285767550759  0.9997783316273013  1.0000
  Al  Al8       1.0  0.003749999981757149  0.0012500000447426376  0.999892882177513  1.0000
  Ni  Ni1       1.0  0.0012500000319249892  0.0023214286811545633  0.9993201298935551  1.0000
  Ni  Ni2       1.0  0.003749999981757149  0.009107143129859887  0.9994346803256179  1.0000
  Ni  Ni3       1.0  0.0012500000319249892  0.005892857407051764  0.999549230586637  1.0000
  Ni  Ni4       1.0  0.003749999981757149  0.005535714590390341  0.9992055793437998  1.0000
  Ni  Ni5       1.0  0.0012500000319249892  0.009464286319376621  0.9997783321477531  1.0000
  Ni  Ni6       1.0  0.003749999981757149  0.006250000223713188  0.9998928821186668  1.0000
  Ni  Ni7       1.0  0.0012500000319249892  0.0030357145009050662  7.432668878557482e-06  1.0000
  Ni  Ni8       1.0  0.003749999981757149  0.0026785714978159866  0.9996637811363923  1.0000
  Al  Al9       1.0  0.006250000273642764  0.0008928572280812143  0.9995492306454833  1.0000
  Al  Al10      1.0  0.008750000109457106  0.000535714318205963  0.9992055791132253  1.0000
  Al  Al11      1.0  0.006250000273642764  0.007321428673697458  0.9993201298342524  1.0000
  Al  Al12      1.0  0.008750000109457106  0.004107142950889335  0.9994346803844641  1.0000
  Al  Al13      1.0  0.006250000273642764  0.008035714307020304  7.433187504571013e-06  1.0000
  Al  Al14      1.0  0.008750000109457106  0.007678571863214193  0.9996637810780025  1.0000
  Al  Al15      1.0  0.006250000273642764  0.004464285767550759  0.9997783316273013  1.0000
  Al  Al16      1.0  0.008750000109457106  0.0012500000447426376  0.999892882177513  1.0000
  Ni  Ni9       1.0  0.006250000273642764  0.0023214286811545633  0.9993201298935551  1.0000
  Ni  Ni10      1.0  0.008750000109457106  0.009107143129859887  0.9994346803256179  1.0000
  Ni  Ni11      1.0  0.006250000273642764  0.005892857407051764  0.999549230586637  1.0000
  Ni  Ni12      1.0  0.008750000109457106  0.005535714590390341  0.9992055793437998  1.0000
  Ni  Ni13      1.0  0.006250000273642764  0.009464286319376621  0.9997783321477531  1.0000
  Ni  Ni14      1.0  0.008750000109457106  0.006250000223713188  0.9998928821186668  1.0000
  Ni  Ni15      1.0  0.006250000273642764  0.0030357145009050662  7.432668878557482e-06  1.0000
  Ni  Ni16      1.0  0.008750000109457106  0.0026785714978159866  0.9996637811363923  1.0000
