data_image0
_chemical_formula_structural       COIr3Re9Ir3Re9
_chemical_formula_sum              "C1 O1 Ir6 Re18"
_cell_length_a       7.805766582489014
_cell_length_b       4.793185622869128
_cell_length_c       38.50196075439453
_cell_angle_alpha    86.91703270930259
_cell_angle_beta     90.0
_cell_angle_gamma    114.02456801943113

_space_group_name_H-M_alt    "P 1"
_space_group_IT_number       1

loop_
  _space_group_symop_operation_xyz
  'x, y, z'

loop_
  _atom_site_type_symbol
  _atom_site_label
  _atom_site_symmetry_multiplicity
  _atom_site_fract_x
  _atom_site_fract_y
  _atom_site_fract_z
  _atom_site_occupancy
  C   C1        1.0  0.0012530905424930317  0.004810438081199654  0.00018934906151400478  1.0000
  O   O1        1.0  0.0012530905424930317  0.004810438081199654  0.0005010217447335008  1.0000
  Ir  Ir1       1.0  0.00442659360609446  0.007505817963331301  0.9992953177591284  1.0000
  Ir  Ir2       1.0  0.0005366133229907482  0.0019444445959820235  0.9983905767818425  1.0000
  Ir  Ir3       1.0  0.0016477244293663102  0.006388889021484271  0.9974815887848342  1.0000
  Re  Re1       1.0  0.0028742040773871483  0.001294347991059495  0.999557189476315  1.0000
  Re  Re2       1.0  0.004880053476419794  0.009319423592873565  0.9999376025058364  1.0000
  Re  Re3       1.0  0.0013114314118441777  0.005043801454206132  0.9997387066584374  1.0000
  Re  Re4       1.0  0.004008835509723206  0.005833333787946071  0.9986178237984482  1.0000
  Re  Re5       1.0  0.0009532799127735694  0.0036111111489955062  0.999072317799806  1.0000
  Re  Re6       1.0  0.002481057892873245  0.009722222979910117  0.9988450708150539  1.0000
  Re  Re7       1.0  0.00011994659870355449  0.00027777780323135555  0.9977088357654841  1.0000
  Re  Re8       1.0  0.0020643910937192074  0.008055555574497754  0.9981633298027976  1.0000
  Re  Re9       1.0  0.0035921687649199756  0.004166666808733148  0.9979360827833383  1.0000
  Ir  Ir4       1.0  0.009426593338835308  0.007505817963331301  0.9992953177591284  1.0000
  Ir  Ir5       1.0  0.005536613316726863  0.0019444445959820235  0.9983905767818425  1.0000
  Ir  Ir6       1.0  0.006647724423102424  0.006388889021484271  0.9974815887848342  1.0000
  Re  Re10      1.0  0.00787420404875224  0.001294347991059495  0.999557189476315  1.0000
  Re  Re11      1.0  0.009880053447784885  0.009319423592873565  0.9999376025058364  1.0000
  Re  Re12      1.0  0.006311431532349421  0.005043801454206132  0.9997387066584374  1.0000
  Re  Re13      1.0  0.009008835481088297  0.005833333787946071  0.9986178237984482  1.0000
  Re  Re14      1.0  0.0059532799549802335  0.0036111111489955062  0.999072317799806  1.0000
  Re  Re15      1.0  0.007481057912708886  0.009722222979910117  0.9988450708150539  1.0000
  Re  Re16      1.0  0.005119946618539196  0.00027777780323135555  0.9977088357654841  1.0000
  Re  Re17      1.0  0.007064391061355795  0.008055555574497754  0.9981633298027976  1.0000
  Re  Re18      1.0  0.008592168736285067  0.004166666808733148  0.9979360827833383  1.0000
