data_image0
_chemical_formula_structural       HPt24Ti3
_chemical_formula_sum              "H1 Pt24 Ti3"
_cell_length_a       8.420976927333784
_cell_length_b       6.2975749216303285
_cell_length_c       102.87103271484375
_cell_angle_alpha    88.00105545205749
_cell_angle_beta     87.0821010067776
_cell_angle_gamma    102.76778944632323

_space_group_name_H-M_alt    "P 1"
_space_group_IT_number       1

loop_
  _space_group_symop_operation_xyz
  'x, y, z'

loop_
  _atom_site_type_symbol
  _atom_site_label
  _atom_site_symmetry_multiplicity
  _atom_site_fract_x
  _atom_site_fract_y
  _atom_site_fract_z
  _atom_site_occupancy
  H   H1        1.0  0.006751825988397084  0.006016568696790694  3.948937922384767e-05  1.0000
  Pt  Pt1       1.0  0.0005205155609358123  0.006857603509606232  0.9994446583079067  1.0000
  Pt  Pt2       1.0  0.007182143019695525  0.0077383278263751815  0.9997076604144611  1.0000
  Pt  Pt3       1.0  0.00391036932090834  0.008477888116221728  0.9999656019674548  1.0000
  Pt  Pt4       1.0  0.003949502187906979  0.006881516787840175  0.9994522995966187  1.0000
  Pt  Pt5       1.0  0.0006662770382863363  0.0077988315589091846  0.9997162428449313  1.0000
  Pt  Pt6       1.0  0.007262988498292542  0.008478712577776293  0.9999728361133992  1.0000
  Pt  Pt7       1.0  0.00502872882110116  0.004183450156623676  0.999624725902968  1.0000
  Pt  Pt8       1.0  0.001666797547314979  0.005056581290924595  0.9998998279642974  1.0000
  Pt  Pt9       1.0  0.008362062396792038  0.003350116894587899  0.999358445379865  1.0000
  Pt  Pt10      1.0  0.0016649170421027405  0.0032947899004900603  0.9993573963249479  1.0000
  Pt  Pt11      1.0  0.008331583511853901  0.004128123054738817  0.9996236766916506  1.0000
  Pt  Pt12      1.0  0.004984555068626932  0.004921223834240056  0.9998935592784962  1.0000
  Pt  Pt13      1.0  0.0017085261772323893  0.004139025370022303  0.9996271601326963  1.0000
  Pt  Pt14      1.0  0.008389102228157719  0.005050913119086021  0.9998915492774468  1.0000
  Pt  Pt15      1.0  0.00504185929850287  0.003305692046441885  0.9993608801910296  1.0000
  Pt  Pt16      1.0  0.006132607760889658  0.001390910253522625  0.999806257585995  1.0000
  Pt  Pt17      1.0  0.0027614918556231505  0.009600094716180082  0.999269797481391  1.0000
  Pt  Pt18      1.0  0.009428158098164113  0.0004334278322577207  0.9995360777810413  1.0000
  Pt  Pt19      1.0  0.0028051007635426003  0.00044433022152918453  0.9995395618013403  1.0000
  Pt  Pt20      1.0  0.009479484882124075  0.001393830101119865  0.9998167448797993  1.0000
  Pt  Pt21      1.0  0.006138434339233479  0.009610996485970356  0.9992732813473292  1.0000
  Pt  Pt22      1.0  0.006107955454295342  0.00038900304565634813  0.9995385125901809  1.0000
  Pt  Pt23      1.0  0.0027691508842221167  0.0013669539334202148  0.9998169540159271  1.0000
  Pt  Pt24      1.0  0.00944128902998622  0.00955566953206145  0.9992722324254016  1.0000
  Ti  Ti1       1.0  0.0005221749338218485  0.008446888423816934  0.9999565438693043  1.0000
  Ti  Ti2       1.0  0.0072350089255436905  0.006869559844342562  0.999448479019332  1.0000
  Ti  Ti3       1.0  0.003913278065876271  0.007684735631623702  0.9997193980038606  1.0000
