data_image0
_chemical_formula_structural       HCr48
_chemical_formula_sum              "H1 Cr48"
_cell_length_a       8.068603515625
_cell_length_b       8.06860348767963
_cell_length_c       104.58692932128906
_cell_angle_alpha    90.0
_cell_angle_beta     90.0
_cell_angle_gamma    59.99999988542933

_space_group_name_H-M_alt    "P 1"
_space_group_IT_number       1

loop_
  _space_group_symop_operation_xyz
  'x, y, z'

loop_
  _atom_site_type_symbol
  _atom_site_label
  _atom_site_symmetry_multiplicity
  _atom_site_fract_x
  _atom_site_fract_y
  _atom_site_fract_z
  _atom_site_occupancy
  H   H1        1.0  0.0016666652453830367  0.00166666797638332  8.593829900722315e-05  1.0000
  Cr  Cr1       1.0  0.003333333537110995  0.0033333335536927158  0.9992387202224028  1.0000
  Cr  Cr2       1.0  5.0000001296984894e-11  9.99999985818373e-11  0.9995536729694119  1.0000
  Cr  Cr3       1.0  0.0016666667685554975  0.0016666667768463579  0.999396196453431  1.0000
  Cr  Cr4       1.0  0.003333333537110995  0.0033333335536927158  0.9994749348538978  1.0000
  Cr  Cr5       1.0  5.0000001296984894e-11  9.99999985818373e-11  0.9993174583379169  1.0000
  Cr  Cr6       1.0  0.0016666667685554975  0.0016666667768463579  0.999159981821936  1.0000
  Cr  Cr7       1.0  0.003333333537110995  0.0033333335536927158  0.9997111492004402  1.0000
  Cr  Cr8       1.0  0.009999999492790785  0.010000000127950609  0.0  1.0000
  Cr  Cr9       1.0  0.0016666650598140293  0.0016666655773093957  0.9998780431164632  1.0000
  Cr  Cr10      1.0  0.0033333304907660734  0.00333333595276664  0.9999362737598533  1.0000
  Cr  Cr11      1.0  2.4998204838173594e-10  0.010000000127950609  0.99979019791434  1.0000
  Cr  Cr12      1.0  0.0016666667685554975  0.0016666667768463579  0.9996324110849261  1.0000
  Cr  Cr13      1.0  0.003333333431251025  0.00833333361766802  0.9992387202224028  1.0000
  Cr  Cr14      1.0  1.2499102419086797e-10  0.005000000063975304  0.9995536729694119  1.0000
  Cr  Cr15      1.0  0.0016666667602646373  0.0066666671073854315  0.999396196453431  1.0000
  Cr  Cr16      1.0  0.003333333431251025  0.00833333361766802  0.9994749348538978  1.0000
  Cr  Cr17      1.0  1.2499102419086797e-10  0.005000000063975304  0.9993174583379169  1.0000
  Cr  Cr18      1.0  0.0016666667602646373  0.0066666671073854315  0.999159981821936  1.0000
  Cr  Cr19      1.0  0.003333333431251025  0.00833333361766802  0.9997111492004402  1.0000
  Cr  Cr20      1.0  0.009999999598650755  0.005000000063975304  0.0  1.0000
  Cr  Cr21      1.0  0.001666665251445996  0.006666665508002816  0.9998780431164632  1.0000
  Cr  Cr22      1.0  0.003333330251624218  0.008333336283305714  0.9999362737598533  1.0000
  Cr  Cr23      1.0  3.9155479355079215e-10  0.004999999530847766  0.99979019791434  1.0000
  Cr  Cr24      1.0  0.0016666667602646373  0.0066666671073854315  0.9996324110849261  1.0000
  Cr  Cr25      1.0  0.008333332927664368  0.0033333335536927158  0.9992387202224028  1.0000
  Cr  Cr26      1.0  0.0050000002639573535  9.99999985818373e-11  0.9995536729694119  1.0000
  Cr  Cr27      1.0  0.0066666668516618555  0.0016666667768463579  0.999396196453431  1.0000
  Cr  Cr28      1.0  0.008333332927664368  0.0033333335536927158  0.9994749348538978  1.0000
  Cr  Cr29      1.0  0.0050000002639573535  9.99999985818373e-11  0.9993174583379169  1.0000
  Cr  Cr30      1.0  0.0066666668516618555  0.0016666667768463579  0.999159981821936  1.0000
  Cr  Cr31      1.0  0.008333332927664368  0.0033333335536927158  0.9997111492004402  1.0000
  Cr  Cr32      1.0  0.004999999640535421  0.010000000127950609  0.0  1.0000
  Cr  Cr33      1.0  0.006666665142920387  0.0016666655773093957  0.9998780431164632  1.0000
  Cr  Cr34      1.0  0.008333330804723425  0.00333333595276664  0.9999362737598533  1.0000
  Cr  Cr35      1.0  0.005000000563939401  0.010000000127950609  0.99979019791434  1.0000
  Cr  Cr36      1.0  0.0066666668516618555  0.0016666667768463579  0.9996324110849261  1.0000
  Cr  Cr37      1.0  0.008333333745208378  0.00833333361766802  0.9992387202224028  1.0000
  Cr  Cr38      1.0  0.005000000208097382  0.005000000063975304  0.9995536729694119  1.0000
  Cr  Cr39      1.0  0.00666666707422199  0.0066666671073854315  0.999396196453431  1.0000
  Cr  Cr40      1.0  0.008333333745208378  0.00833333361766802  0.9994749348538978  1.0000
  Cr  Cr41      1.0  0.005000000208097382  0.005000000063975304  0.9993174583379169  1.0000
  Cr  Cr42      1.0  0.00666666707422199  0.0066666671073854315  0.999159981821936  1.0000
  Cr  Cr43      1.0  0.008333333745208378  0.00833333361766802  0.9997111492004402  1.0000
  Cr  Cr44      1.0  0.004999999746395392  0.005000000063975304  0.0  1.0000
  Cr  Cr45      1.0  0.00666666510370136  0.006666665508002816  0.9998780431164632  1.0000
  Cr  Cr46      1.0  0.008333330565581571  0.008333336283305714  0.9999362737598533  1.0000
  Cr  Cr47      1.0  0.005000000474661152  0.004999999530847766  0.99979019791434  1.0000
  Cr  Cr48      1.0  0.00666666707422199  0.0066666671073854315  0.9996324110849261  1.0000
