data_image0
_chemical_formula_structural       COSi4W2Si4W2Si4W2Si4W2
_chemical_formula_sum              "C1 O1 Si16 W8"
_cell_length_a       6.477535724639893
_cell_length_b       6.477535724639893
_cell_length_c       101.52063751220703
_cell_angle_alpha    90.0
_cell_angle_beta     90.0
_cell_angle_gamma    90.0

_space_group_name_H-M_alt    "P 1"
_space_group_IT_number       1

loop_
  _space_group_symop_operation_xyz
  'x, y, z'

loop_
  _atom_site_type_symbol
  _atom_site_label
  _atom_site_symmetry_multiplicity
  _atom_site_fract_x
  _atom_site_fract_y
  _atom_site_fract_z
  _atom_site_occupancy
  C   C1        1.0  0.0012499998159650604  0.0049999998389694275  4.584045140150541e-05  1.0000
  O   O1        1.0  0.0012499998159650604  0.0049999998389694275  0.00016404267124677966  1.0000
  Si  Si1       1.0  0.001249999384633171  1.4999999583970423e-10  0.9993661101686633  1.0000
  Si  Si2       1.0  0.0037499994478951814  0.002499999631930121  0.0  1.0000
  Si  Si3       1.0  0.0037500008856681463  0.0025000002070393068  0.9997475096875492  1.0000
  Si  Si4       1.0  0.001249999384633171  1.4999999583970423e-10  0.9996223703690253  1.0000
  W   W1        1.0  0.0012499998159650604  0.009999999677938855  0.9998752296854555  1.0000
  W   W2        1.0  0.0037499994478951814  0.0025000002070393068  0.9994942402688443  1.0000
  Si  Si5       1.0  0.001249999384633171  0.0050000004140786135  0.9993661101686633  1.0000
  Si  Si6       1.0  0.0037499994478951814  0.007499999470899549  0.0  1.0000
  Si  Si7       1.0  0.0037500008856681463  0.007500000621117921  0.9997475096875492  1.0000
  Si  Si8       1.0  0.001249999384633171  0.0050000004140786135  0.9996223703690253  1.0000
  W   W3        1.0  0.0012499998159650604  0.0049999998389694275  0.9998752296854555  1.0000
  W   W4        1.0  0.0037499994478951814  0.007500000621117921  0.9994942402688443  1.0000
  Si  Si9       1.0  0.006249999654934489  1.4999999583970423e-10  0.9993661101686633  1.0000
  Si  Si10      1.0  0.008749999861973796  0.002499999631930121  0.0  1.0000
  Si  Si11      1.0  0.008750001012192168  0.0025000002070393068  0.9997475096875492  1.0000
  Si  Si12      1.0  0.006249999654934489  1.4999999583970423e-10  0.9996223703690253  1.0000
  W   W5        1.0  0.0062500002300436746  0.009999999677938855  0.9998752296854555  1.0000
  W   W6        1.0  0.008749999861973796  0.0025000002070393068  0.9994942402688443  1.0000
  Si  Si13      1.0  0.006249999654934489  0.0050000004140786135  0.9993661101686633  1.0000
  Si  Si14      1.0  0.008749999861973796  0.007499999470899549  0.0  1.0000
  Si  Si15      1.0  0.008750001012192168  0.007500000621117921  0.9997475096875492  1.0000
  Si  Si16      1.0  0.006249999654934489  0.0050000004140786135  0.9996223703690253  1.0000
  W   W7        1.0  0.0062500002300436746  0.0049999998389694275  0.9998752296854555  1.0000
  W   W8        1.0  0.008749999861973796  0.007500000621117921  0.9994942402688443  1.0000
