data_image0
_chemical_formula_structural       COCa4Al4Au4
_chemical_formula_sum              "C1 O1 Ca4 Al4 Au4"
_cell_length_a       7.876174449920654
_cell_length_b       4.598198413848877
_cell_length_c       99.60623168945312
_cell_angle_alpha    90.0
_cell_angle_beta     90.0
_cell_angle_gamma    90.0

_space_group_name_H-M_alt    "P 1"
_space_group_IT_number       1

loop_
  _space_group_symop_operation_xyz
  'x, y, z'

loop_
  _atom_site_type_symbol
  _atom_site_label
  _atom_site_symmetry_multiplicity
  _atom_site_fract_x
  _atom_site_fract_y
  _atom_site_fract_z
  _atom_site_occupancy
  C   C1        1.0  0.00506293056515394  0.004999999238446764  0.0  1.0000
  O   O1        1.0  0.00506293056515394  0.004999999238446764  0.00012047463411835606  1.0000
  Ca  Ca1       1.0  0.006887534122827649  0.007499999060210901  0.999835847947829  1.0000
  Ca  Ca2       1.0  0.008186683311099386  0.007499997439884867  0.999462131655809  1.0000
  Ca  Ca3       1.0  0.003238327007480232  0.002499999619223382  0.9998163723313342  1.0000
  Ca  Ca4       1.0  0.0018431176180722486  0.00249999759381584  0.999440956874654  1.0000
  Al  Al1       1.0  0.009332136461342445  0.00249999759381584  0.9997080599342787  1.0000
  Al  Al2       1.0  0.0006678632193945706  0.007499999870373917  0.9999307300923559  1.0000
  Al  Al3       1.0  0.004332136650535325  0.007499997439884867  0.9995665696941417  1.0000
  Al  Al4       1.0  0.00569766416039076  0.00249999759381584  0.9993365188363212  1.0000
  Au  Au1       1.0  0.0011393060371144967  0.007499997439884867  0.9996682209707828  1.0000
  Au  Au2       1.0  0.009280338288975927  0.002500000429386399  0.9999654428385378  1.0000
  Au  Au3       1.0  0.006139306084412716  0.00249999759381584  0.9996064086576376  1.0000
  Au  Au4       1.0  0.003719766126573971  0.007500002300862968  2.0297223495410545e-05  1.0000
