data_image0
_chemical_formula_structural       COMn2Ga2Mn2Ga2Mn2Ga2Mn2Ga2Mn2Ga2Mn2Ga2Mn2Ga2Mn2Ga2
_chemical_formula_sum              "C1 O1 Mn16 Ga16"
_cell_length_a       7.201950550079346
_cell_length_b       7.587925910949707
_cell_length_c       100.3517074584961
_cell_angle_alpha    90.0
_cell_angle_beta     90.0
_cell_angle_gamma    90.0

_space_group_name_H-M_alt    "P 1"
_space_group_IT_number       1

loop_
  _space_group_symop_operation_xyz
  'x, y, z'

loop_
  _atom_site_type_symbol
  _atom_site_label
  _atom_site_symmetry_multiplicity
  _atom_site_fract_x
  _atom_site_fract_y
  _atom_site_fract_z
  _atom_site_occupancy
  C   C1        1.0  0.002500025759612701  0.002500031725172585  0.00011095125260970651  1.0000
  O   O1        1.0  0.002500025759612701  0.002500031725172585  0.00023053092516941949  1.0000
  Mn  Mn1       1.0  0.002500005845052681  0.0025000034955621913  0.9995854153205215  1.0000
  Mn  Mn2       1.0  0.002500005845052681  3.500000027280673e-09  0.9993963818269089  1.0000
  Ga  Ga1       1.0  5.850000073685994e-09  0.0025000034955621913  0.9993963818269089  1.0000
  Ga  Ga2       1.0  5.850000073685994e-09  3.500000027280673e-09  0.9995854153205215  1.0000
  Mn  Mn3       1.0  0.002500025759612701  0.002500031725172585  0.9999383537496943  1.0000
  Mn  Mn4       1.0  0.00250000662094463  0.00999998157956553  0.9998156754010914  1.0000
  Ga  Ga3       1.0  0.009999990275487574  0.0024999816482984957  0.9997682847236652  1.0000
  Ga  Ga4       1.0  0.009999994413577969  0.009999996308057911  0.0  1.0000
  Mn  Mn5       1.0  0.002500005845052681  0.007500003613390131  0.9995854153205215  1.0000
  Mn  Mn6       1.0  0.002500005845052681  0.005000003554476161  0.9993963818269089  1.0000
  Ga  Ga5       1.0  5.850000073685994e-09  0.007500003613390131  0.9993963818269089  1.0000
  Ga  Ga6       1.0  5.850000073685994e-09  0.005000003554476161  0.9995854153205215  1.0000
  Mn  Mn7       1.0  0.002500025759612701  0.007500031597525651  0.9999383537496943  1.0000
  Mn  Mn8       1.0  0.00250000662094463  0.004999981461737592  0.9998156754010914  1.0000
  Ga  Ga7       1.0  0.009999990275487574  0.007499981520651562  0.9997682847236652  1.0000
  Ga  Ga8       1.0  0.009999994413577969  0.004999996681179717  0.0  1.0000
  Mn  Mn9       1.0  0.007500005896778811  0.0025000034955621913  0.9995854153205215  1.0000
  Mn  Mn10      1.0  0.007500005896778811  3.500000027280673e-09  0.9993963818269089  1.0000
  Ga  Ga9       1.0  0.005000006000231071  0.0025000034955621913  0.9993963818269089  1.0000
  Ga  Ga10      1.0  0.005000006000231071  3.500000027280673e-09  0.9995854153205215  1.0000
  Mn  Mn11      1.0  0.007500025552708182  0.002500031725172585  0.9999383537496943  1.0000
  Mn  Mn12      1.0  0.00750000641404011  0.00999998157956553  0.9998156754010914  1.0000
  Ga  Ga11      1.0  0.004999989965130795  0.0024999816482984957  0.9997682847236652  1.0000
  Ga  Ga12      1.0  0.004999994103221189  0.009999996308057911  0.0  1.0000
  Mn  Mn13      1.0  0.007500005896778811  0.007500003613390131  0.9995854153205215  1.0000
  Mn  Mn14      1.0  0.007500005896778811  0.005000003554476161  0.9993963818269089  1.0000
  Ga  Ga13      1.0  0.005000006000231071  0.007500003613390131  0.9993963818269089  1.0000
  Ga  Ga14      1.0  0.005000006000231071  0.005000003554476161  0.9995854153205215  1.0000
  Mn  Mn15      1.0  0.007500025552708182  0.007500031597525651  0.9999383537496943  1.0000
  Mn  Mn16      1.0  0.00750000641404011  0.004999981461737592  0.9998156754010914  1.0000
  Ga  Ga15      1.0  0.004999989965130795  0.007499981520651562  0.9997682847236652  1.0000
  Ga  Ga16      1.0  0.004999994103221189  0.004999996681179717  0.0  1.0000
