data_image0
_chemical_formula_structural       COAl8Ca12Ge8
_chemical_formula_sum              "C1 O1 Al8 Ca12 Ge8"
_cell_length_a       6.219498895527478
_cell_length_b       9.932815391511607
_cell_length_c       107.21086883544922
_cell_angle_alpha    88.80733426509101
_cell_angle_beta     86.1879833084028
_cell_angle_gamma    71.75515558761255

_space_group_name_H-M_alt    "P 1"
_space_group_IT_number       1

loop_
  _space_group_symop_operation_xyz
  'x, y, z'

loop_
  _atom_site_type_symbol
  _atom_site_label
  _atom_site_symmetry_multiplicity
  _atom_site_fract_x
  _atom_site_fract_y
  _atom_site_fract_z
  _atom_site_occupancy
  C   C1        1.0  0.006090604090299064  0.004998975751756067  0.00011847358821738378  1.0000
  O   O1        1.0  0.006090604090299064  0.004998975751756067  0.0002304027652592479  1.0000
  Al  Al1       1.0  0.003526129989934  0.001389131053486881  0.9998212753578046  1.0000
  Al  Al2       1.0  0.009326688655375354  0.0013627304042017627  0.9995258934996982  1.0000
  Al  Al3       1.0  0.0006889755281295102  0.008638156994860138  0.9995258936227505  1.0000
  Al  Al4       1.0  0.004916170171985414  0.00860900773208383  0.9998213870643223  1.0000
  Al  Al5       1.0  0.005160022028728531  0.0013627304042017627  0.99923665914009  1.0000
  Al  Al6       1.0  0.0009933555521561223  0.0013627304042017627  0.9989474250578814  1.0000
  Al  Al7       1.0  0.002355641938669177  0.008638156994860138  0.998947424935408  1.0000
  Al  Al8       1.0  0.006522309165613655  0.008638156994860138  0.9992366590147226  1.0000
  Ca  Ca1       1.0  0.009062290434405618  0.009999556383398375  0.9998297264554504  1.0000
  Ca  Ca2       1.0  0.0050078322005583644  4.4365000242932573e-07  0.9995258936227505  1.0000
  Ca  Ca3       1.0  0.0031670203066550347  0.00622125448456515  0.9999566005559025  1.0000
  Ca  Ca4       1.0  0.008947894942334098  0.006286985057228753  0.9996705104003663  1.0000
  Ca  Ca5       1.0  0.009385303890483877  0.0037766970189469845  0.9999565196601542  1.0000
  Ca  Ca6       1.0  0.005234435966542975  0.003713902144382375  0.9996705105257336  1.0000
  Ca  Ca7       1.0  0.0008411656489487484  4.4365000242932573e-07  0.9992366592628528  1.0000
  Ca  Ca8       1.0  0.006674498611098031  4.4365000242932573e-07  0.998947424935408  1.0000
  Ca  Ca9       1.0  0.00478122771538962  0.006286985057228753  0.9993812765990303  1.0000
  Ca  Ca10      1.0  0.0006145616890404521  0.006286985057228753  0.9990920419591282  1.0000
  Ca  Ca11      1.0  0.0010677696400449802  0.003713902144382375  0.9993812761649677  1.0000
  Ca  Ca12      1.0  0.0069011029773802975  0.003713902144382375  0.9990920421140546  1.0000
  Ge  Ge1       1.0  0.005025343614689975  0.0029009147758485747  0.9999525166956986  1.0000
  Ge  Ge2       1.0  0.0006302264113411205  0.0029223221912504276  0.9996705106476282  1.0000
  Ge  Ge3       1.0  0.007926737795443782  0.007099243832408687  0.9999526028143438  1.0000
  Ge  Ge4       1.0  0.003552104434828426  0.007078565207811474  0.9996705105257336  1.0000
  Ge  Ge5       1.0  0.006463559748676438  0.0029223221912504276  0.999381276596715  1.0000
  Ge  Ge6       1.0  0.0022968928218807874  0.0029223221912504276  0.9990920419602858  1.0000
  Ge  Ge7       1.0  0.00938543807231257  0.007078565207811474  0.9993812764736629  1.0000
  Ge  Ge8       1.0  0.005218771445665748  0.007078565207811474  0.9990920421140546  1.0000
