data_image0
_chemical_formula_structural       HSn16Pd16Sn16Pd16
_chemical_formula_sum              "H1 Sn32 Pd32"
_cell_length_a       13.018490930573982
_cell_length_b       7.6765784252983496
_cell_length_c       116.0594711303711
_cell_angle_alpha    63.51213689565813
_cell_angle_beta     99.40054925695254
_cell_angle_gamma    80.59945120210583

_space_group_name_H-M_alt    "P 1"
_space_group_IT_number       1

loop_
  _space_group_symop_operation_xyz
  'x, y, z'

loop_
  _atom_site_type_symbol
  _atom_site_label
  _atom_site_symmetry_multiplicity
  _atom_site_fract_x
  _atom_site_fract_y
  _atom_site_fract_z
  _atom_site_occupancy
  H   H1        1.0  0.000887784987753249  0.009700558083881157  0.9999827347494258  1.0000
  Sn  Sn1       1.0  0.006536012024513157  0.00592243083669403  0.9992753373335705  1.0000
  Sn  Sn2       1.0  0.001536011789214363  0.008422430454060005  0.9991099786143925  1.0000
  Sn  Sn3       1.0  0.001536011684816253  0.0034224306566309594  0.9987792609898519  1.0000
  Sn  Sn4       1.0  0.006536011565556557  0.0009224304765678884  0.9989446197191336  1.0000
  Sn  Sn5       1.0  0.008442870399524313  0.0065221083869489134  0.9991104110240835  1.0000
  Sn  Sn6       1.0  0.003442870083710572  0.009022108567011985  0.9989450522868305  1.0000
  Sn  Sn7       1.0  0.0034428701645944147  0.004022108488234391  0.9992757694964325  1.0000
  Sn  Sn8       1.0  0.008442870480408154  0.0015221083081713197  0.9987796934112373  1.0000
  Sn  Sn9       1.0  0.009036011477343984  0.006225537756561066  0.9987993098261697  1.0000
  Sn  Sn10      1.0  0.004036011532094148  0.00872553737392704  0.999295385934754  1.0000
  Sn  Sn11      1.0  0.004036011862769475  0.0037255375764979953  0.9989646683181845  1.0000
  Sn  Sn12      1.0  0.009036012158454478  0.0012255375371091983  0.9991300270509187  1.0000
  Sn  Sn13      1.0  0.00594287036659557  0.0062190014670818776  0.9989250036984079  1.0000
  Sn  Sn14      1.0  0.0009428700507818295  0.00871900164714495  0.9987596449611549  1.0000
  Sn  Sn15      1.0  0.0009428700268986665  0.0037190012870188067  0.9990903621771373  1.0000
  Sn  Sn16      1.0  0.0059428704676081495  0.0012190012476300098  0.9992557209125287  1.0000
  Pd  Pd1       1.0  0.007438142314564245  0.003446395081948144  0.9991712336513028  1.0000
  Pd  Pd2       1.0  0.002438142039007978  0.005946394980662666  0.9990058749230873  1.0000
  Pd  Pd3       1.0  0.002438142099763084  0.0009463950425593474  0.9986751573057225  1.0000
  Pd  Pd4       1.0  0.007438142233680403  0.008446395160725737  0.9988405164417008  1.0000
  Pd  Pd5       1.0  0.007540739569632782  0.008998143860346251  0.9992145141911906  1.0000
  Pd  Pd6       1.0  0.002540739705635684  0.001498143882854135  0.9990491555695774  1.0000
  Pd  Pd7       1.0  0.0025407396650093147  0.00649814368028318  0.998718438369013  1.0000
  Pd  Pd8       1.0  0.007540739650516625  0.003998143781568658  0.9988837970919142  1.0000
  Pd  Pd9       1.0  0.009938142719291896  0.0027994425350856495  0.9992938007981514  1.0000
  Pd  Pd10      1.0  0.0049381421536866706  0.005299442433800172  0.9991284420646219  1.0000
  Pd  Pd11      1.0  0.004938142214441776  0.00029944249569685273  0.998797724447257  1.0000
  Pd  Pd12      1.0  0.009938142058310138  0.007799442613863243  0.9989630830643513  1.0000
  Pd  Pd13      1.0  0.005040739745003046  0.009645096407208746  0.99909194756854  1.0000
  Pd  Pd14      1.0  4.073961108572763e-05  0.0021450962890423556  0.9989265884325617  1.0000
  Pd  Pd15      1.0  4.073962284286136e-05  0.007145096227145675  0.9992573060512551  1.0000
  Pd  Pd16      1.0  0.005040739825886889  0.0046450963284311525  0.9987612299556938  1.0000
  Sn  Sn17      1.0  0.0065450568145118074  0.005859036819044681  0.9999430793881258  1.0000
  Sn  Sn18      1.0  0.0016217869541262347  0.008277931527632046  0.9997830475051123  1.0000
  Sn  Sn19      1.0  0.001536011684816253  0.0034224306566309594  0.9994406958123  1.0000
  Sn  Sn20      1.0  0.006536011565556557  0.0009224304765678884  0.9996060545415818  1.0000
  Sn  Sn21      1.0  0.00830239038849888  0.006550009159808424  0.9997709931826748  1.0000
  Sn  Sn22      1.0  0.003442870083710572  0.009022108567011985  0.9996064871092786  1.0000
  Sn  Sn23      1.0  0.003496096338211897  0.002819197423419896  0.9999277585327605  1.0000
  Sn  Sn24      1.0  0.008442870480408154  0.0015221083081713197  0.9994411282336855  1.0000
  Sn  Sn25      1.0  0.009036011477343984  0.006225537756561066  0.9994607446486178  1.0000
  Sn  Sn26      1.0  0.004027945651221673  0.00825612532703055  0.9999493238057424  1.0000
  Sn  Sn27      1.0  0.004036011862769475  0.0037255375764979953  0.9996261031406326  1.0000
  Sn  Sn28      1.0  0.009009042569828256  0.0011594607907125846  0.9998026728232813  1.0000
  Sn  Sn29      1.0  0.00594287036659557  0.0062190014670818776  0.999586438520856  1.0000
  Sn  Sn30      1.0  0.0009428700507818295  0.00871900164714495  0.9994210797836031  1.0000
  Sn  Sn31      1.0  0.0009395983363487668  0.0037208961694930806  0.9997514654579962  1.0000
  Sn  Sn32      1.0  0.005863928112164319  0.0011251174877776788  0.999922581412214  1.0000
  Pd  Pd17      1.0  0.007297726652762036  0.003423432820160783  0.9998326652421882  1.0000
  Pd  Pd18      1.0  0.002438142039007978  0.005946394980662666  0.9996673097455355  1.0000
  Pd  Pd19      1.0  0.002438142099763084  0.0009463950425593474  0.9993365926417405  1.0000
  Pd  Pd20      1.0  0.007438142233680403  0.008446395160725737  0.999501951264149  1.0000
  Pd  Pd21      1.0  0.007451934954497483  0.00911770292603931  0.9998675532721545  1.0000
  Pd  Pd22      1.0  0.002560941099495216  0.0015483195829969756  0.9997128087472437  1.0000
  Pd  Pd23      1.0  0.0025407396650093147  0.00649814368028318  0.999379873191461  1.0000
  Pd  Pd24      1.0  0.007540739650516625  0.003998143781568658  0.9995452319143624  1.0000
  Pd  Pd25      1.0  0.009787430433139904  0.0031172102464674506  0.9999233409436443  1.0000
  Pd  Pd26      1.0  0.004881113605114545  0.005355720021263288  0.9997896698244224  1.0000
  Pd  Pd27      1.0  0.004938142214441776  0.00029944249569685273  0.9994591592697052  1.0000
  Pd  Pd28      1.0  0.009938142058310138  0.007799442613863243  0.9996245184003694  1.0000
  Pd  Pd29      1.0  0.005045171115369046  0.0096217039634907  0.9997472163684813  1.0000
  Pd  Pd30      1.0  4.073961108572763e-05  0.0021450962890423556  0.9995880237685797  1.0000
  Pd  Pd31      1.0  0.009959260891785289  0.00731769793469098  0.9998876309379667  1.0000
  Pd  Pd32      1.0  0.005040739825886889  0.0046450963284311525  0.999422664778142  1.0000
