data_image0
_chemical_formula_structural       COAs4Pb8Pd12
_chemical_formula_sum              "C1 O1 As4 Pb8 Pd12"
_cell_length_a       7.001626014709473
_cell_length_b       7.04668478761987
_cell_length_c       105.6690902709961
_cell_angle_alpha    90.0
_cell_angle_beta     90.0
_cell_angle_gamma    119.78870199099084

_space_group_name_H-M_alt    "P 1"
_space_group_IT_number       1

loop_
  _space_group_symop_operation_xyz
  'x, y, z'

loop_
  _atom_site_type_symbol
  _atom_site_label
  _atom_site_symmetry_multiplicity
  _atom_site_fract_x
  _atom_site_fract_y
  _atom_site_fract_z
  _atom_site_occupancy
  C   C1        1.0  0.0032708315961699095  0.006147330167952164  0.0  1.0000
  O   O1        1.0  0.0032708315961699095  0.006147330167952164  0.00011356229421413708  1.0000
  As  As1       1.0  0.0030043364510161353  0.0011472014912135497  0.9991969249907168  1.0000
  As  As2       1.0  0.007142394938997249  0.0011472014912135497  0.9994782204975373  1.0000
  As  As3       1.0  0.0029515909971751285  0.001147209714731687  0.9997595989224822  1.0000
  As  As4       1.0  0.0071032829541321525  0.0011472330146997422  3.062273510553124e-05  1.0000
  Pb  Pb1       1.0  0.009921886429282843  0.007564143051614006  0.9989733475494033  1.0000
  Pb  Pb2       1.0  0.00022484459484798609  0.0047302596140553575  0.9992546430562237  1.0000
  Pb  Pb3       1.0  0.00664178625510063  0.007564143051614006  0.9992546430562237  1.0000
  Pb  Pb4       1.0  0.003504945035060568  0.0047302596140553575  0.9989733475494033  1.0000
  Pb  Pb5       1.0  0.009921886429282843  0.007564143051614006  0.9995359388450786  1.0000
  Pb  Pb6       1.0  7.811313576537674e-05  0.004762029196642345  0.9998360832773957  1.0000
  Pb  Pb7       1.0  0.006463550123082035  0.007532631139261983  0.99983609117436  1.0000
  Pb  Pb8       1.0  0.003504945035060568  0.0047302596140553575  0.9995359388450786  1.0000
  Pd  Pd1       1.0  0.0034304862628340383  0.00874285645517958  0.9993630066096598  1.0000
  Pd  Pd2       1.0  0.006716244894311976  0.003551546210489784  0.9990817108208049  1.0000
  Pd  Pd3       1.0  0.0006058223189067352  0.0011472014912135497  0.9993746450427389  1.0000
  Pd  Pd4       1.0  0.009540908780135934  0.0011472014912135497  0.9990933495359184  1.0000
  Pd  Pd5       1.0  0.005834830948947275  0.003551546210489784  0.9993630066096598  1.0000
  Pd  Pd6       1.0  0.0043119001458478716  0.00874285645517958  0.9990817108208049  1.0000
  Pd  Pd7       1.0  0.0034585517508884697  0.008852798192028714  0.9999198632991267  1.0000
  Pd  Pd8       1.0  0.006716244894311976  0.003551546210489784  0.9996443021164803  1.0000
  Pd  Pd9       1.0  0.00040409242233887524  0.0011473537785864597  0.9999253065637618  1.0000
  Pd  Pd10      1.0  0.009540908780135934  0.0011472014912135497  0.9996559405495594  1.0000
  Pd  Pd11      1.0  0.005752979696444054  0.00344165686049693  0.9999198627350578  1.0000
  Pd  Pd12      1.0  0.0043119001458478716  0.00874285645517958  0.9996443021164803  1.0000
