data_image0
_chemical_formula_structural       COAl12Cr4
_chemical_formula_sum              "C1 O1 Al12 Cr4"
_cell_length_a       4.851228503766399
_cell_length_b       4.851228713989258
_cell_length_c       102.09947204589844
_cell_angle_alpha    90.0
_cell_angle_beta     90.0
_cell_angle_gamma    113.07409731740574

_space_group_name_H-M_alt    "P 1"
_space_group_IT_number       1

loop_
  _space_group_symop_operation_xyz
  'x, y, z'

loop_
  _atom_site_type_symbol
  _atom_site_label
  _atom_site_symmetry_multiplicity
  _atom_site_fract_x
  _atom_site_fract_y
  _atom_site_fract_z
  _atom_site_occupancy
  C   C1        1.0  0.00500022077343654  0.0012492396938108986  0.00011177300591927505  1.0000
  O   O1        1.0  0.00500022077343654  0.0012492396938108986  0.00022930568339776878  1.0000
  Al  Al1       1.0  0.005000413585020059  0.0037487527845732086  0.9999999976648403  1.0000
  Al  Al2       1.0  1.2518499548590834e-06  0.008750759639583825  0.9997393156072664  1.0000
  Al  Al3       1.0  5.429500085321473e-07  0.008748504447289158  0.0  1.0000
  Al  Al4       1.0  0.005000562575789142  0.0037504775344277797  0.9997393150234763  1.0000
  Al  Al5       1.0  3.202500120158369e-07  0.003749777482169471  0.9996066656892622  1.0000
  Al  Al6       1.0  0.0050000279618530215  0.008749726280527838  0.9998842613090106  1.0000
  Al  Al7       1.0  0.005000320100615929  0.003749777392901713  0.9994756678967914  1.0000
  Al  Al8       1.0  3.202500120158369e-07  0.008749777128932459  0.99921367289564  1.0000
  Al  Al9       1.0  3.202500120158369e-07  0.008749777128932459  0.9994756678967914  1.0000
  Al  Al10      1.0  0.005000320100615929  0.003749777392901713  0.99921367289564  1.0000
  Al  Al11      1.0  3.202500120158369e-07  0.003749777482169471  0.9990826753950642  1.0000
  Al  Al12      1.0  0.005000320100615929  0.0087497770396647  0.9993446703962157  1.0000
  Cr  Cr1       1.0  0.009999679482042981  0.0037493664576237385  0.9998519695522068  1.0000
  Cr  Cr2       1.0  0.005000320100615929  0.0087497770396647  0.9996066656892622  1.0000
  Cr  Cr3       1.0  3.202500120158369e-07  0.003749777482169471  0.9993446703962157  1.0000
  Cr  Cr4       1.0  0.005000320100615929  0.0087497770396647  0.9990826753950642  1.0000
