data_image0
_chemical_formula_structural       Au8V24CO
_chemical_formula_sum              "Au8 V24 C1 O1"
_cell_length_a       6.907259941101074
_cell_length_b       8.459631851896066
_cell_length_c       102.02764892578125
_cell_angle_alpha    95.0511521603431
_cell_angle_beta     90.0
_cell_angle_gamma    90.0

_space_group_name_H-M_alt    "P 1"
_space_group_IT_number       1

loop_
  _space_group_symop_operation_xyz
  'x, y, z'

loop_
  _atom_site_type_symbol
  _atom_site_label
  _atom_site_symmetry_multiplicity
  _atom_site_fract_x
  _atom_site_fract_y
  _atom_site_fract_z
  _atom_site_occupancy
  Au  Au1       1.0  4.1310550997636077e-05  0.005282221449651306  0.9996444874422602  1.0000
  Au  Au2       1.0  0.0052398812432286074  0.0021371409137898563  0.999845655317731  1.0000
  Au  Au3       1.0  0.009958690194120025  0.009083699496204103  4.6322069643933105e-05  1.0000
  Au  Au4       1.0  0.005041310841392961  0.008407221714897876  0.9994482926200937  1.0000
  Au  Au5       1.0  0.00012318525020942818  0.004083803844205113  4.637787190032735e-05  1.0000
  Au  Au6       1.0  0.005041310841392961  0.0034072217325809818  0.999448292745826  1.0000
  Au  Au7       1.0  4.1310550997636077e-05  0.00028222179889262456  0.9996444872783125  1.0000
  Au  Au8       1.0  0.004842285245306813  0.007136686661354002  0.9998456536285667  1.0000
  V   V1        1.0  0.008791310560941528  0.007625971538066829  0.9994973414708788  1.0000
  V   V2        1.0  0.003791310755100212  0.004500971714897877  0.9996935362962724  1.0000
  V   V3        1.0  0.008934610996429965  0.0014164440976795465  0.999884644336612  1.0000
  V   V4        1.0  0.003791310755100212  0.000750971783419908  0.999301146607673  1.0000
  V   V5        1.0  0.00629131092768571  0.006063471626482353  0.9995954385914751  1.0000
  V   V6        1.0  0.0013277235607387736  0.002918132917291847  0.9997927999738221  1.0000
  V   V7        1.0  0.006397192130598346  0.009662127998403824  0.9999542211223827  1.0000
  V   V8        1.0  0.0012913105825147144  0.009188471007573688  0.9993992440549546  1.0000
  V   V9        1.0  0.002541310668807463  0.0059072215027006205  0.9994482926813463  1.0000
  V   V10       1.0  0.007541311013978458  0.0027822216795316676  0.9996444872146395  1.0000
  V   V11       1.0  0.0025318858826374434  0.009717777613144143  0.9998434037060019  1.0000
  V   V12       1.0  0.007688075024676274  0.006433285468941225  1.0431108840767068e-05  1.0000
  V   V13       1.0  0.002541310668807463  0.007782221219770944  0.9996444873777803  1.0000
  V   V14       1.0  0.007550606900354794  0.004717722813202585  0.9998433894107293  1.0000
  V   V15       1.0  0.0023949934927500974  0.0014336867825822945  1.0466295190120904e-05  1.0000
  V   V16       1.0  0.007541311013978458  0.0009072217414225342  0.9994482928086922  1.0000
  V   V17       1.0  0.008791310560941528  0.004188471467334411  0.9993992438918138  1.0000
  V   V18       1.0  0.003791310755100212  0.0010634717546848626  0.9995954387180143  1.0000
  V   V19       1.0  0.00875515821378566  0.007917685296020266  0.9997928158590943  1.0000
  V   V20       1.0  0.003685344068433187  0.004662020149148076  0.9999542514233055  1.0000
  V   V21       1.0  0.0012913105825147144  0.0026259715557499343  0.9994973413045106  1.0000
  V   V22       1.0  0.00629131092768571  0.009500971255137153  0.9996935358752125  1.0000
  V   V23       1.0  0.0011481645301473727  0.006416047978450491  0.9998846383982284  1.0000
  V   V24       1.0  0.00629131092768571  0.005750971378918887  0.9993011467712173  1.0000
  C   C1        1.0  0.00284077859764135  0.007756837122931133  5.392387844431285e-05  1.0000
  O   O1        1.0  0.00284077859764135  0.007756837122931133  0.0001715387097218572  1.0000
