data_image0
_chemical_formula_structural       HCr6Ga2Cr6Ga2
_chemical_formula_sum              "H1 Cr12 Ga4"
_cell_length_a       4.6141886711120605
_cell_length_b       4.6141886711120605
_cell_length_c       102.29932403564453
_cell_angle_alpha    90.0
_cell_angle_beta     90.0
_cell_angle_gamma    90.0

_space_group_name_H-M_alt    "P 1"
_space_group_IT_number       1

loop_
  _space_group_symop_operation_xyz
  'x, y, z'

loop_
  _atom_site_type_symbol
  _atom_site_label
  _atom_site_symmetry_multiplicity
  _atom_site_fract_x
  _atom_site_fract_y
  _atom_site_fract_z
  _atom_site_occupancy
  H   H1        1.0  0.0037477144575010684  0.008738257338150425  9.771555643078308e-05  1.0000
  Cr  Cr1       1.0  0.008749579690760909  0.0012500795850619352  7.629736268807645e-05  1.0000
  Cr  Cr2       1.0  0.008747738113015293  0.00125005485980176  0.9998808138113761  1.0000
  Cr  Cr3       1.0  0.0062500004036777175  0.0062500004036777175  0.9997584143110414  1.0000
  Cr  Cr4       1.0  0.0012500000605516577  0.0062500004036777175  0.9997584143110414  1.0000
  Cr  Cr5       1.0  0.0037477144575010684  0.008738257338150425  0.9999772795847389  1.0000
  Cr  Cr6       1.0  0.003747713246467917  0.003761757194247392  0.9999772784194401  1.0000
  Ga  Ga1       1.0  0.0037500000807355435  0.0012500000605516577  0.9997584143110414  1.0000
  Ga  Ga2       1.0  0.008744983416273496  0.006249906750447339  0.0  1.0000
  Cr  Cr7       1.0  0.008750000322942174  0.0012500000605516577  0.9996456524152414  1.0000
  Cr  Cr8       1.0  0.008750000322942174  0.0012500000605516577  0.9994201286236414  1.0000
  Cr  Cr9       1.0  0.0062500004036777175  0.0062500004036777175  0.9993073667278415  1.0000
  Cr  Cr10      1.0  0.0012500000605516577  0.0062500004036777175  0.9993073667278415  1.0000
  Cr  Cr11      1.0  0.0037500000807355435  0.008750000322942174  0.9995328905194414  1.0000
  Cr  Cr12      1.0  0.0037500000807355435  0.0037500000807355435  0.9995328905194414  1.0000
  Ga  Ga3       1.0  0.0037500000807355435  0.0012500000605516577  0.9993073667278415  1.0000
  Ga  Ga4       1.0  0.008750000322942174  0.0062500004036777175  0.9995328905194414  1.0000
