data_image0
_chemical_formula_structural       COV18Pd6V18Pd6
_chemical_formula_sum              "C1 O1 V36 Pd12"
_cell_length_a       4.823716640472412
_cell_length_b       10.78615797356432
_cell_length_c       110.93059539794922
_cell_angle_alpha    71.56505077658404
_cell_angle_beta     90.0
_cell_angle_gamma    90.0

_space_group_name_H-M_alt    "P 1"
_space_group_IT_number       1

loop_
  _space_group_symop_operation_xyz
  'x, y, z'

loop_
  _atom_site_type_symbol
  _atom_site_label
  _atom_site_symmetry_multiplicity
  _atom_site_fract_x
  _atom_site_fract_y
  _atom_site_fract_z
  _atom_site_occupancy
  C   C1        1.0  0.005000095470032969  0.009436513783831415  0.9998579728847362  1.0000
  O   O1        1.0  0.005000095470032969  0.009436513783831415  0.9999661483134445  1.0000
  V   V1        1.0  8.849999681852433e-09  0.007528217039716548  0.9986246740791828  1.0000
  V   V2        1.0  8.849999681852433e-09  0.004194883468531159  0.9990346459833589  1.0000
  V   V3        1.0  8.849999681852433e-09  0.0008615498973457714  0.9988296600852262  1.0000
  V   V4        1.0  8.849999681852433e-09  0.00586155007209422  0.9991371386693648  1.0000
  V   V5        1.0  8.849999681852433e-09  0.0025282166829384656  0.9989321527656352  1.0000
  V   V6        1.0  8.849999681852433e-09  0.00919488327922034  0.9987271667763828  1.0000
  V   V7        1.0  0.005000008587823707  0.007528217039716548  0.9987784132611026  1.0000
  V   V8        1.0  0.005000008587823707  0.004194883468531159  0.99857342736297  1.0000
  V   V9        1.0  0.005000008587823707  0.0008615498973457714  0.998983399267146  1.0000
  V   V10       1.0  0.005000008587823707  0.00919488327922034  0.998573427594463  1.0000
  V   V11       1.0  0.005000008587823707  0.00586155007209422  0.9989833994874451  1.0000
  V   V12       1.0  0.005000008587823707  0.0025282166829384656  0.9987784135837153  1.0000
  V   V13       1.0  0.007500009020304037  0.005028216588283056  0.9987784131621471  1.0000
  V   V14       1.0  0.007500009020304037  0.0016948833811569353  0.9985734272528204  1.0000
  V   V15       1.0  0.007500009020304037  0.008361550159468444  0.9989833995975945  1.0000
  V   V16       1.0  0.0025000087345581046  0.005028216588283056  0.9987784131621471  1.0000
  V   V17       1.0  0.0025000087345581046  0.0016948833811569353  0.9985734272528204  1.0000
  V   V18       1.0  0.0025000087345581046  0.008361550159468444  0.9989833995975945  1.0000
  Pd  Pd1       1.0  0.005000008587823707  0.006694883191846116  0.9985734274843135  1.0000
  Pd  Pd2       1.0  0.005000008587823707  0.0033615499847199958  0.9989833993772955  1.0000
  Pd  Pd3       1.0  0.005000008587823707  2.821660125266736e-05  0.9987784134733909  1.0000
  Pd  Pd4       1.0  8.849999681852433e-09  0.006694883191846116  0.9988809063854679  1.0000
  Pd  Pd5       1.0  8.849999681852433e-09  0.0033615499847199958  0.9986759204761412  1.0000
  Pd  Pd6       1.0  8.849999681852433e-09  2.821660125266736e-05  0.9990858923745453  1.0000
  V   V19       1.0  8.849999681852433e-09  0.007528217039716548  0.9992396318814916  1.0000
  V   V20       1.0  0.009999990917913058  0.004416654540095169  0.9996560913909256  1.0000
  V   V21       1.0  8.849999681852433e-09  0.0008615498973457714  0.9994446178875349  1.0000
  V   V22       1.0  0.009999975472186968  0.005920478889502036  0.9997238593951185  1.0000
  V   V23       1.0  9.24999952599646e-09  0.0025793464406863222  0.9995414021864109  1.0000
  V   V24       1.0  8.849999681852433e-09  0.00919488327922034  0.9993421245786915  1.0000
  V   V25       1.0  0.005000008587823707  0.007528217039716548  0.9993933710634113  1.0000
  V   V26       1.0  0.005000008587823707  0.004194883468531159  0.9991883851652786  1.0000
  V   V27       1.0  0.005000033687128605  0.0009182001588125549  0.9995883851429769  1.0000
  V   V28       1.0  0.005000008587823707  0.00919488327922034  0.9991883853967718  1.0000
  V   V29       1.0  0.005000045657566325  0.005855322838322083  0.9996085653856164  1.0000
  V   V30       1.0  0.005000008587823707  0.0025282166829384656  0.9993933713860241  1.0000
  V   V31       1.0  0.007500009020304037  0.005028216588283056  0.9993933715017707  1.0000
  V   V32       1.0  0.007500009020304037  0.0016948833811569353  0.9991883850551292  1.0000
  V   V33       1.0  0.007355559045328585  0.008280565903511455  0.9995965231865208  1.0000
  V   V34       1.0  0.0025000087345581046  0.005028216588283056  0.9993933715017707  1.0000
  V   V35       1.0  0.0025000087345581046  0.0016948833811569353  0.9991883850551292  1.0000
  V   V36       1.0  0.0026444556203883388  0.008280587018948977  0.9995965246865244  1.0000
  Pd  Pd7       1.0  0.005000008587823707  0.006694883191846116  0.9991883852866222  1.0000
  Pd  Pd8       1.0  0.004999989666809246  0.0033652419097526315  0.9996016518481061  1.0000
  Pd  Pd9       1.0  0.005000008587823707  2.821660125266736e-05  0.9993933712756996  1.0000
  Pd  Pd10      1.0  0.009999985511908928  0.006728124715451277  0.9994849850417462  1.0000
  Pd  Pd11      1.0  8.849999681852433e-09  0.0033615499847199958  0.9992908782784499  1.0000
  Pd  Pd12      1.0  9.544999613592823e-08  0.009971783571903021  0.9996933886087485  1.0000
