data_image0
_chemical_formula_structural       HPt12W4Pt12W4
_chemical_formula_sum              "H1 Pt24 W8"
_cell_length_a       5.564324378967285
_cell_length_b       8.990444624009346
_cell_length_c       103.38594818115234
_cell_angle_alpha    108.02655117954558
_cell_angle_beta     90.0
_cell_angle_gamma    71.97344882045444

_space_group_name_H-M_alt    "P 1"
_space_group_IT_number       1

loop_
  _space_group_symop_operation_xyz
  'x, y, z'

loop_
  _atom_site_type_symbol
  _atom_site_label
  _atom_site_symmetry_multiplicity
  _atom_site_fract_x
  _atom_site_fract_y
  _atom_site_fract_z
  _atom_site_occupancy
  H   H1        1.0  0.007247791837271048  0.005537690896008124  0.00011057671082813128  1.0000
  Pt  Pt1       1.0  0.006263247682968077  0.0025068861632199175  0.9992584619849034  1.0000
  Pt  Pt2       1.0  0.0012632481917846789  0.0025068861632199175  0.9995275662580336  1.0000
  Pt  Pt3       1.0  0.0012632481917846789  0.0025068861632199175  0.9992584619849034  1.0000
  Pt  Pt4       1.0  0.006263247682968077  0.0025068861632199175  0.9995275662580336  1.0000
  Pt  Pt5       1.0  1.3248099546042386e-05  6.8862994725904584e-06  0.9993257380049653  1.0000
  Pt  Pt6       1.0  0.005013247869250041  6.8862994725904584e-06  0.9995948422780955  1.0000
  Pt  Pt7       1.0  0.008763248623743197  0.0075068859420185895  0.9993930142192905  1.0000
  Pt  Pt8       1.0  0.00376324779356874  0.0075068859420185895  0.9991239096578974  1.0000
  Pt  Pt9       1.0  0.00376324779356874  0.0075068859420185895  0.9993930142192905  1.0000
  Pt  Pt10      1.0  0.008763248623743197  0.0075068859420185895  0.9991239096578974  1.0000
  Pt  Pt11      1.0  0.007513247818607872  0.005006886052619254  0.9991911856772691  1.0000
  Pt  Pt12      1.0  0.0025132479926767096  0.005006886052619254  0.999460290238662  1.0000
  W   W1        1.0  1.3248099546042386e-05  6.8862994725904584e-06  0.9995948422780955  1.0000
  W   W2        1.0  0.005013247869250041  6.8862994725904584e-06  0.9993257380049653  1.0000
  W   W3        1.0  0.007513247818607872  0.005006886052619254  0.999460290238662  1.0000
  W   W4        1.0  0.0025132479926767096  0.005006886052619254  0.9991911856772691  1.0000
  Pt  Pt13      1.0  0.006263247682968077  0.0025068861632199175  0.9997966708194266  1.0000
  Pt  Pt14      1.0  0.0012515172546677846  0.0025255062457816904  6.796019857000636e-05  1.0000
  Pt  Pt15      1.0  0.0012632481917846789  0.0025068861632199175  0.9997966708194266  1.0000
  Pt  Pt16      1.0  0.0062559072554131375  0.0025255585506788756  6.796391222058585e-05  1.0000
  Pt  Pt17      1.0  3.48475810499219e-05  0.009962674598631666  0.9998593064964391  1.0000
  Pt  Pt18      1.0  0.004967966760624705  9.711109097620908e-05  0.00012943740226414575  1.0000
  Pt  Pt19      1.0  0.008789181247897139  0.007459246549495242  0.9999433320162946  1.0000
  Pt  Pt20      1.0  0.00376324779356874  0.0075068859420185895  0.9996621184924206  1.0000
  Pt  Pt21      1.0  0.0037849930010237553  0.007459271434644563  0.9999433355685932  1.0000
  Pt  Pt22      1.0  0.008763248623743197  0.0075068859420185895  0.9996621184924206  1.0000
  Pt  Pt23      1.0  0.007513247818607872  0.005006886052619254  0.9997293945117922  1.0000
  Pt  Pt24      1.0  0.0025158433797438915  0.005001315005023924  3.845460510689103e-06  1.0000
  W   W5        1.0  0.009986751830229986  5.9894097267742586e-05  0.00010638434899485865  1.0000
  W   W6        1.0  0.005020715555567093  0.009993112822940665  0.9998764770214779  1.0000
  W   W7        1.0  0.007596432088011305  0.004840410394527609  0.9999817619163268  1.0000
  W   W8        1.0  0.0025132479926767096  0.005006886052619254  0.9997293945117922  1.0000
