data_image0
_chemical_formula_structural       COGe3Pd6Ge3Pd6
_chemical_formula_sum              "C1 O1 Ge6 Pd12"
_cell_length_a       6.807547092437744
_cell_length_b       6.807547132850246
_cell_length_c       98.402099609375
_cell_angle_alpha    90.0
_cell_angle_beta     90.0
_cell_angle_gamma    119.9999998036246

_space_group_name_H-M_alt    "P 1"
_space_group_IT_number       1

loop_
  _space_group_symop_operation_xyz
  'x, y, z'

loop_
  _atom_site_type_symbol
  _atom_site_label
  _atom_site_symmetry_multiplicity
  _atom_site_fract_x
  _atom_site_fract_y
  _atom_site_fract_z
  _atom_site_occupancy
  C   C1        1.0  0.001371084046413194  0.001371083457206608  0.00017601651372021188  1.0000
  O   O1        1.0  0.001371084046413194  0.001371083457206608  0.00029796537829049384  1.0000
  Ge  Ge1       1.0  0.0066666673668287785  0.0033333336829769996  0.9996447066559426  1.0000
  Ge  Ge2       1.0  0.0033333342128735286  0.006666667365953999  0.9996447066559426  1.0000
  Ge  Ge3       1.0  8.499999895418431e-10  5.499999964078137e-10  0.9994643107480485  1.0000
  Pd  Pd1       1.0  0.00607279271109463  5.499999964078137e-10  0.9994643107480485  1.0000
  Pd  Pd2       1.0  0.003927209233462589  0.003927209031495066  0.9994643107480485  1.0000
  Pd  Pd3       1.0  1.0431011001997285e-09  0.0060727923333790046  0.9994643107480485  1.0000
  Pd  Pd4       1.0  9.10969768413264e-10  0.00267598916265724  0.9996447066559426  1.0000
  Pd  Pd5       1.0  0.00732401254566775  0.0073240122022168305  0.9996447066559426  1.0000
  Pd  Pd6       1.0  0.0026759892574060723  5.499999964078137e-10  0.9996447066559426  1.0000
  Ge  Ge4       1.0  0.006666670808177056  0.003333333998920071  0.9999860846718732  1.0000
  Ge  Ge5       1.0  0.003333333676645841  0.006666669893498573  0.9999860846718732  1.0000
  Ge  Ge6       1.0  0.009999999165489186  0.00999999946921564  0.9998297572601754  1.0000
  Pd  Pd7       1.0  0.006097345260680062  2.7499999820390686e-09  0.9998278077331839  1.0000
  Pd  Pd8       1.0  0.003902677333130904  0.003902678895459786  0.9998278077331839  1.0000
  Pd  Pd9       1.0  1.1593769662586068e-09  0.006097342373827806  0.9998278080360465  1.0000
  Pd  Pd10      1.0  4.6392914720573985e-09  0.0027421618593240675  0.9999999987885493  1.0000
  Pd  Pd11      1.0  0.007257839494265871  0.007257839821493074  0.0  1.0000
  Pd  Pd12      1.0  0.0027421635877977442  5.050000076583305e-09  0.9999999987885493  1.0000
