data_image0
_chemical_formula_structural       HNi18Mo6
_chemical_formula_sum              "H1 Ni18 Mo6"
_cell_length_a       6.192892310786642
_cell_length_b       6.625009339151799
_cell_length_c       102.01774597167969
_cell_angle_alpha    81.81754918102824
_cell_angle_beta     87.6777096687459
_cell_angle_gamma    63.71038509733371

_space_group_name_H-M_alt    "P 1"
_space_group_IT_number       1

loop_
  _space_group_symop_operation_xyz
  'x, y, z'

loop_
  _atom_site_type_symbol
  _atom_site_label
  _atom_site_symmetry_multiplicity
  _atom_site_fract_x
  _atom_site_fract_y
  _atom_site_fract_z
  _atom_site_occupancy
  H   H1        1.0  0.00015658431706548395  0.001309729997579025  6.639715701121717e-05  1.0000
  Ni  Ni1       1.0  0.003628678106755186  0.00855667223076186  0.9998005768964371  1.0000
  Ni  Ni2       1.0  0.006983642834742035  0.0019372011564402318  0.9995397972702625  1.0000
  Ni  Ni3       1.0  0.0003169763887069788  0.0052705346185470455  0.99927825975232  1.0000
  Ni  Ni4       1.0  0.009843415619518106  0.007988970543828933  0.9998453031455328  1.0000
  Ni  Ni5       1.0  0.0031899747306803933  0.001318879142236691  0.9995859332051511  1.0000
  Ni  Ni6       1.0  0.006523307770730037  0.004652212287687406  0.999324395627131  1.0000
  Ni  Ni7       1.0  0.009543908096873742  0.0018958377952288672  0.9997358451872991  1.0000
  Ni  Ni8       1.0  0.0028628543757484104  0.005240017203697846  0.999475618156247  1.0000
  Ni  Ni9       1.0  0.006165274946761058  0.008690270072085317  0.9999868834072829  1.0000
  Ni  Ni10      1.0  0.007310763050594032  0.008016063006315369  0.9996501120457272  1.0000
  Ni  Ni11      1.0  0.0006440963662738452  0.0013493963987578409  0.9993885748036156  1.0000
  Ni  Ni12      1.0  0.003971295217144328  0.004730405128089976  0.9999098627500546  1.0000
  Ni  Ni13      1.0  0.001472290684482036  0.0047306974016690095  0.999714334710369  1.0000
  Ni  Ni14      1.0  0.004846536903944107  0.008005753950368427  0.999455957179415  1.0000
  Ni  Ni15      1.0  0.008183488005334603  0.0014449427850054856  0.9999665155492606  1.0000
  Ni  Ni16      1.0  0.005327080522398336  0.005250326259644788  0.9996697733146879  1.0000
  Ni  Ni17      1.0  0.008660413789303762  0.008583659563423551  0.9994082357346464  1.0000
  Ni  Ni18      1.0  0.0019713290896400085  0.001992170596897455  0.9999211396222372  1.0000
  Mo  Mo1       1.0  0.007773019788233185  0.005329149245683628  0.9998641713138601  1.0000
  Mo  Mo2       1.0  0.0011235673088042487  0.008609660828994115  0.9996035380154479  1.0000
  Mo  Mo3       1.0  0.004456901015808327  0.0019429942214365865  0.9993420004159768  1.0000
  Mo  Mo4       1.0  0.009050050117538195  0.0046464193810191005  0.999522192478655  1.0000
  Mo  Mo5       1.0  0.0023833831436286877  0.007979752684797866  0.9992606549634743  1.0000
  Mo  Mo6       1.0  0.005673569458924618  0.0013483500086799236  0.9997901369102596  1.0000
