data_image0
_chemical_formula_structural       HCo3Pt9Co3Pt9Co3Pt9Co3Pt9
_chemical_formula_sum              "H1 Co12 Pt36"
_cell_length_a       8.687714800827635
_cell_length_b       7.770528316497803
_cell_length_c       102.96755981445312
_cell_angle_alpha    90.0
_cell_angle_beta     108.43494832569219
_cell_angle_gamma    90.0

_space_group_name_H-M_alt    "P 1"
_space_group_IT_number       1

loop_
  _space_group_symop_operation_xyz
  'x, y, z'

loop_
  _atom_site_type_symbol
  _atom_site_label
  _atom_site_symmetry_multiplicity
  _atom_site_fract_x
  _atom_site_fract_y
  _atom_site_fract_z
  _atom_site_occupancy
  H   H1        1.0  0.00816455954949453  0.0012500000527354018  0.00021784012848749748  1.0000
  Co  Co1       1.0  0.007499999927680853  0.0012500000527354018  0.999822275256016  1.0000
  Co  Co2       1.0  0.004166666726932622  0.0012500000527354018  1.4989952525681675e-07  1.0000
  Co  Co3       1.0  0.000833333356686391  0.0012500000527354018  0.999644400688061  1.0000
  Pt  Pt1       1.0  0.005833333327306738  0.0037500000383530194  0.9999112125777706  1.0000
  Pt  Pt2       1.0  0.0025000001265585063  0.0037500000383530194  8.9086642411719e-05  1.0000
  Pt  Pt3       1.0  0.009166666980049636  0.0037500000383530194  0.999733337656887  1.0000
  Pt  Pt4       1.0  0.007499999927680853  0.0012500000527354018  8.908718124152417e-05  1.0000
  Pt  Pt5       1.0  0.004166666726932622  0.0012500000527354018  0.9997333379742996  1.0000
  Pt  Pt6       1.0  0.000833333356686391  0.0012500000527354018  0.9999112120344184  1.0000
  Pt  Pt7       1.0  0.009166666980049636  0.0037500000383530194  1.49871546627523e-07  1.0000
  Pt  Pt8       1.0  0.005833333327306738  0.0037500000383530194  0.999644400363111  1.0000
  Pt  Pt9       1.0  0.0025000001265585063  0.0037500000383530194  0.9998222752960544  1.0000
  Co  Co4       1.0  0.007499999927680853  0.0012500000527354018  0.9992886514055648  1.0000
  Co  Co5       1.0  0.004166666726932622  0.0012500000527354018  0.99946652575964  1.0000
  Co  Co6       1.0  0.000833333356686391  0.0012500000527354018  0.9991107768376098  1.0000
  Pt  Pt10      1.0  0.005833333327306738  0.0037500000383530194  0.9993775887273195  1.0000
  Pt  Pt11      1.0  0.0025000001265585063  0.0037500000383530194  0.9995554630813946  1.0000
  Pt  Pt12      1.0  0.009166666980049636  0.0037500000383530194  0.9991997140958699  1.0000
  Pt  Pt13      1.0  0.007499999927680853  0.0012500000527354018  0.9995554630413563  1.0000
  Pt  Pt14      1.0  0.004166666726932622  0.0012500000527354018  0.9991997141238486  1.0000
  Pt  Pt15      1.0  0.000833333356686391  0.0012500000527354018  0.9993775884734013  1.0000
  Pt  Pt16      1.0  0.009166666980049636  0.0037500000383530194  0.9994665260210955  1.0000
  Pt  Pt17      1.0  0.005833333327306738  0.0037500000383530194  0.9991107768020939  1.0000
  Pt  Pt18      1.0  0.0025000001265585063  0.0037500000383530194  0.9992886514456032  1.0000
  Co  Co7       1.0  0.007499999927680853  0.006249999904117451  0.999822275256016  1.0000
  Co  Co8       1.0  0.004166666726932622  0.006249999904117451  1.4989952525681675e-07  1.0000
  Co  Co9       1.0  0.000833333356686391  0.006249999904117451  0.999644400688061  1.0000
  Pt  Pt19      1.0  0.005833333327306738  0.008749999769881884  0.9999112125777706  1.0000
  Pt  Pt20      1.0  0.0025000001265585063  0.008749999769881884  8.9086642411719e-05  1.0000
  Pt  Pt21      1.0  0.009166666980049636  0.008749999769881884  0.999733337656887  1.0000
  Pt  Pt22      1.0  0.007499999927680853  0.006249999904117451  8.908718124152417e-05  1.0000
  Pt  Pt23      1.0  0.004166666726932622  0.006249999904117451  0.9997333379742996  1.0000
  Pt  Pt24      1.0  0.000833333356686391  0.006249999904117451  0.9999112120344184  1.0000
  Pt  Pt25      1.0  0.009166666980049636  0.008749999769881884  1.49871546627523e-07  1.0000
  Pt  Pt26      1.0  0.005833333327306738  0.008749999769881884  0.999644400363111  1.0000
  Pt  Pt27      1.0  0.0025000001265585063  0.008749999769881884  0.9998222752960544  1.0000
  Co  Co10      1.0  0.007499999927680853  0.006249999904117451  0.9992886514055648  1.0000
  Co  Co11      1.0  0.004166666726932622  0.006249999904117451  0.99946652575964  1.0000
  Co  Co12      1.0  0.000833333356686391  0.006249999904117451  0.9991107768376098  1.0000
  Pt  Pt28      1.0  0.005833333327306738  0.008749999769881884  0.9993775887273195  1.0000
  Pt  Pt29      1.0  0.0025000001265585063  0.008749999769881884  0.9995554630813946  1.0000
  Pt  Pt30      1.0  0.009166666980049636  0.008749999769881884  0.9991997140958699  1.0000
  Pt  Pt31      1.0  0.007499999927680853  0.006249999904117451  0.9995554630413563  1.0000
  Pt  Pt32      1.0  0.004166666726932622  0.006249999904117451  0.9991997141238486  1.0000
  Pt  Pt33      1.0  0.000833333356686391  0.006249999904117451  0.9993775884734013  1.0000
  Pt  Pt34      1.0  0.009166666980049636  0.008749999769881884  0.9994665260210955  1.0000
  Pt  Pt35      1.0  0.005833333327306738  0.008749999769881884  0.9991107768020939  1.0000
  Pt  Pt36      1.0  0.0025000001265585063  0.008749999769881884  0.9992886514456032  1.0000
