data_image0
_chemical_formula_structural       COFe18Si6
_chemical_formula_sum              "C1 O1 Fe18 Si6"
_cell_length_a       5.56544303894043
_cell_length_b       6.816247831647622
_cell_length_c       99.9708251953125
_cell_angle_alpha    94.34775315295653
_cell_angle_beta     90.0
_cell_angle_gamma    114.09484250443195

_space_group_name_H-M_alt    "P 1"
_space_group_IT_number       1

loop_
  _space_group_symop_operation_xyz
  'x, y, z'

loop_
  _atom_site_type_symbol
  _atom_site_label
  _atom_site_symmetry_multiplicity
  _atom_site_fract_x
  _atom_site_fract_y
  _atom_site_fract_z
  _atom_site_occupancy
  C   C1        1.0  0.004546103472240586  0.004497449583009975  0.00013317735190279713  1.0000
  O   O1        1.0  0.004546103472240586  0.004497449583009975  0.0002532120189229605  1.0000
  Fe  Fe1       1.0  0.0037760439857898215  0.002417390925956856  0.9995780562618999  1.0000
  Fe  Fe2       1.0  0.009609377280498821  0.0040840574484387595  0.9993282265329545  1.0000
  Fe  Fe3       1.0  0.007981376440698598  0.0006809650364781683  0.9998125051299268  1.0000
  Fe  Fe4       1.0  0.008776044019257868  0.002417390925956856  0.9995780562618999  1.0000
  Fe  Fe5       1.0  0.004609377079690533  0.0040840574484387595  0.9993282265329545  1.0000
  Fe  Fe6       1.0  0.0028657623969382314  0.0004992757512232828  0.9998297179274964  1.0000
  Fe  Fe7       1.0  0.0027343772427498047  0.0053340576406851106  0.9995155988032683  1.0000
  Fe  Fe8       1.0  0.00018228948730381834  0.0012921605679683899  6.679038631606353e-06  1.0000
  Fe  Fe9       1.0  0.006808258559105703  0.003675976720081931  0.9997853476189841  1.0000
  Fe  Fe10      1.0  0.006692710533177835  0.008250724355413365  0.9994531413446368  1.0000
  Fe  Fe11      1.0  0.004430120347567597  0.004265483333663997  0.9999593212643899  1.0000
  Fe  Fe12      1.0  0.0008593772384688358  0.006584057832931462  0.9997029713716924  1.0000
  Fe  Fe13      1.0  0.001692710499709787  0.008250724355413365  0.9994531413446368  1.0000
  Fe  Fe14      1.0  0.00021479247934422975  0.00472124295936189  0.9999429622748031  1.0000
  Fe  Fe15      1.0  0.005859377271936884  0.006584057832931462  0.9997029713716924  1.0000
  Fe  Fe16      1.0  0.005651044065167021  0.001167390883902967  0.9993906839923623  1.0000
  Fe  Fe17      1.0  0.004213110006501128  0.007730865590925296  0.9999142600573543  1.0000
  Fe  Fe18      1.0  0.009817710562364915  0.009500724547659717  0.9996405139130609  1.0000
  Si  Si1       1.0  0.001963892028672417  0.003627825317256463  0.9997601707549069  1.0000
  Si  Si2       1.0  0.007734377108877612  0.0053340576406851106  0.9995155988032683  1.0000
  Si  Si3       1.0  0.006096824541385692  0.001673883871034842  7.855574774580832e-06  1.0000
  Si  Si4       1.0  0.0048177106387139  0.009500724547659717  0.9996405139130609  1.0000
  Si  Si5       1.0  0.0006510439166525576  0.001167390883902967  0.9993906839923623  1.0000
  Si  Si6       1.0  0.008748851867791892  0.007532743710891325  0.999902686463072  1.0000
