data_image0
_chemical_formula_structural       HAs12Ru12Se12
_chemical_formula_sum              "H1 As12 Ru12 Se12"
_cell_length_a       8.774625188845338
_cell_length_b       9.24698678121643
_cell_length_c       103.24740600585938
_cell_angle_alpha    97.62203281924224
_cell_angle_beta     89.6492723175212
_cell_angle_gamma    80.28514857036883

_space_group_name_H-M_alt    "P 1"
_space_group_IT_number       1

loop_
  _space_group_symop_operation_xyz
  'x, y, z'

loop_
  _atom_site_type_symbol
  _atom_site_label
  _atom_site_symmetry_multiplicity
  _atom_site_fract_x
  _atom_site_fract_y
  _atom_site_fract_z
  _atom_site_occupancy
  H   H1        1.0  0.0053247803486670695  0.009745802760204618  0.0002519166898826187  1.0000
  As  As1       1.0  0.004824024427548711  0.009727459675047396  0.9995632127754146  1.0000
  As  As2       1.0  0.003157357822514744  0.00806079336041307  9.990766420312706e-05  1.0000
  As  As3       1.0  0.008990690749888987  0.0038941263362135565  0.9998315604837662  1.0000
  As  As4       1.0  0.00766301176530572  0.004985468946549557  0.9994437532348291  1.0000
  As  As5       1.0  0.005996345233988637  0.0033188022193773314  0.9999804481186787  1.0000
  As  As6       1.0  0.0018296788379314774  0.00915213597074907  0.9997121004152661  1.0000
  As  As7       1.0  0.0020984079064368054  0.004420864627028248  5.1424729105929265e-05  1.0000
  As  As8       1.0  0.00793174119386937  0.0002541979637993967  0.9997830769754705  1.0000
  As  As9       1.0  0.0037650743640370026  0.006087531766738373  0.9995147298501953  1.0000
  As  As10      1.0  0.0028886288954907556  0.0027920637222936906  0.9997605835349079  1.0000
  As  As11      1.0  0.008721962105944253  0.008625397679934378  0.999492236458355  1.0000
  As  As12      1.0  0.007055295648344056  0.006958730540224254  2.893104861608074e-05  1.0000
  Ru  Ru1       1.0  0.007058943388821868  0.0011121029613145325  0.9995681299010902  1.0000
  Ru  Ru2       1.0  0.005392276716023447  0.009445437215982507  0.0001048246003951771  1.0000
  Ru  Ru3       1.0  0.0012256102860257708  0.0052787697792450955  0.9998364770791681  1.0000
  Ru  Ru4       1.0  0.005428092798080132  0.003600825503518018  0.9994388363035761  1.0000
  Ru  Ru5       1.0  0.003761426691323645  0.0019341587763457924  0.9999755311872048  1.0000
  Ru  Ru6       1.0  0.009594759163231279  0.007767492115179631  0.999707183526386  1.0000
  Ru  Ru7       1.0  0.000405239999148082  0.003577972141507074  0.9994373642162641  1.0000
  Ru  Ru8       1.0  0.008738572898919801  0.0019113054143348484  0.9999740588586655  1.0000
  Ru  Ru9       1.0  0.004571906502862642  0.007744639165706587  0.9997057117325521  1.0000
  Ru  Ru10      1.0  0.002081796968945413  0.0011349563233254763  0.9995696016524407  1.0000
  Ru  Ru11      1.0  0.0004151301575835793  0.009468290165455553  0.00010629634691710541  1.0000
  Ru  Ru12      1.0  0.006248463084957821  0.00530162314125604  0.9998379491664802  1.0000
  Se  Se1       1.0  0.009352816645857395  0.002328371329680012  0.9996046973668805  1.0000
  Se  Se2       1.0  0.00518614982523964  0.00816170508105175  0.9993363499523383  1.0000
  Se  Se3       1.0  0.0035194832939225576  0.006495038353879525  0.9998730445475383  1.0000
  Se  Se4       1.0  0.003134220177885498  0.002384557135152538  0.9994022688374545  1.0000
  Se  Se5       1.0  0.001467553434288118  0.0007178904079803127  0.9999389637214144  1.0000
  Se  Se6       1.0  0.0073008867184585005  0.006551223953083101  0.9996706160626234  1.0000
  Se  Se7       1.0  0.007059080643347927  0.0013094174664863452  0.9993330262799408  1.0000
  Se  Se8       1.0  0.005392413564418132  0.009642751618019845  0.9998697206895822  1.0000
  Se  Se9       1.0  0.0012257471344204562  0.0054760841812824335  0.9996013734570047  1.0000
  Se  Se10      1.0  0.0054279563742460415  0.00340351110148068  0.9996739399255186  1.0000
  Se  Se11      1.0  0.0012612897659085847  0.009236844852852418  0.999405592510866  1.0000
  Se  Se12      1.0  0.00959462273939719  0.0075701777131422935  0.9999422874369781  1.0000
