data_image0
_chemical_formula_structural       CONi6Sn2Ni6Sn2Ni6Sn2Ni6Sn2
_chemical_formula_sum              "C1 O1 Ni24 Sn8"
_cell_length_a       5.364292077931361
_cell_length_b       8.578472137451172
_cell_length_c       107.550048828125
_cell_angle_alpha    90.0
_cell_angle_beta     120.00000041220403
_cell_angle_gamma    90.0

_space_group_name_H-M_alt    "P 1"
_space_group_IT_number       1

loop_
  _space_group_symop_operation_xyz
  'x, y, z'

loop_
  _atom_site_type_symbol
  _atom_site_label
  _atom_site_symmetry_multiplicity
  _atom_site_fract_x
  _atom_site_fract_y
  _atom_site_fract_z
  _atom_site_occupancy
  C   C1        1.0  0.008935977036110746  0.0006250000325695261  0.00017839572313909087  1.0000
  O   O1        1.0  0.008935977036110746  0.0006250000325695261  0.00028997135555212076  1.0000
  Ni  Ni1       1.0  0.006275523009513826  0.0018750000434260348  0.9994208134827561  1.0000
  Ni  Ni2       1.0  0.007871690216952285  0.004375000173704139  0.9995800380822565  1.0000
  Ni  Ni3       1.0  0.007871690216952285  0.004375000173704139  0.9993412011875357  1.0000
  Ni  Ni4       1.0  0.0010640234971489005  0.0018750000434260348  0.9991608786179326  1.0000
  Ni  Ni5       1.0  0.0010640234971489005  0.0018750000434260348  0.9994208137738723  1.0000
  Ni  Ni6       1.0  0.002660190604350583  0.004375000173704139  0.9995800380937709  1.0000
  Sn  Sn1       1.0  0.00613452354576935  0.0018750000434260348  0.9991679112688157  1.0000
  Sn  Sn2       1.0  0.0028011900680950594  0.004375000173704139  0.9993341685341529  1.0000
  Ni  Ni7       1.0  0.006378521107831342  0.0018750000434260348  0.9999250537545168  1.0000
  Ni  Ni8       1.0  0.007765075174823201  0.004375000173704139  5.9817533360662676e-05  1.0000
  Ni  Ni9       1.0  0.007811660416767384  0.004375000173704139  0.9998335008153674  1.0000
  Ni  Ni10      1.0  0.0010640234971489005  0.0018750000434260348  0.9996596506685931  1.0000
  Ni  Ni11      1.0  0.0010788643536740405  0.0018750000434260348  0.999924978960559  1.0000
  Ni  Ni12      1.0  0.002389783659015287  0.004375000173704139  5.9597823754850396e-05  1.0000
  Sn  Sn3       1.0  0.00613452354576935  0.0018750000434260348  0.9996666830423742  1.0000
  Sn  Sn4       1.0  0.0028135177881817883  0.004375000173704139  0.9998330900726325  1.0000
  Ni  Ni13      1.0  0.006275523009513826  0.006875000086852069  0.9994208134827561  1.0000
  Ni  Ni14      1.0  0.007871690216952285  0.009375  0.9995800380822565  1.0000
  Ni  Ni15      1.0  0.007871690216952285  0.009375  0.9993412011875357  1.0000
  Ni  Ni16      1.0  0.0010640234971489005  0.006875000086852069  0.9991608786179326  1.0000
  Ni  Ni17      1.0  0.0010640234971489005  0.006875000086852069  0.9994208137738723  1.0000
  Ni  Ni18      1.0  0.002660190604350583  0.009375  0.9995800380937709  1.0000
  Sn  Sn5       1.0  0.00613452354576935  0.006875000086852069  0.9991679112688157  1.0000
  Sn  Sn6       1.0  0.0028011900680950594  0.009375  0.9993341685341529  1.0000
  Ni  Ni19      1.0  0.006378521107831342  0.006875000086852069  0.9999250537545168  1.0000
  Ni  Ni20      1.0  0.007765075174823201  0.009375  5.9817533360662676e-05  1.0000
  Ni  Ni21      1.0  0.007811660416767384  0.009375  0.9998335008153674  1.0000
  Ni  Ni22      1.0  0.0010640234971489005  0.006875000086852069  0.9996596506685931  1.0000
  Ni  Ni23      1.0  0.0010788643536740405  0.006875000086852069  0.999924978960559  1.0000
  Ni  Ni24      1.0  0.002389783659015287  0.009375  5.9597823754850396e-05  1.0000
  Sn  Sn7       1.0  0.00613452354576935  0.006875000086852069  0.9996666830423742  1.0000
  Sn  Sn8       1.0  0.0028135177881817883  0.009375  0.9998330900726325  1.0000
