data_image0
_chemical_formula_structural       HFe8Ni8Pt16
_chemical_formula_sum              "H1 Fe8 Ni8 Pt16"
_cell_length_a       5.2996677741023905
_cell_length_b       6.543733252808535
_cell_length_c       107.3143081665039
_cell_angle_alpha    91.29674486826353
_cell_angle_beta     91.60121974206297
_cell_angle_gamma    92.2829643131616

_space_group_name_H-M_alt    "P 1"
_space_group_IT_number       1

loop_
  _space_group_symop_operation_xyz
  'x, y, z'

loop_
  _atom_site_type_symbol
  _atom_site_label
  _atom_site_symmetry_multiplicity
  _atom_site_fract_x
  _atom_site_fract_y
  _atom_site_fract_z
  _atom_site_occupancy
  H   H1        1.0  0.0026079623663661164  0.008450375351900099  0.00014726023138697558  1.0000
  Fe  Fe1       1.0  9.223507664787756e-07  0.0015922644332384088  0.999534693802961  1.0000
  Fe  Fe2       1.0  0.005085177769961267  0.001549624317555263  0.9999580119411806  1.0000
  Fe  Fe3       1.0  1.903927265535262e-05  0.008242854299717342  0.9998252721113817  1.0000
  Fe  Fe4       1.0  0.0050009222691689585  0.004925597798866333  0.9996795733356982  1.0000
  Fe  Fe5       1.0  9.223757709612649e-07  0.008258931306970394  0.998955176394108  1.0000
  Fe  Fe6       1.0  0.005000922395109061  0.008258931306970394  0.9993898143538159  1.0000
  Fe  Fe7       1.0  9.223597064239451e-07  0.004925597798866333  0.9992449348207207  1.0000
  Fe  Fe8       1.0  0.005000922501955255  0.0015922644332384088  0.9991000556074344  1.0000
  Ni  Ni1       1.0  0.0025422407340059067  0.004929797425468521  0.9999003820562932  1.0000
  Ni  Ni2       1.0  0.007500922094097161  0.0015922644332384088  0.9997520128032757  1.0000
  Ni  Ni3       1.0  0.0025009224513653492  0.008258931306970394  0.999607133312906  1.0000
  Ni  Ni4       1.0  0.007566487518879318  0.00841475574784753  2.2053287967646098e-05  1.0000
  Ni  Ni5       1.0  0.0025009223824106414  0.0015922644332384088  0.9993173748439924  1.0000
  Ni  Ni6       1.0  0.0075009223388527715  0.008258931306970394  0.999172495394726  1.0000
  Ni  Ni7       1.0  0.002500922325425248  0.004925597798866333  0.9990276161393716  1.0000
  Ni  Ni8       1.0  0.007500922564514476  0.004925597798866333  0.9994622538216722  1.0000
  Pt  Pt1       1.0  0.007452617435285754  0.0048813156457089635  0.9999060536926124  1.0000
  Pt  Pt2       1.0  0.0025009223824106414  0.0015922644332384088  0.9997520130605559  1.0000
  Pt  Pt3       1.0  0.0075009223388527715  0.008258931306970394  0.9996071336112896  1.0000
  Pt  Pt4       1.0  0.0025134789169516804  0.008387386651912734  3.234400111834253e-05  1.0000
  Pt  Pt5       1.0  0.00999907740539118  0.001668747902979231  0.9999722593754211  1.0000
  Pt  Pt6       1.0  0.005002504482376975  0.008180438923703622  0.9998190277244796  1.0000
  Pt  Pt7       1.0  9.223597064239451e-07  0.004925597798866333  0.9996795730372843  1.0000
  Pt  Pt8       1.0  0.005000922501955255  0.0015922644332384088  0.9995346935462873  1.0000
  Pt  Pt9       1.0  0.007500922094097161  0.0015922644332384088  0.9993173745867122  1.0000
  Pt  Pt10      1.0  0.0025009224513653492  0.008258931306970394  0.999172495374053  1.0000
  Pt  Pt11      1.0  0.007500922564514476  0.004925597798866333  0.9990276161605299  1.0000
  Pt  Pt12      1.0  0.002500922325425248  0.004925597798866333  0.9994622540782246  1.0000
  Pt  Pt13      1.0  9.223757709612649e-07  0.008258931306970394  0.9993898146106716  1.0000
  Pt  Pt14      1.0  0.0050009222691689585  0.004925597798866333  0.9992449351191347  1.0000
  Pt  Pt15      1.0  9.223507664787756e-07  0.0015922644332384088  0.9991000558641081  1.0000
  Pt  Pt16      1.0  0.005000922395109061  0.008258931306970394  0.998955176414963  1.0000
