data_image0
_chemical_formula_structural       HV6Pt18V6Pt18
_chemical_formula_sum              "H1 V12 Pt36"
_cell_length_a       7.7995171546936035
_cell_length_b       11.139410425741763
_cell_length_c       105.4315414428711
_cell_angle_alpha    70.56127741276322
_cell_angle_beta     90.0
_cell_angle_gamma    90.0

_space_group_name_H-M_alt    "P 1"
_space_group_IT_number       1

loop_
  _space_group_symop_operation_xyz
  'x, y, z'

loop_
  _atom_site_type_symbol
  _atom_site_label
  _atom_site_symmetry_multiplicity
  _atom_site_fract_x
  _atom_site_fract_y
  _atom_site_fract_z
  _atom_site_occupancy
  H   H1        1.0  0.0012500000334341621  0.004953487462896192  0.9998547818260618  1.0000
  V   V1        1.0  0.0012499996752109968  0.007083333427903879  0.999174703385768  1.0000
  V   V2        1.0  0.0012499996752109968  0.0004396134885705064  0.9997045939836425  1.0000
  V   V3        1.0  0.0012499997946187186  0.003787568102141637  0.9994589657874811  1.0000
  V   V4        1.0  0.0037500004585256518  0.006973325658744378  0.999612792566773  1.0000
  V   V5        1.0  0.003749999742079321  0.0004166666696219962  0.9993147290002986  1.0000
  V   V6        1.0  0.003749999742079321  0.0037500000709279092  0.9990346774813132  1.0000
  Pt  Pt1       1.0  0.003749999742079321  0.007916666855807759  0.9993147289315646  1.0000
  Pt  Pt2       1.0  0.003749999742079321  0.0012499999645360451  0.99903467741156  1.0000
  Pt  Pt3       1.0  0.003749999742079321  0.004588599896116146  0.99959007820729  1.0000
  Pt  Pt4       1.0  0.001250000152841884  0.006258831234018524  0.9994464033453079  1.0000
  Pt  Pt5       1.0  0.0012499996752109968  0.009583333711615518  0.9991747031666164  1.0000
  Pt  Pt6       1.0  0.0012499999140264404  0.0029483464165063885  0.9997178350755347  1.0000
  Pt  Pt7       1.0  0.0012499999140264404  0.008820835986982856  0.9994469925272833  1.0000
  Pt  Pt8       1.0  0.0012499996752109968  0.0020833333924399245  0.9991747032400266  1.0000
  Pt  Pt9       1.0  0.0012500000334341621  0.005502230455786151  0.9997279938076128  1.0000
  Pt  Pt10      1.0  0.0012499999140264404  0.007867150663590172  0.9997233755880512  1.0000
  Pt  Pt11      1.0  0.0012500006304727712  0.0012904522791917714  0.9994544894187662  1.0000
  Pt  Pt12      1.0  0.0012499996752109968  0.004583333498831789  0.9991747030271099  1.0000
  Pt  Pt13      1.0  0.0037500002197102082  0.009541776340128946  0.9996040796977529  1.0000
  Pt  Pt14      1.0  0.003749999742079321  0.002916666820343804  0.999314729351163  1.0000
  Pt  Pt15      1.0  0.003749999742079321  0.0062499999999999995  0.9990346772746315  1.0000
  Pt  Pt16      1.0  0.003749999742079321  0.005416666926735668  0.9993147291382463  1.0000
  Pt  Pt17      1.0  0.003749999742079321  0.008750000283711638  0.9990346776208197  1.0000
  Pt  Pt18      1.0  0.0037499995032638776  0.001922004493084472  0.9996201079046018  1.0000
  V   V7        1.0  0.006249999808947645  0.007083333427903879  0.999174703385768  1.0000
  V   V8        1.0  0.006249999808947645  0.0004396134885705064  0.9997045939836425  1.0000
  V   V9        1.0  0.006249999808947645  0.003787568102141637  0.9994589657874811  1.0000
  V   V10       1.0  0.008750001069893187  0.006973325658744378  0.999612792566773  1.0000
  V   V11       1.0  0.008750000114631413  0.0004166666696219962  0.9993147290002986  1.0000
  V   V12       1.0  0.008750000114631413  0.0037500000709279092  0.9990346774813132  1.0000
  Pt  Pt19      1.0  0.008750000114631413  0.007916666855807759  0.9993147289315646  1.0000
  Pt  Pt20      1.0  0.008750000114631413  0.0012499999645360451  0.99903467741156  1.0000
  Pt  Pt21      1.0  0.008750000114631413  0.004588599896116146  0.99959007820729  1.0000
  Pt  Pt22      1.0  0.006250000286578532  0.006258831234018524  0.9994464033453079  1.0000
  Pt  Pt23      1.0  0.006249999808947645  0.009583333711615518  0.9991747031666164  1.0000
  Pt  Pt24      1.0  0.006249999808947645  0.0029483464165063885  0.9997178350755347  1.0000
  Pt  Pt25      1.0  0.006249999808947645  0.008820835986982856  0.9994469925272833  1.0000
  Pt  Pt26      1.0  0.006249999808947645  0.0020833333924399245  0.9991747032400266  1.0000
  Pt  Pt27      1.0  0.006250000286578532  0.005502230455786151  0.9997279938076128  1.0000
  Pt  Pt28      1.0  0.006249999808947645  0.007867150663590172  0.9997233755880512  1.0000
  Pt  Pt29      1.0  0.00625000076420942  0.0012904522791917714  0.9994544894187662  1.0000
  Pt  Pt30      1.0  0.006249999808947645  0.004583333498831789  0.9991747030271099  1.0000
  Pt  Pt31      1.0  0.008750000114631413  0.009541776340128946  0.9996040796977529  1.0000
  Pt  Pt32      1.0  0.008750000114631413  0.002916666820343804  0.999314729351163  1.0000
  Pt  Pt33      1.0  0.008750000114631413  0.0062499999999999995  0.9990346772746315  1.0000
  Pt  Pt34      1.0  0.008750000114631413  0.005416666926735668  0.9993147291382463  1.0000
  Pt  Pt35      1.0  0.008750000114631413  0.008750000283711638  0.9990346776208197  1.0000
  Pt  Pt36      1.0  0.008750000114631413  0.001922004493084472  0.9996201079046018  1.0000
