data_image0
_chemical_formula_structural       COCa8Cu8Ga4
_chemical_formula_sum              "C1 O1 Ca8 Cu8 Ga4"
_cell_length_a       5.783783896620825
_cell_length_b       9.798028883059834
_cell_length_c       101.60215759277344
_cell_angle_alpha    96.69587736629576
_cell_angle_beta     90.0228711238585
_cell_angle_gamma    97.17652801825115

_space_group_name_H-M_alt    "P 1"
_space_group_IT_number       1

loop_
  _space_group_symop_operation_xyz
  'x, y, z'

loop_
  _atom_site_type_symbol
  _atom_site_label
  _atom_site_symmetry_multiplicity
  _atom_site_fract_x
  _atom_site_fract_y
  _atom_site_fract_z
  _atom_site_occupancy
  C   C1        1.0  0.0020592108996222267  0.0025980563467772485  8.6690501088166e-05  1.0000
  O   O1        1.0  0.0020592108996222267  0.0025980563467772485  0.00020479846850743842  1.0000
  Ca  Ca1       1.0  0.0059835858099822345  0.0060817376617574494  0.9994455398725205  1.0000
  Ca  Ca2       1.0  0.009733585660112277  0.0017067376231687987  0.9996399387377831  1.0000
  Ca  Ca3       1.0  0.007624504372131832  0.0026621133139365163  0.9993273583232304  1.0000
  Ca  Ca4       1.0  0.0013745044673724451  0.008287113391113817  0.999521757363457  1.0000
  Ca  Ca5       1.0  0.0034006268009265147  0.007290723560044434  0.9998592263938629  1.0000
  Ca  Ca6       1.0  0.007287510281678829  0.00314801716540491  3.048065554524411e-05  1.0000
  Ca  Ca7       1.0  0.005124504318094991  0.0039121135454684205  0.9997161562308892  1.0000
  Ca  Ca8       1.0  0.008772034051001364  0.009524152852547147  0.9999234984473443  1.0000
  Cu  Cu1       1.0  0.004578538011446086  0.0011350170503181187  0.9995302779924414  1.0000
  Cu  Cu2       1.0  0.000828538080804508  0.005510017088906769  0.999335879127177  1.0000
  Cu  Cu3       1.0  0.0027795521431755567  0.0032338338867871964  0.999437019160101  1.0000
  Cu  Cu4       1.0  0.00652955215747941  0.008858834349851004  0.9996314181131387  1.0000
  Cu  Cu5       1.0  0.002013365446420703  0.0023871170832759133  0.9999150264034136  1.0000
  Cu  Cu6       1.0  0.008328538064228197  0.006760016934552166  0.9997246769389715  1.0000
  Cu  Cu7       1.0  0.0002664142055783329  0.00442456503799099  0.9998281070341695  1.0000
  Cu  Cu8       1.0  0.0038855784027659835  0.0004758478420485646  5.4388598396103984e-06  1.0000
  Ga  Ga1       1.0  0.0005540451648906447  0.004996925410669682  0.9995808480953007  1.0000
  Ga  Ga2       1.0  0.006804045153904809  0.009371926028088092  0.9993864491450168  1.0000
  Ga  Ga3       1.0  0.008053186490588218  0.006192417629592419  0.999952589554414  1.0000
  Ga  Ga4       1.0  0.004417591242849479  0.0006194588337663906  0.9997684956001528  1.0000
