data_image0
_chemical_formula_structural       COGa12Ir6Ga12Ir6
_chemical_formula_sum              "C1 O1 Ga24 Ir12"
_cell_length_a       7.914346694946289
_cell_length_b       6.893231868849202
_cell_length_c       36.812252044677734
_cell_angle_alpha    90.0
_cell_angle_beta     90.0
_cell_angle_gamma    106.68042348778803

_space_group_name_H-M_alt    "P 1"
_space_group_IT_number       1

loop_
  _space_group_symop_operation_xyz
  'x, y, z'

loop_
  _atom_site_type_symbol
  _atom_site_label
  _atom_site_symmetry_multiplicity
  _atom_site_fract_x
  _atom_site_fract_y
  _atom_site_fract_z
  _atom_site_occupancy
  C   C1        1.0  0.003288680842876474  0.0031558062848786117  0.0003556354818094839  1.0000
  O   O1        1.0  0.003288680842876474  0.0031558062848786117  0.0006816137594168606  1.0000
  Ga  Ga1       1.0  0.0022296097991096166  0.008919987546441327  0.9985559771831899  1.0000
  Ga  Ga2       1.0  0.002817218601778245  0.0012704223729981456  0.9991921834338227  1.0000
  Ga  Ga3       1.0  0.0027925053001877096  0.0011574641427614498  0.0  1.0000
  Ga  Ga4       1.0  0.0022296097991096166  0.008919987546441327  0.9976896153059793  1.0000
  Ga  Ga5       1.0  0.004130974363142339  0.006525445418454519  0.9988210644027825  1.0000
  Ga  Ga6       1.0  0.0009158541582553936  0.003664964783068475  0.99892709621423  1.0000
  Ga  Ga7       1.0  0.001192145446459251  0.004770129935883905  0.9981227964469787  1.0000
  Ga  Ga8       1.0  0.0037848563503047983  0.005154148285954013  0.9997702519950289  1.0000
  Ga  Ga9       1.0  0.000225437259535554  0.0009032970882111366  0.9981227964469787  1.0000
  Ga  Ga10      1.0  0.004774562896527026  0.009096703281318275  0.9995897841064989  1.0000
  Ga  Ga11      1.0  0.004130974363142339  0.006525445418454519  0.9974245284911749  1.0000
  Ga  Ga12      1.0  0.0009158541582553936  0.003664964783068475  0.9973184964773333  1.0000
  Ir  Ir1       1.0  0.0032248885267247116  0.0029011020727840115  0.9985050091004135  1.0000
  Ir  Ir2       1.0  0.0018219398991576453  0.007289307846655462  0.9992431519213872  1.0000
  Ir  Ir3       1.0  0.0018530848174232951  0.007426758119618433  0.9999684394821987  1.0000
  Ir  Ir4       1.0  0.0032248885267247116  0.0029011020727840115  0.9977405837935439  1.0000
  Ir  Ir5       1.0  0.0007208926285962218  0.002893332364289934  0.9996155933951174  1.0000
  Ir  Ir6       1.0  0.004279993868581414  0.007121523440210822  0.9981227964469787  1.0000
  Ga  Ga13      1.0  0.007229609819826892  0.008919987546441327  0.9985559771831899  1.0000
  Ga  Ga14      1.0  0.007817218921854873  0.0012704223729981456  0.9991921834338227  1.0000
  Ga  Ga15      1.0  0.007792505384913875  0.0011574641427614498  0.0  1.0000
  Ga  Ga16      1.0  0.007229609819826892  0.008919987546441327  0.9976896153059793  1.0000
  Ga  Ga17      1.0  0.009130974683218966  0.006525445418454519  0.9988210644027825  1.0000
  Ga  Ga18      1.0  0.0059158541289836795  0.003664964783068475  0.99892709621423  1.0000
  Ga  Ga19      1.0  0.006192145417187537  0.004770129935883905  0.9981227964469787  1.0000
  Ga  Ga20      1.0  0.008784856435030965  0.005154148285954013  0.9997702519950289  1.0000
  Ga  Ga21      1.0  0.005225437205269345  0.0009032970882111366  0.9981227964469787  1.0000
  Ga  Ga22      1.0  0.009774562981253192  0.009096703281318275  0.9995897841064989  1.0000
  Ga  Ga23      1.0  0.009130974683218966  0.006525445418454519  0.9974245284911749  1.0000
  Ga  Ga24      1.0  0.0059158541289836795  0.003664964783068475  0.9973184964773333  1.0000
  Ir  Ir7       1.0  0.008224888846801339  0.0029011020727840115  0.9985050091004135  1.0000
  Ir  Ir8       1.0  0.006821939894880427  0.007289307846655462  0.9992431519213872  1.0000
  Ir  Ir9       1.0  0.006853084751607906  0.007426758119618433  0.9999684394821987  1.0000
  Ir  Ir10      1.0  0.008224888846801339  0.0029011020727840115  0.9977405837935439  1.0000
  Ir  Ir11      1.0  0.005720892826860599  0.002893332364289934  0.9996155933951174  1.0000
  Ir  Ir12      1.0  0.009279994188658042  0.007121523440210822  0.9981227964469787  1.0000
