data_image0
_chemical_formula_structural       HAl8Cu8Se16
_chemical_formula_sum              "H1 Al8 Cu8 Se16"
_cell_length_a       12.633833523656968
_cell_length_b       8.072220802307129
_cell_length_c       102.28888702392578
_cell_angle_alpha    90.0
_cell_angle_beta     71.36922183964796
_cell_angle_gamma    71.36922183964796

_space_group_name_H-M_alt    "P 1"
_space_group_IT_number       1

loop_
  _space_group_symop_operation_xyz
  'x, y, z'

loop_
  _atom_site_type_symbol
  _atom_site_label
  _atom_site_symmetry_multiplicity
  _atom_site_fract_x
  _atom_site_fract_y
  _atom_site_fract_z
  _atom_site_occupancy
  H   H1        1.0  0.009542205582496587  0.008461909987838835  0.9997994394341622  1.0000
  Al  Al1       1.0  0.006241845213406142  0.0012714732478098106  0.999404316124873  1.0000
  Al  Al2       1.0  0.005457794629037897  0.007208412859627001  0.9991991581589755  1.0000
  Al  Al3       1.0  0.0029983843154710228  0.0009131248450610454  0.9994973059582085  1.0000
  Al  Al4       1.0  0.0029577948141305713  0.005958412619402234  0.9991005129587203  1.0000
  Al  Al5       1.0  0.00045779466870061303  0.004708412544438783  0.9993964479372968  1.0000
  Al  Al6       1.0  0.00045779466870061303  0.009708412839795642  0.9990018680628614  1.0000
  Al  Al7       1.0  0.007957795104990487  0.0034584124739722756  0.9992978027504382  1.0000
  Al  Al8       1.0  0.008450034528773936  0.008379929304375594  0.9995908244218037  1.0000
  Cu  Cu1       1.0  0.005457794629037897  0.0022084125642701405  0.9991991581589755  1.0000
  Cu  Cu2       1.0  0.005931250451626124  0.006723529806353072  0.9995116900464986  1.0000
  Cu  Cu3       1.0  0.002712433982202673  0.00641069836948745  0.9995239363608618  1.0000
  Cu  Cu4       1.0  0.0029577948141305713  0.0009584125547929203  0.9991005129587203  1.0000
  Cu  Cu5       1.0  0.00045779466870061303  0.004708412544438783  0.9990018680628614  1.0000
  Cu  Cu6       1.0  0.00045779466870061303  0.009708412839795642  0.9993964479372968  1.0000
  Cu  Cu7       1.0  0.007957795104990487  0.008458412769329135  0.9992978027504382  1.0000
  Cu  Cu8       1.0  0.008414312303717152  0.003117838890576526  0.9995957750697688  1.0000
  Se  Se1       1.0  0.004207794721584234  0.002842609192231469  0.9990504650448208  1.0000
  Se  Se2       1.0  0.004207794721584234  0.00784260948758833  0.9994450446279017  1.0000
  Se  Se3       1.0  0.006707794867014193  0.009074216214082787  0.9991491096493252  1.0000
  Se  Se4       1.0  0.006665815187482167  0.003657427358807474  0.999531993473033  1.0000
  Se  Se5       1.0  0.006707794867014193  0.00409260926719492  0.9991505611771936  1.0000
  Se  Se6       1.0  0.006534750403903945  0.00906152346134558  0.9995689337279783  1.0000
  Se  Se7       1.0  0.004207794721584234  0.002824216305257569  0.9994464961557701  1.0000
  Se  Se8       1.0  0.004207794721584234  0.007824216139119334  0.9990519162813346  1.0000
  Se  Se9       1.0  0.009207794681921518  0.0003426092120628265  0.9992477548495804  1.0000
  Se  Se10      1.0  0.009216004864108554  0.005378324982012531  0.9996363552857858  1.0000
  Se  Se11      1.0  0.001707794741415592  0.00657421644302032  0.9993463994341675  1.0000
  Se  Se12      1.0  0.0019151732345268446  0.0008319510630061606  0.9997398155971984  1.0000
  Se  Se13      1.0  0.001707794741415592  0.0015926090346373599  0.9993478509620357  1.0000
  Se  Se14      1.0  0.0016705580616574792  0.008025799663226094  0.9997460995544826  1.0000
  Se  Se15      1.0  0.009259070641010411  0.0002915876178596071  0.9996556585751166  1.0000
  Se  Se16      1.0  0.009207794681921518  0.0053242161589506926  0.9992492063774487  1.0000
