data_image0
_chemical_formula_structural       HIn8Ni16In8Ni16
_chemical_formula_sum              "H1 In16 Ni32"
_cell_length_a       7.556652545928955
_cell_length_b       6.86479659357268
_cell_length_c       104.32398223876953
_cell_angle_alpha    78.91971091321007
_cell_angle_beta     90.0
_cell_angle_gamma    90.0

_space_group_name_H-M_alt    "P 1"
_space_group_IT_number       1

loop_
  _space_group_symop_operation_xyz
  'x, y, z'

loop_
  _atom_site_type_symbol
  _atom_site_label
  _atom_site_symmetry_multiplicity
  _atom_site_fract_x
  _atom_site_fract_y
  _atom_site_fract_z
  _atom_site_occupancy
  H   H1        1.0  0.005492876862231896  0.002493496595963634  1.682785274534302e-05  1.0000
  In  In1       1.0  0.0033412667671307854  0.004347195511618149  0.998877584257025  1.0000
  In  In2       1.0  0.0033412667671307854  0.009347196031413587  0.9992065974091738  1.0000
  In  In3       1.0  0.008341266589657427  0.0018471953899638976  0.9990420908150709  1.0000
  In  In4       1.0  0.008341266589657427  0.0068471956332724  0.9987130774133082  1.0000
  In  In5       1.0  0.0016746001596219052  0.004347195511618149  0.9992065976785645  1.0000
  In  In6       1.0  0.0016746001596219052  0.009347196031413587  0.9988775839876344  1.0000
  In  In7       1.0  0.006674599982148546  0.0018471953899638976  0.9987130773935314  1.0000
  In  In8       1.0  0.006674599982148546  0.0068471956332724  0.9990420908348476  1.0000
  Ni  Ni1       1.0  7.933450050437732e-06  0.0055971954342018074  0.9989598375476846  1.0000
  Ni  Ni2       1.0  7.933450050437732e-06  0.0005971953982585056  0.999288850661154  1.0000
  Ni  Ni3       1.0  0.005007933374639666  0.003097195589034491  0.9991243443879049  1.0000
  Ni  Ni4       1.0  0.005007933374639666  0.008097195832342995  0.9987953307004712  1.0000
  Ni  Ni5       1.0  7.933450050437732e-06  0.003097195589034491  0.9987953306806945  1.0000
  Ni  Ni6       1.0  7.933450050437732e-06  0.008097195832342995  0.9991243441220108  1.0000
  Ni  Ni7       1.0  0.005007933374639666  0.0005971953982585056  0.9989598375252855  1.0000
  Ni  Ni8       1.0  0.005007933374639666  0.0055971954342018074  0.999288850969224  1.0000
  Ni  Ni9       1.0  0.0033412667671307854  0.0018471953899638976  0.9987130773935314  1.0000
  Ni  Ni10      1.0  0.0033412667671307854  0.0068471956332724  0.9990420908348476  1.0000
  Ni  Ni11      1.0  0.008341266589657427  0.009347196031413587  0.9988775839876344  1.0000
  Ni  Ni12      1.0  0.008341266589657427  0.004347195511618149  0.9992065976785645  1.0000
  Ni  Ni13      1.0  0.0016746001596219052  0.0068471956332724  0.9987130774133082  1.0000
  Ni  Ni14      1.0  0.0016746001596219052  0.0018471953899638976  0.9990420908150709  1.0000
  Ni  Ni15      1.0  0.006674599982148546  0.004347195511618149  0.998877584257025  1.0000
  Ni  Ni16      1.0  0.006674599982148546  0.009347196031413587  0.9992065974091738  1.0000
  In  In9       1.0  0.0033412667671307854  0.004347195511618149  0.9995356111001039  1.0000
  In  In10      1.0  0.003655941574965788  0.009402805295723701  0.9998810898229542  1.0000
  In  In11      1.0  0.008198037208543785  0.0017765442686726802  0.9997033253492095  1.0000
  In  In12      1.0  0.008341266589657427  0.0068471956332724  0.9993711042563871  1.0000
  In  In13      1.0  0.001363192710266807  0.004402936660196371  0.9998810341470395  1.0000
  In  In14      1.0  0.0016746001596219052  0.009347196031413587  0.9995356108307133  1.0000
  In  In15      1.0  0.006674599982148546  0.0018471953899638976  0.9993711039509395  1.0000
  In  In16      1.0  0.00681565925847119  0.006777324619868951  0.999703101536072  1.0000
  Ni  Ni17      1.0  7.933450050437732e-06  0.0055971954342018074  0.9996178643907635  1.0000
  Ni  Ni18      1.0  0.00999206658592181  0.0007737214542943827  0.9999143600012991  1.0000
  Ni  Ni19      1.0  0.004870237711444915  0.0032297434257865533  0.9997736149318484  1.0000
  Ni  Ni20      1.0  0.005007933374639666  0.008097195832342995  0.9994533575435502  1.0000
  Ni  Ni21      1.0  7.933450050437732e-06  0.003097195589034491  0.9994533572381026  1.0000
  Ni  Ni22      1.0  0.00014518975306569847  0.008229119361595294  0.99977378425081  1.0000
  Ni  Ni23      1.0  0.005007933374639666  0.0005971953982585056  0.9996178640826936  1.0000
  Ni  Ni24      1.0  0.005022857405157133  0.0057752015939237355  0.9999143564465006  1.0000
  Ni  Ni25      1.0  0.0033412667671307854  0.0018471953899638976  0.9993711039509395  1.0000
  Ni  Ni26      1.0  0.003260900175084962  0.00676690106241056  0.9997129427363364  1.0000
  Ni  Ni27      1.0  0.008341266589657427  0.009347196031413587  0.9995356108307133  1.0000
  Ni  Ni28      1.0  0.007799831360081992  0.0037848116847926487  0.9998912798804663  1.0000
  Ni  Ni29      1.0  0.0016746001596219052  0.0068471956332724  0.9993711042563871  1.0000
  Ni  Ni30      1.0  0.0017530051780731398  0.0017656143253924044  0.9997129564148362  1.0000
  Ni  Ni31      1.0  0.006674599982148546  0.004347195511618149  0.9995356111001039  1.0000
  Ni  Ni32      1.0  0.007220204849689057  0.008772187258151348  0.999891529541232  1.0000
