data_image0
_chemical_formula_structural       COCr6Ru6V12
_chemical_formula_sum              "C1 O1 Cr6 Ru6 V12"
_cell_length_a       5.9278082847595215
_cell_length_b       7.260053104663322
_cell_length_c       101.92222595214844
_cell_angle_alpha    94.34775318845351
_cell_angle_beta     90.0
_cell_angle_gamma    114.09484146043427

_space_group_name_H-M_alt    "P 1"
_space_group_IT_number       1

loop_
  _space_group_symop_operation_xyz
  'x, y, z'

loop_
  _atom_site_type_symbol
  _atom_site_label
  _atom_site_symmetry_multiplicity
  _atom_site_fract_x
  _atom_site_fract_y
  _atom_site_fract_z
  _atom_site_occupancy
  C   C1        1.0  0.008813909675514932  0.0022430744104494117  0.00017839851356122254  1.0000
  O   O1        1.0  0.008813909675514932  0.0022430744104494117  0.00029613558422065823  1.0000
  Cr  Cr1       1.0  0.00696825606255795  0.0035500700110614176  0.9997652012995161  1.0000
  Cr  Cr2       1.0  0.0028036007761088303  0.005221281548702401  0.9995061026649162  1.0000
  Cr  Cr3       1.0  0.0012227213741421916  0.0020626140171698527  5.007082837369816e-06  1.0000
  Cr  Cr4       1.0  0.009886934248010425  0.009387947989751096  0.999636603443477  1.0000
  Cr  Cr5       1.0  0.00572026759544488  0.0010546146846200093  0.9993756018840709  1.0000
  Cr  Cr6       1.0  0.003984904606670194  0.007584002015364115  0.9998900384410226  1.0000
  Ru  Ru1       1.0  0.001970159661569856  0.003552541091891348  0.9997615438213716  1.0000
  Ru  Ru2       1.0  0.007803601027486075  0.005221281548702401  0.9995061026649162  1.0000
  Ru  Ru3       1.0  0.006187311741598152  0.001987962670938102  1.073506064385763e-05  1.0000
  Ru  Ru4       1.0  0.0048869339573554835  0.009387947989751096  0.999636603443477  1.0000
  Ru  Ru5       1.0  0.0007202674029841762  0.0010546146846200093  0.9993756018840709  1.0000
  Ru  Ru6       1.0  0.009014471508857064  0.00764581908330227  0.9998932261043587  1.0000
  V   V1        1.0  0.001761933735573772  0.00813794771900953  0.9994408522664983  1.0000
  V   V2        1.0  0.00011306588398727818  0.004731910528648537  0.9999581905117272  1.0000
  V   V3        1.0  0.005928600755145772  0.0064712812553990385  0.9997018538388492  1.0000
  V   V4        1.0  0.005003174807879273  0.0047314350387741635  0.9999582247867927  1.0000
  V   V5        1.0  0.000928600503768526  0.0064712812553990385  0.9997018538388492  1.0000
  V   V6        1.0  0.006761933986951018  0.00813794771900953  0.9994408522664983  1.0000
  V   V7        1.0  0.008845267401271497  0.0023046146733391106  0.9995713530595269  1.0000
  V   V8        1.0  0.00467860076642667  0.003971281277960835  0.9993103514879373  1.0000
  V   V9        1.0  0.002957542777842448  0.0006120519200017155  0.9998369748127922  1.0000
  V   V10       1.0  0.009678600703582358  0.003971281277960835  0.9993103514879373  1.0000
  V   V11       1.0  0.008040410450393116  0.0006126187146488226  0.9998369398611648  1.0000
  V   V12       1.0  0.003845267464115808  0.0023046146733391106  0.9995713530595269  1.0000
