data_image0
_chemical_formula_structural       HSi12V20
_chemical_formula_sum              "H1 Si12 V20"
_cell_length_a       4.744046688079834
_cell_length_b       7.079945706893938
_cell_length_c       110.02460479736328
_cell_angle_alpha    90.0
_cell_angle_beta     90.0
_cell_angle_gamma    109.5746124716462

_space_group_name_H-M_alt    "P 1"
_space_group_IT_number       1

loop_
  _space_group_symop_operation_xyz
  'x, y, z'

loop_
  _atom_site_type_symbol
  _atom_site_label
  _atom_site_symmetry_multiplicity
  _atom_site_fract_x
  _atom_site_fract_y
  _atom_site_fract_z
  _atom_site_occupancy
  H   H1        1.0  0.0028757115283966623  0.0050000679522013945  0.00011197749901273443  1.0000
  Si  Si1       1.0  0.009534638771407283  0.00831790343306852  0.9996216579890155  1.0000
  Si  Si2       1.0  0.00453463852012542  0.00831790343306852  0.9990153602357857  1.0000
  Si  Si3       1.0  0.007875842949622324  0.009999966135589313  0.9999346451209318  1.0000
  Si  Si4       1.0  0.0028757041042327867  3.4350001390577914e-08  0.9993185093832702  1.0000
  Si  Si5       1.0  0.007875754031945579  0.005000135524656758  3.7593452184275244e-05  1.0000
  Si  Si6       1.0  0.0028757040261905265  0.005000034445198734  0.9994204966691271  1.0000
  Si  Si7       1.0  0.0012167694624493782  0.0016821653177164374  0.9990153602357857  1.0000
  Si  Si8       1.0  0.006216769713731242  0.0016821653177164374  0.9996216579890155  1.0000
  Si  Si9       1.0  0.007875704355514651  3.4350001390577914e-08  0.9993185093832702  1.0000
  Si  Si10      1.0  0.0028754864494932694  0.009999963901789135  0.9999346402452787  1.0000
  Si  Si11      1.0  0.002875738474248888  0.005000097550053744  0.999813392504548  1.0000
  Si  Si12      1.0  0.007875704277472391  0.005000034445198734  0.9992165220974132  1.0000
  V   V1        1.0  0.004624296278617381  0.008497218950052442  0.9997430465819461  1.0000
  V   V2        1.0  0.009624296529899245  0.008497218950052442  0.9991367488287164  1.0000
  V   V3        1.0  0.00037570390054959455  0.005000034445198734  0.9990153602357857  1.0000
  V   V4        1.0  0.005375704151831459  0.005000034445198734  0.9996216579890155  1.0000
  V   V5        1.0  0.001973474194802445  0.0031951599219542386  0.0  1.0000
  V   V6        1.0  0.006874641945771364  0.0029979097817966803  0.9994096245045037  1.0000
  V   V7        1.0  0.008907928573709372  0.007064442204369771  0.9998369500350007  1.0000
  V   V8        1.0  0.003876766169200553  0.0070021588293757665  0.9992273937202976  1.0000
  V   V9        1.0  0.005375704151831459  0.005000034445198734  0.9990153602357857  1.0000
  V   V10       1.0  0.00037570390054959455  0.005000034445198734  0.9996216579890155  1.0000
  V   V11       1.0  0.006843464300262941  0.002935577263198775  0.9998369500350007  1.0000
  V   V12       1.0  0.0018746417435679887  0.0029979097817966803  0.9992273937202976  1.0000
  V   V13       1.0  0.006127112164658048  0.0015028502195700481  0.9988939719137246  1.0000
  V   V14       1.0  0.0011271119133761836  0.0015028502195700481  0.9995002699378239  1.0000
  V   V15       1.0  0.004624296278617381  0.008497218950052442  0.9995002699378239  1.0000
  V   V16       1.0  0.009624296529899245  0.008497218950052442  0.9988939719137246  1.0000
  V   V17       1.0  0.003777948697839123  0.006804975703223528  0.9999999956660861  1.0000
  V   V18       1.0  0.008876766469560907  0.0070021588293757665  0.9994096245045037  1.0000
  V   V19       1.0  0.006127112164658048  0.0015028502195700481  0.9991367488287164  1.0000
  V   V20       1.0  0.0011271119133761836  0.0015028502195700481  0.9997430465819461  1.0000
