data_image0
_chemical_formula_structural       COAu12Cu6Zn6
_chemical_formula_sum              "C1 O1 Au12 Cu6 Zn6"
_cell_length_a       6.353445529937744
_cell_length_b       7.781350172007666
_cell_length_c       104.21435546875
_cell_angle_alpha    94.34775318980036
_cell_angle_beta     90.0
_cell_angle_gamma    114.0948414208222

_space_group_name_H-M_alt    "P 1"
_space_group_IT_number       1

loop_
  _space_group_symop_operation_xyz
  'x, y, z'

loop_
  _atom_site_type_symbol
  _atom_site_label
  _atom_site_symmetry_multiplicity
  _atom_site_fract_x
  _atom_site_fract_y
  _atom_site_fract_z
  _atom_site_occupancy
  C   C1        1.0  0.00021875399505222635  0.00037511128878696723  0.00013654929933070863  1.0000
  O   O1        1.0  0.00021875399505222635  0.00037511128878696723  0.00025169681681733196  1.0000
  Au  Au1       1.0  0.0017178080487024342  0.008374888542810542  0.9994277333245795  1.0000
  Au  Au2       1.0  0.0001571917876358817  0.005198203923427791  0.999975900179527  1.0000
  Au  Au3       1.0  0.005884474783616706  0.006708221707741382  0.9997013227811883  1.0000
  Au  Au4       1.0  0.005104911460505178  0.005198007103015038  0.9999759328100523  1.0000
  Au  Au5       1.0  0.0008844746311678543  0.006708221707741382  0.9997013227811883  1.0000
  Au  Au6       1.0  0.006717808201151286  0.008374888542810542  0.9994277333245795  1.0000
  Au  Au7       1.0  0.008801141655358002  0.0025415551463262727  0.9995645279843699  1.0000
  Au  Au8       1.0  0.004634474920443731  0.004208221981395432  0.9992909385277611  1.0000
  Au  Au9       1.0  0.0028348845347515666  0.0006335966156841594  0.9998385031902967  1.0000
  Au  Au10      1.0  0.009634475072892583  0.004208221981395432  0.9992909385277611  1.0000
  Au  Au11      1.0  0.007864463463981602  0.0006359018879249755  0.999838466480211  1.0000
  Au  Au12      1.0  0.0038011415029091515  0.0025415551463262727  0.9995645279843699  1.0000
  Cu  Cu1       1.0  0.006892986998523213  0.003728029642509801  0.9997664723595133  1.0000
  Cu  Cu2       1.0  0.0027594749554685854  0.005458222107697301  0.9994961305129785  1.0000
  Cu  Cu3       1.0  0.001198298388202717  0.0023316140743999516  1.128374824344181e-05  1.0000
  Cu  Cu4       1.0  0.00984280848711208  0.00962488866911241  0.9996329253097969  1.0000
  Cu  Cu5       1.0  0.0056761417941325245  0.0012915552831532977  0.9993593357146706  1.0000
  Cu  Cu6       1.0  0.004011584319116263  0.007952333535652088  0.9999122729281055  1.0000
  Zn  Zn1       1.0  0.001884294563931512  0.0037095606254360786  0.999770179814535  1.0000
  Zn  Zn2       1.0  0.007759475206404526  0.005458222107697301  0.9994961305129785  1.0000
  Zn  Zn3       1.0  0.006205314553314124  0.0023461974670951637  1.3280589532430888e-05  1.0000
  Zn  Zn4       1.0  0.0048428081857873955  0.00962488866911241  0.9996329253097969  1.0000
  Zn  Zn5       1.0  0.0006761415935853268  0.0012915552831532977  0.9993593357146706  1.0000
  Zn  Zn6       1.0  0.009036013837996815  0.008012216409361131  0.9999282613910011  1.0000
