data_image0
_chemical_formula_structural       COZn3Ag9Zn3Ag9Zn3Ag9Zn3Ag9
_chemical_formula_sum              "C1 O1 Zn12 Ag36"
_cell_length_a       9.269840382977945
_cell_length_b       8.291197776794434
_cell_length_c       105.17657470703125
_cell_angle_alpha    90.0
_cell_angle_beta     108.4349492889269
_cell_angle_gamma    90.0

_space_group_name_H-M_alt    "P 1"
_space_group_IT_number       1

loop_
  _space_group_symop_operation_xyz
  'x, y, z'

loop_
  _atom_site_type_symbol
  _atom_site_label
  _atom_site_symmetry_multiplicity
  _atom_site_fract_x
  _atom_site_fract_y
  _atom_site_fract_z
  _atom_site_occupancy
  C   C1        1.0  0.006392977744011247  0.004999999424887488  0.00020220974895289605  1.0000
  O   O1        1.0  0.006392977744011247  0.004999999424887488  0.0003163038269557314  1.0000
  Zn  Zn1       1.0  0.007542707620877126  0.009999999748388276  0.9998066347552362  1.0000
  Zn  Zn2       1.0  0.004113038804637337  9.999999272091759e-11  0.9999863921207479  1.0000
  Zn  Zn3       1.0  0.0008333333643980959  9.999999272091759e-11  0.9996171671971481  1.0000
  Ag  Ag1       1.0  0.005774182077454796  0.002499999038483769  0.9999064920428236  1.0000
  Ag  Ag2       1.0  0.0026152206387974313  0.0025000008357103694  7.288893063091892e-05  1.0000
  Ag  Ag3       1.0  0.009166666372963457  0.002499999937097069  0.9997100707035487  1.0000
  Ag  Ag4       1.0  0.009152967659914892  0.002499999263137094  0.9999903493324822  1.0000
  Ag  Ag5       1.0  0.005833333338981472  0.002499999937097069  0.9996171672304424  1.0000
  Ag  Ag6       1.0  0.002460901912490469  0.002499999263137094  0.999797968452697  1.0000
  Ag  Ag7       1.0  0.0074272636207890685  0.009999998849774976  7.085118582299675e-05  1.0000
  Ag  Ag8       1.0  0.00416666661018528  9.999999272091759e-11  0.9997100706761577  1.0000
  Ag  Ag9       1.0  0.000839527978101064  9.999999272091759e-11  0.9999043100259927  1.0000
  Zn  Zn4       1.0  0.007500000067777664  9.999999272091759e-11  0.9992455534083835  1.0000
  Zn  Zn5       1.0  0.00416666661018528  9.999999272091759e-11  0.9994313602998143  1.0000
  Zn  Zn6       1.0  0.0008333333643980959  9.999999272091759e-11  0.9990597464444612  1.0000
  Ag  Ag10      1.0  0.005833333338981472  0.002499999937097069  0.9993384568540989  1.0000
  Ag  Ag11      1.0  0.0025000000931942874  0.002499999937097069  0.9995242637514328  1.0000
  Ag  Ag12      1.0  0.009166666372963457  0.002499999937097069  0.9991526499508617  1.0000
  Ag  Ag13      1.0  0.009166666372963457  0.002499999937097069  0.9994313603272053  1.0000
  Ag  Ag14      1.0  0.005833333338981472  0.002499999937097069  0.9990597464777554  1.0000
  Ag  Ag15      1.0  0.0025000000931942874  0.002499999937097069  0.9992455533750894  1.0000
  Ag  Ag16      1.0  0.007500000067777664  9.999999272091759e-11  0.999524263784727  1.0000
  Ag  Ag17      1.0  0.00416666661018528  9.999999272091759e-11  0.9991526499234707  1.0000
  Ag  Ag18      1.0  0.0008333333643980959  9.999999272091759e-11  0.9993384568208047  1.0000
  Zn  Zn7       1.0  0.007542707620877126  0.004999999424887488  0.9998066347552362  1.0000
  Zn  Zn8       1.0  0.004113038804637337  0.004999999874194138  0.9999863921207479  1.0000
  Zn  Zn9       1.0  0.0008333333643980959  0.004999999874194138  0.9996171671971481  1.0000
  Ag  Ag19      1.0  0.005774182077454796  0.007499998688024582  0.9999064920428236  1.0000
  Ag  Ag20      1.0  0.0026152206387974313  0.007500000485251183  7.288893063091892e-05  1.0000
  Ag  Ag21      1.0  0.009166666372963457  0.007499999586637882  0.9997100707035487  1.0000
  Ag  Ag22      1.0  0.009152967659914892  0.007499999137331232  0.9999903493324822  1.0000
  Ag  Ag23      1.0  0.005833333338981472  0.007499999586637882  0.9996171672304424  1.0000
  Ag  Ag24      1.0  0.002460901912490469  0.007499999137331232  0.999797968452697  1.0000
  Ag  Ag25      1.0  0.0074272636207890685  0.004999998526274188  7.085118582299675e-05  1.0000
  Ag  Ag26      1.0  0.00416666661018528  0.004999999874194138  0.9997100706761577  1.0000
  Ag  Ag27      1.0  0.000839527978101064  0.004999999874194138  0.9999043100259927  1.0000
  Zn  Zn10      1.0  0.007500000067777664  0.004999999874194138  0.9992455534083835  1.0000
  Zn  Zn11      1.0  0.00416666661018528  0.004999999874194138  0.9994313602998143  1.0000
  Zn  Zn12      1.0  0.0008333333643980959  0.004999999874194138  0.9990597464444612  1.0000
  Ag  Ag28      1.0  0.005833333338981472  0.007499999586637882  0.9993384568540989  1.0000
  Ag  Ag29      1.0  0.0025000000931942874  0.007499999586637882  0.9995242637514328  1.0000
  Ag  Ag30      1.0  0.009166666372963457  0.007499999586637882  0.9991526499508617  1.0000
  Ag  Ag31      1.0  0.009166666372963457  0.007499999586637882  0.9994313603272053  1.0000
  Ag  Ag32      1.0  0.005833333338981472  0.007499999586637882  0.9990597464777554  1.0000
  Ag  Ag33      1.0  0.0025000000931942874  0.007499999586637882  0.9992455533750894  1.0000
  Ag  Ag34      1.0  0.007500000067777664  0.004999999874194138  0.999524263784727  1.0000
  Ag  Ag35      1.0  0.00416666661018528  0.004999999874194138  0.9991526499234707  1.0000
  Ag  Ag36      1.0  0.0008333333643980959  0.004999999874194138  0.9993384568208047  1.0000
