data_image0
_chemical_formula_structural       HMn4Ru4Ti8Mn4Ru4Ti8Mn4Ru4Ti8Mn4Ru4Ti8
_chemical_formula_sum              "H1 Mn16 Ru16 Ti32"
_cell_length_a       8.608682632446289
_cell_length_b       8.608682632446289
_cell_length_c       106.52354431152344
_cell_angle_alpha    90.0
_cell_angle_beta     90.0
_cell_angle_gamma    90.0

_space_group_name_H-M_alt    "P 1"
_space_group_IT_number       1

loop_
  _space_group_symop_operation_xyz
  'x, y, z'

loop_
  _atom_site_type_symbol
  _atom_site_label
  _atom_site_symmetry_multiplicity
  _atom_site_fract_x
  _atom_site_fract_y
  _atom_site_fract_z
  _atom_site_occupancy
  H   H1        1.0  0.0025000044918037927  0.004999990808678945  0.00011011104922600607  1.0000
  Mn  Mn1       1.0  1.5000000040378077e-10  0.002500009251904151  0.9994386936691956  1.0000
  Mn  Mn2       1.0  0.0025000001644398307  9.14999999883753e-09  0.9991529701928857  1.0000
  Mn  Mn3       1.0  0.009999992003031399  0.0025000226667324333  0.0  1.0000
  Mn  Mn4       1.0  0.0025000001644398307  9.14999999883753e-09  0.9997244171455053  1.0000
  Ru  Ru1       1.0  0.0025000001644398307  9.14999999883753e-09  0.9994386936691956  1.0000
  Ru  Ru2       1.0  1.5000000040378077e-10  0.002500009251904151  0.9991529701928857  1.0000
  Ru  Ru3       1.0  0.0025000044918037927  0.009999991137558607  0.9999944509989218  1.0000
  Ru  Ru4       1.0  1.5000000040378077e-10  0.002500009251904151  0.9997244171455053  1.0000
  Ti  Ti1       1.0  0.0025000001644398307  0.002500009251904151  0.9992958319310407  1.0000
  Ti  Ti2       1.0  1.5000000040378077e-10  9.14999999883753e-09  0.9992958319310407  1.0000
  Ti  Ti3       1.0  1.5000000040378077e-10  9.14999999883753e-09  0.9990101081749587  1.0000
  Ti  Ti4       1.0  0.0025000001644398307  0.002500009251904151  0.9990101081749587  1.0000
  Ti  Ti5       1.0  0.0024999990825988402  0.0025000068718539718  0.9998695607054204  1.0000
  Ti  Ti6       1.0  0.00999999979228653  9.750000309969842e-09  0.9998695607054204  1.0000
  Ti  Ti7       1.0  1.5000000040378077e-10  9.14999999883753e-09  0.9995815554073504  1.0000
  Ti  Ti8       1.0  0.0025000001644398307  0.002500009251904151  0.9995815554073504  1.0000
  Mn  Mn5       1.0  1.5000000040378077e-10  0.007500008931679218  0.9994386936691956  1.0000
  Mn  Mn6       1.0  0.0025000001644398307  0.005000008983607585  0.9991529701928857  1.0000
  Mn  Mn7       1.0  0.009999992003031399  0.007500022779243897  0.0  1.0000
  Mn  Mn8       1.0  0.0025000001644398307  0.005000008983607585  0.9997244171455053  1.0000
  Ru  Ru5       1.0  0.0025000001644398307  0.005000008983607585  0.9994386936691956  1.0000
  Ru  Ru6       1.0  1.5000000040378077e-10  0.007500008931679218  0.9991529701928857  1.0000
  Ru  Ru7       1.0  0.0025000044918037927  0.004999990808678945  0.9999944509989218  1.0000
  Ru  Ru8       1.0  1.5000000040378077e-10  0.007500008931679218  0.9997244171455053  1.0000
  Ti  Ti9       1.0  0.0025000001644398307  0.007500008931679218  0.9992958319310407  1.0000
  Ti  Ti10      1.0  1.5000000040378077e-10  0.005000008983607585  0.9992958319310407  1.0000
  Ti  Ti11      1.0  1.5000000040378077e-10  0.005000008983607585  0.9990101081749587  1.0000
  Ti  Ti12      1.0  0.0025000001644398307  0.007500008931679218  0.9990101081749587  1.0000
  Ti  Ti13      1.0  0.0024999990825988402  0.007500007200733633  0.9998695607054204  1.0000
  Ti  Ti14      1.0  0.00999999979228653  0.005000009849080378  0.9998695607054204  1.0000
  Ti  Ti15      1.0  1.5000000040378077e-10  0.005000008983607585  0.9995815554073504  1.0000
  Ti  Ti16      1.0  0.0025000001644398307  0.007500008931679218  0.9995815554073504  1.0000
  Mn  Mn9       1.0  0.0050000003288796615  0.002500009251904151  0.9994386936691956  1.0000
  Mn  Mn10      1.0  0.007500000276951294  9.14999999883753e-09  0.9991529701928857  1.0000
  Mn  Mn11      1.0  0.00499999253962453  0.0025000226667324333  0.0  1.0000
  Mn  Mn12      1.0  0.007500000276951294  9.14999999883753e-09  0.9997244171455053  1.0000
  Ru  Ru9       1.0  0.007500000276951294  9.14999999883753e-09  0.9994386936691956  1.0000
  Ru  Ru10      1.0  0.0050000003288796615  0.002500009251904151  0.9991529701928857  1.0000
  Ru  Ru11      1.0  0.007500004604315256  0.009999991137558607  0.9999944509989218  1.0000
  Ru  Ru12      1.0  0.0050000003288796615  0.002500009251904151  0.9997244171455053  1.0000
  Ti  Ti17      1.0  0.007500000276951294  0.002500009251904151  0.9992958319310407  1.0000
  Ti  Ti18      1.0  0.0050000003288796615  9.14999999883753e-09  0.9992958319310407  1.0000
  Ti  Ti19      1.0  0.0050000003288796615  9.14999999883753e-09  0.9990101081749587  1.0000
  Ti  Ti20      1.0  0.007500000276951294  0.002500009251904151  0.9990101081749587  1.0000
  Ti  Ti21      1.0  0.007499999411478502  0.0025000068718539718  0.9998695607054204  1.0000
  Ti  Ti22      1.0  0.004999999896143265  9.750000309969842e-09  0.9998695607054204  1.0000
  Ti  Ti23      1.0  0.0050000003288796615  9.14999999883753e-09  0.9995815554073504  1.0000
  Ti  Ti24      1.0  0.007500000276951294  0.002500009251904151  0.9995815554073504  1.0000
  Mn  Mn13      1.0  0.0050000003288796615  0.007500008931679218  0.9994386936691956  1.0000
  Mn  Mn14      1.0  0.007500000276951294  0.005000008983607585  0.9991529701928857  1.0000
  Mn  Mn15      1.0  0.00499999253962453  0.007500022779243897  0.0  1.0000
  Mn  Mn16      1.0  0.007500000276951294  0.005000008983607585  0.9997244171455053  1.0000
  Ru  Ru13      1.0  0.007500000276951294  0.005000008983607585  0.9994386936691956  1.0000
  Ru  Ru14      1.0  0.0050000003288796615  0.007500008931679218  0.9991529701928857  1.0000
  Ru  Ru15      1.0  0.007500004604315256  0.004999990808678945  0.9999944509989218  1.0000
  Ru  Ru16      1.0  0.0050000003288796615  0.007500008931679218  0.9997244171455053  1.0000
  Ti  Ti25      1.0  0.007500000276951294  0.007500008931679218  0.9992958319310407  1.0000
  Ti  Ti26      1.0  0.0050000003288796615  0.005000008983607585  0.9992958319310407  1.0000
  Ti  Ti27      1.0  0.0050000003288796615  0.005000008983607585  0.9990101081749587  1.0000
  Ti  Ti28      1.0  0.007500000276951294  0.007500008931679218  0.9990101081749587  1.0000
  Ti  Ti29      1.0  0.007499999411478502  0.007500007200733633  0.9998695607054204  1.0000
  Ti  Ti30      1.0  0.004999999896143265  0.005000009849080378  0.9998695607054204  1.0000
  Ti  Ti31      1.0  0.0050000003288796615  0.005000008983607585  0.9995815554073504  1.0000
  Ti  Ti32      1.0  0.007500000276951294  0.007500008931679218  0.9995815554073504  1.0000
