data_image0
_chemical_formula_structural       COCa2As2Au2Ca2As2Au2Ca2As2Au2Ca2As2Au2
_chemical_formula_sum              "C1 O1 Ca8 As8 Au8"
_cell_length_a       8.998225212097168
_cell_length_b       8.998224872722737
_cell_length_c       102.42084503173828
_cell_angle_alpha    90.0
_cell_angle_beta     90.0
_cell_angle_gamma    120.00000124762562

_space_group_name_H-M_alt    "P 1"
_space_group_IT_number       1

loop_
  _space_group_symop_operation_xyz
  'x, y, z'

loop_
  _atom_site_type_symbol
  _atom_site_label
  _atom_site_symmetry_multiplicity
  _atom_site_fract_x
  _atom_site_fract_y
  _atom_site_fract_z
  _atom_site_occupancy
  C   C1        1.0  0.0033333295948137706  0.0008333342798708739  0.00016911121676367212  1.0000
  O   O1        1.0  0.0033333295948137706  0.0008333342798708739  0.0002862751038120214  1.0000
  Ca  Ca1       1.0  0.0008333281509658883  0.0008333333835285061  0.9996210853072423  1.0000
  Ca  Ca2       1.0  0.0008333296341440349  0.0008333342798708739  0.0  1.0000
  As  As1       1.0  0.0024999949398951697  0.0041666668578863725  0.9994232442718558  1.0000
  As  As2       1.0  0.00416667175789884  0.0025000061859574616  0.9998637292632019  1.0000
  Au  Au1       1.0  0.004166661198528501  0.0024999999713170443  0.9994232442718558  1.0000
  Au  Au2       1.0  0.0024999933294863126  0.004166666379837109  0.999808901822637  1.0000
  Ca  Ca3       1.0  0.0008333283547481304  0.005833333505431069  0.9996210853072423  1.0000
  Ca  Ca4       1.0  0.0008333298678043558  0.005833334461529594  0.0  1.0000
  As  As3       1.0  0.002499994763268195  0.009166666322471198  0.9994232442718558  1.0000
  As  As4       1.0  0.004166671888058466  0.007500006367616182  0.9998637292632019  1.0000
  Au  Au3       1.0  0.0041666614839391694  0.007500000152975765  0.9994232442718558  1.0000
  Au  Au4       1.0  0.0024999933142584472  0.009166666322471198  0.999808901822637  1.0000
  Ca  Ca5       1.0  0.005833328020555011  0.0008333333835285061  0.9996210853072423  1.0000
  Ca  Ca6       1.0  0.005833329296731766  0.0008333342798708739  0.0  1.0000
  As  As5       1.0  0.007499994757733945  0.0041666668578863725  0.9994232442718558  1.0000
  As  As6       1.0  0.00916667116173483  0.0025000061859574616  0.9998637292632019  1.0000
  Au  Au5       1.0  0.00916666143037006  0.0024999999713170443  0.9994232442718558  1.0000
  Au  Au6       1.0  0.007499993276700958  0.004166666379837109  0.999808901822637  1.0000
  Ca  Ca7       1.0  0.005833328172586905  0.005833333505431069  0.9996210853072423  1.0000
  Ca  Ca8       1.0  0.00583332968564313  0.005833334461529594  0.0  1.0000
  As  As7       1.0  0.007499994581106971  0.009166666322471198  0.9994232442718558  1.0000
  As  As8       1.0  0.009166671550646197  0.007500006367616182  0.9998637292632019  1.0000
  Au  Au7       1.0  0.009166661405278642  0.007500000152975765  0.9994232442718558  1.0000
  Au  Au8       1.0  0.007499993132097223  0.009166666322471198  0.999808901822637  1.0000
