data_image0
_chemical_formula_structural       HSb8Pt12
_chemical_formula_sum              "H1 Sb8 Pt12"
_cell_length_a       5.434988498687744
_cell_length_b       6.621869087219238
_cell_length_c       103.47147369384766
_cell_angle_alpha    90.0
_cell_angle_beta     90.0
_cell_angle_gamma    90.0

_space_group_name_H-M_alt    "P 1"
_space_group_IT_number       1

loop_
  _space_group_symop_operation_xyz
  'x, y, z'

loop_
  _atom_site_type_symbol
  _atom_site_label
  _atom_site_symmetry_multiplicity
  _atom_site_fract_x
  _atom_site_fract_y
  _atom_site_fract_z
  _atom_site_occupancy
  H   H1        1.0  0.0025001168379628455  0.006967020157461627  3.131460274956602e-05  1.0000
  Sb  Sb1       1.0  0.005000004743157943  0.006894636594763789  0.999760599196643  1.0000
  Sb  Sb2       1.0  1.1000000247089651e-09  0.006752001061635338  0.9995552993453207  1.0000
  Sb  Sb3       1.0  0.005000001316020701  0.0019530979964558388  0.9995552993453207  1.0000
  Sb  Sb4       1.0  0.009999998519476711  0.0018103499485600486  0.9997606591057447  1.0000
  Sb  Sb5       1.0  1.1000000247089651e-09  0.0019530979964558388  0.9992204656469044  1.0000
  Sb  Sb6       1.0  0.005000001316020701  0.0017520010560095993  0.9990161577520571  1.0000
  Sb  Sb7       1.0  1.1000000247089651e-09  0.006953098142725037  0.9990161577520571  1.0000
  Sb  Sb8       1.0  0.005000001316020701  0.006752001061635338  0.9992204656469044  1.0000
  Pt  Pt1       1.0  0.00999999920490416  0.0058373769565507935  0.9998060817259322  1.0000
  Pt  Pt2       1.0  0.005000001316020701  0.008057410331491188  0.9995055609656035  1.0000
  Pt  Pt3       1.0  0.005000001316020701  0.002868254296389893  0.9998060851822266  1.0000
  Pt  Pt4       1.0  1.1000000247089651e-09  0.0006476886562782593  0.9995055609656035  1.0000
  Pt  Pt5       1.0  0.007499635955773633  0.009352311284651488  0.9999306471499158  1.0000
  Pt  Pt6       1.0  0.002500367018981493  0.00935230903435614  0.9999306471499158  1.0000
  Pt  Pt7       1.0  0.005000001316020701  0.0006476886562782593  0.9992702043146462  1.0000
  Pt  Pt8       1.0  2.320000022400974e-08  0.0029939631079199886  6.970193581239285e-08  1.0000
  Pt  Pt9       1.0  1.1000000247089651e-09  0.008057410331491188  0.9992702043146462  1.0000
  Pt  Pt10      1.0  0.004999984523048217  0.005711373918904109  0.0  1.0000
  Pt  Pt11      1.0  0.0025000011720809367  0.004352549388402129  0.999387882784137  1.0000
  Pt  Pt12      1.0  0.007500001288603603  0.004352549388402129  0.999387882784137  1.0000
