data_image0
_chemical_formula_structural       HPt3Rh9Pt3Rh9
_chemical_formula_sum              "H1 Pt6 Rh18"
_cell_length_a       5.49100923538208
_cell_length_b       5.49100920119079
_cell_length_c       103.62542724609375
_cell_angle_alpha    90.0
_cell_angle_beta     90.0
_cell_angle_gamma    59.99999979401987

_space_group_name_H-M_alt    "P 1"
_space_group_IT_number       1

loop_
  _space_group_symop_operation_xyz
  'x, y, z'

loop_
  _atom_site_type_symbol
  _atom_site_label
  _atom_site_symmetry_multiplicity
  _atom_site_fract_x
  _atom_site_fract_y
  _atom_site_fract_z
  _atom_site_occupancy
  H   H1        1.0  0.00999999870544152  0.009999992385461549  0.00011889301696637823  1.0000
  Pt  Pt1       1.0  0.006666667225442576  0.006666674124527372  0.9993569771022291  1.0000
  Pt  Pt2       1.0  9.999999310220155e-10  7.349999579168929e-09  0.9991406503775255  1.0000
  Pt  Pt3       1.0  0.0033333342246175198  0.003333340587512969  0.998924323652822  1.0000
  Rh  Rh1       1.0  0.005000000653345005  0.0050000071601729885  0.9991406503775255  1.0000
  Rh  Rh2       1.0  0.008333333993387329  0.008333340697187391  0.998924323652822  1.0000
  Rh  Rh3       1.0  0.0016666676262814004  0.00166667401485295  0.9993569771022291  1.0000
  Rh  Rh4       1.0  1.0536213811328223e-09  0.0050000071601729885  0.9991406503775255  1.0000
  Rh  Rh5       1.0  0.003333333884837804  0.008333340697187391  0.998924323652822  1.0000
  Rh  Rh6       1.0  0.006666667226005024  0.00166667401485295  0.9993569771022291  1.0000
  Rh  Rh7       1.0  0.005000000843374214  7.349999579168929e-09  0.9991406503775255  1.0000
  Rh  Rh8       1.0  0.008333333993949777  0.003333340587512969  0.998924323652822  1.0000
  Rh  Rh9       1.0  0.0016666674561103183  0.006666674124527372  0.9993569771022291  1.0000
  Pt  Pt4       1.0  0.006666661357562561  0.006666665507251346  5.359650568176798e-06  1.0000
  Pt  Pt5       1.0  0.009999961370955128  0.009999977501075686  0.9997868161311351  1.0000
  Pt  Pt6       1.0  0.0033333342246175198  0.003333340587512969  0.9995733038269327  1.0000
  Rh  Rh10      1.0  0.005000695814134751  0.005000676565842406  0.9997885325077498  1.0000
  Rh  Rh11      1.0  0.008333333993387329  0.008333340697187391  0.9995733038269327  1.0000
  Rh  Rh12      1.0  0.0016770024177149838  0.001676982431298187  0.9999999982744203  1.0000
  Rh  Rh13      1.0  0.00999858108002929  0.005000727094415463  0.9997885302069768  1.0000
  Rh  Rh14      1.0  0.003333333884837804  0.008333340697187391  0.9995733038269327  1.0000
  Rh  Rh15      1.0  0.006646043354520163  0.001676944436944803  0.9999999965488406  1.0000
  Rh  Rh16      1.0  0.005000739240207023  0.009998577585415943  0.99978853078217  1.0000
  Rh  Rh17      1.0  0.008333333993949777  0.003333340587512969  0.9995733038269327  1.0000
  Rh  Rh18      1.0  0.0016769507077071773  0.0066460506328326965  0.0  1.0000
