data_image0
_chemical_formula_structural       COV3Pt3V3Pt3V3Pt3V3Pt3
_chemical_formula_sum              "C1 O1 V12 Pt12"
_cell_length_a       5.420310974121094
_cell_length_b       6.692980140679006
_cell_length_c       103.39605712890625
_cell_angle_alpha    88.6966035413749
_cell_angle_beta     90.0
_cell_angle_gamma    90.0

_space_group_name_H-M_alt    "P 1"
_space_group_IT_number       1

loop_
  _space_group_symop_operation_xyz
  'x, y, z'

loop_
  _atom_site_type_symbol
  _atom_site_label
  _atom_site_symmetry_multiplicity
  _atom_site_fract_x
  _atom_site_fract_y
  _atom_site_fract_z
  _atom_site_occupancy
  C   C1        1.0  1.5599998871847492e-08  0.005394778925841426  5.256743565088331e-05  1.0000
  O   O1        1.0  1.5599998871847492e-08  0.005394778925841426  0.00016862625502863155  1.0000
  V   V1        1.0  0.002500000776630355  0.006692260890115242  0.99946027526412  1.0000
  V   V2        1.0  0.002500000776630355  2.5594250560687987e-05  0.9993064698385088  1.0000
  V   V3        1.0  0.002500000776630355  0.0033589274083177236  0.9991526643800491  1.0000
  Pt  Pt1       1.0  7.999999841617062e-10  0.006692260890115242  0.9992295670926161  1.0000
  Pt  Pt2       1.0  7.999999841617062e-10  2.5594250560687987e-05  0.9995371780100126  1.0000
  Pt  Pt3       1.0  7.999999841617062e-10  0.0033589274083177236  0.999383372551553  1.0000
  V   V4        1.0  0.002500023800627612  0.006555598865032872  0.9999087896857118  1.0000
  V   V5        1.0  0.002499998714779855  0.009974405962131656  0.9997726983666908  1.0000
  V   V6        1.0  0.002500000776630355  0.0033589274083177236  0.9996140807230568  1.0000
  Pt  Pt4       1.0  7.999999841617062e-10  0.006692260890115242  0.9996909834356238  1.0000
  Pt  Pt5       1.0  0.009999998295536919  0.009497350448759724  0.9999860159017018  1.0000
  Pt  Pt6       1.0  0.00999999898282042  0.0032497806218962817  0.9998374439752905  1.0000
  V   V7        1.0  0.00750000043986144  0.006692260890115242  0.99946027526412  1.0000
  V   V8        1.0  0.00750000043986144  2.5594250560687987e-05  0.9993064698385088  1.0000
  V   V9        1.0  0.00750000043986144  0.0033589274083177236  0.9991526643800491  1.0000
  Pt  Pt7       1.0  0.005000000522335461  0.006692260890115242  0.9992295670926161  1.0000
  Pt  Pt8       1.0  0.005000000522335461  2.5594250560687987e-05  0.9995371780100126  1.0000
  Pt  Pt9       1.0  0.005000000522335461  0.0033589274083177236  0.999383372551553  1.0000
  V   V10       1.0  0.007500023807500447  0.006555598865032872  0.9999087896857118  1.0000
  V   V11       1.0  0.00749999837801094  0.009974405962131656  0.9997726983666908  1.0000
  V   V12       1.0  0.00750000043986144  0.0033589274083177236  0.9996140807230568  1.0000
  Pt  Pt10      1.0  0.005000000522335461  0.006692260890115242  0.9996909834356238  1.0000
  Pt  Pt11      1.0  0.0049999984604849595  0.009497350448759724  0.9999860159017018  1.0000
  Pt  Pt12      1.0  0.0049999991477684596  0.0032497806218962817  0.9998374439752905  1.0000
