data_image0
_chemical_formula_structural       HSi36V18
_chemical_formula_sum              "H1 Si36 V18"
_cell_length_a       10.194438024385356
_cell_length_b       7.869138797758297
_cell_length_c       100.72444152832031
_cell_angle_alpha    87.2541754321221
_cell_angle_beta     88.27670419579259
_cell_angle_gamma    96.74301500403027

_space_group_name_H-M_alt    "P 1"
_space_group_IT_number       1

loop_
  _space_group_symop_operation_xyz
  'x, y, z'

loop_
  _atom_site_type_symbol
  _atom_site_label
  _atom_site_symmetry_multiplicity
  _atom_site_fract_x
  _atom_site_fract_y
  _atom_site_fract_z
  _atom_site_occupancy
  H   H1        1.0  0.007150945759869331  0.009945152082420153  7.446028394438049e-05  1.0000
  Si  Si1       1.0  0.000750110984040856  0.005067468013548667  0.999890050069025  1.0000
  Si  Si2       1.0  0.007449313243861902  0.0013118398541008371  0.9997421419672359  1.0000
  Si  Si3       1.0  0.0041331281305307735  0.007495130665168351  0.9996004682295635  1.0000
  Si  Si4       1.0  0.006129356252752426  0.007162125993286249  0.9999545390044675  1.0000
  Si  Si5       1.0  0.0025451513287429407  0.0033602733119638727  0.9998333154611103  1.0000
  Si  Si6       1.0  0.00912037867604364  0.009396249615371478  0.9996758735052031  1.0000
  Si  Si7       1.0  0.008623597352779159  0.0062022200619707485  0.9998792671827289  1.0000
  Si  Si8       1.0  0.005277787725929848  0.0023831256177152533  0.9997169139112303  1.0000
  Si  Si9       1.0  0.0019364045071701631  0.008550554492904162  0.9995757040687585  1.0000
  Si  Si10      1.0  0.009726137676758517  0.0033830800372642886  0.9997024523936632  1.0000
  Si  Si11      1.0  0.006335721535911992  0.0008845332552684824  0.9999953755250286  1.0000
  Si  Si12      1.0  0.0029629134524005677  0.007128727600678806  0.9998448656635576  1.0000
  Si  Si13      1.0  0.0002738628516194396  0.0010794670981512096  0.9998745636943378  1.0000
  Si  Si14      1.0  0.006993058325786157  0.007401683069992478  0.999721970712596  1.0000
  Si  Si15      1.0  0.0036158203362125717  0.0035705886707256803  0.999577926210606  1.0000
  Si  Si16      1.0  0.009688683596080017  0.0064797765295887405  0.9996296774377883  1.0000
  Si  Si17      1.0  0.0063912870137632595  0.004020479792181206  0.9999190265302594  1.0000
  Si  Si18      1.0  0.002978402106585989  0.0002860862682804823  0.9997844772572554  1.0000
  Si  Si19      1.0  0.0007997945750454999  0.0036856069644467153  0.9994552140256778  1.0000
  Si  Si20      1.0  0.00746646140986032  0.009876083418751076  0.9993099593791633  1.0000
  Si  Si21      1.0  0.0041331281305307735  0.006066559049725511  0.9991647048810586  1.0000
  Si  Si22      1.0  0.005787045396714094  0.005586726194244376  0.9995306190035509  1.0000
  Si  Si23      1.0  0.0024537121173845468  0.0017772024176553507  0.9993853645032289  1.0000
  Si  Si24      1.0  0.00912037867604364  0.00796767847387787  0.9992401098590448  1.0000
  Si  Si25      1.0  0.008603071249933075  0.00474103033582585  0.9994304492472844  1.0000
  Si  Si26      1.0  0.005269737970603527  0.0009315065073986277  0.9992851947471565  1.0000
  Si  Si27      1.0  0.0019364045071701631  0.007121982403512087  0.999139940130268  1.0000
  Si  Si28      1.0  0.009714182711250558  0.0019796445664078703  0.9992659857475865  1.0000
  Si  Si29      1.0  0.006380849063713377  0.009598692382796446  0.9995564950703818  1.0000
  Si  Si30      1.0  0.003047515600280012  0.005789168459306834  0.9994112402752903  1.0000
  Si  Si31      1.0  0.0002824869648311161  0.009761064410720275  0.9994326715940216  1.0000
  Si  Si32      1.0  0.006949153983749754  0.005951541244160348  0.9992874170638796  1.0000
  Si  Si33      1.0  0.0036158203362125717  0.0021420172922574565  0.9991421622694547  1.0000
  Si  Si34      1.0  0.009688683596080017  0.005051205388095133  0.9991939140875097  1.0000
  Si  Si35      1.0  0.006355350684958106  0.0026702529283135815  0.9994844232315693  1.0000
  Si  Si36      1.0  0.003022017037420924  0.008860728625688258  0.9993391686159849  1.0000
  V   V1        1.0  0.007479210967445591  0.004419927321303828  0.9996753180620627  1.0000
  V   V2        1.0  0.004287242909181074  0.002006152518628151  0.9999453455125648  1.0000
  V   V3        1.0  0.0007922882941891108  0.008201205301330127  0.999812719247009  1.0000
  V   V4        1.0  0.0080893891962012  0.009235779456535228  0.9999082892677608  1.0000
  V   V5        1.0  0.004740349651973678  0.005350421097230343  0.9997784435370902  1.0000
  V   V6        1.0  0.001368099495081877  0.0014834193309234754  0.9996268999297256  1.0000
  V   V7        1.0  0.0019236549495848926  0.005451673142826311  0.9996511088265668  1.0000
  V   V8        1.0  0.00855745916088343  0.0030047903133175466  0.9999260673979664  1.0000
  V   V9        1.0  0.005254797577587299  0.009302163149965601  0.9997947417127915  1.0000
  V   V10       1.0  0.007479210967445591  0.002991355942835604  0.9992395544167911  1.0000
  V   V11       1.0  0.004145877319908408  0.000610403471225967  0.9995300635631365  1.0000
  V   V12       1.0  0.0008125438564750438  0.006800879569138125  0.9993848089454926  1.0000
  V   V13       1.0  0.008034766329896697  0.007673895429765912  0.9994816452845414  1.0000
  V   V14       1.0  0.00470143305056715  0.0038643717716641953  0.999336390783776  1.0000
  V   V15       1.0  0.001368099495081877  5.4847863589770345e-05  0.9991911362847867  1.0000
  V   V16       1.0  0.0019236549495848926  0.0040231017643580875  0.9992153451812954  1.0000
  V   V17       1.0  0.008590321692347804  0.0016421494893190604  0.9995058542990879  1.0000
  V   V18       1.0  0.005256988413018257  0.007832625450873083  0.9993605996813941  1.0000
