data_image0
_chemical_formula_structural       HFe16Re24
_chemical_formula_sum              "H1 Fe16 Re24"
_cell_length_a       6.420514106750488
_cell_length_b       9.079977989196777
_cell_length_c       106.31991577148438
_cell_angle_alpha    90.0
_cell_angle_beta     90.0
_cell_angle_gamma    90.0

_space_group_name_H-M_alt    "P 1"
_space_group_IT_number       1

loop_
  _space_group_symop_operation_xyz
  'x, y, z'

loop_
  _atom_site_type_symbol
  _atom_site_label
  _atom_site_symmetry_multiplicity
  _atom_site_fract_x
  _atom_site_fract_y
  _atom_site_fract_z
  _atom_site_occupancy
  H   H1        1.0  0.004438016687722812  0.0015861912216035693  9.500422803124439e-05  1.0000
  Fe  Fe1       1.0  0.009404225637428987  0.007526274749510216  0.9998651617634564  1.0000
  Fe  Fe2       1.0  0.009457007961837367  0.0025095495340480937  0.9994305733696892  1.0000
  Fe  Fe3       1.0  0.006914430537333137  0.005607271727179794  0.9998122216743435  1.0000
  Fe  Fe4       1.0  0.006957008008254713  0.0006012908514190981  0.9993800372019389  1.0000
  Fe  Fe5       1.0  0.008140490187781558  0.005009549501226073  0.9994305733696892  1.0000
  Fe  Fe6       1.0  0.008194842578913572  0.009990450301841803  0.9998650916864578  1.0000
  Fe  Fe7       1.0  0.005544216017155554  0.0006100847425511606  0.0  1.0000
  Fe  Fe8       1.0  0.005640490234198904  0.00560129073449065  0.9995935433165819  1.0000
  Fe  Fe9       1.0  0.0033318170681816595  0.0025622978032247925  0.9999582453211079  1.0000
  Fe  Fe10      1.0  0.00314049028061625  0.0075095494684040524  0.9995430071488316  1.0000
  Fe  Fe11      1.0  0.004269752648555188  0.004955145771389428  0.9999583591261538  1.0000
  Fe  Fe12      1.0  0.004457007764563647  9.549550042418113e-06  0.9995430071488316  1.0000
  Fe  Fe13      1.0  0.0006404903995606988  0.006917808645414732  0.9993800372019389  1.0000
  Fe  Fe14      1.0  0.0006840202238704877  0.0019108354676618023  0.9998121998103199  1.0000
  Fe  Fe15      1.0  0.0020579832348344876  0.00690630206557115  1.906094364031481e-07  1.0000
  Fe  Fe16      1.0  0.001957007810980992  0.0019178083007835168  0.9995935433165819  1.0000
  Re  Re1       1.0  0.008069456562981952  0.005894903401248833  0.9991976730252001  1.0000
  Re  Re2       1.0  0.008069456562981952  0.000894903261755246  0.9996246849741783  1.0000
  Re  Re3       1.0  0.006298749121226808  0.0032388421114558094  0.9992732844249254  1.0000
  Re  Re4       1.0  0.006298749121226808  0.008238842456087025  0.9997002963739035  1.0000
  Re  Re5       1.0  0.0004719583002207461  0.004646894073204344  0.9998769346992342  1.0000
  Re  Re6       1.0  0.0005694564846526802  0.009644903352015802  0.999455648601664  1.0000
  Re  Re7       1.0  0.001298749069007294  0.004280256923818357  0.9992732844249254  1.0000
  Re  Re8       1.0  0.001298749069007294  0.009280257268449573  0.9997002963739035  1.0000
  Re  Re9       1.0  0.005481912914894947  0.00791393645441515  0.9999340295134449  1.0000
  Re  Re10      1.0  0.005569456609399297  0.0028741958227519516  0.9995179319168568  1.0000
  Re  Re11      1.0  0.002028041725889011  0.004644903417659843  0.9995179319168568  1.0000
  Re  Re12      1.0  0.002117637502242886  0.009600122628320183  0.9999339325268787  1.0000
  Re  Re13      1.0  0.003797834455822347  0.0037597796820559755  0.9997432793624283  1.0000
  Re  Re14      1.0  0.0037987491676441543  0.008759549862268299  0.9993177538867462  1.0000
  Re  Re15      1.0  0.00712489780757136  0.0028704071358958737  0.9998767782873732  1.0000
  Re  Re16      1.0  0.0070280416330543195  0.007874195551970282  0.999455648601664  1.0000
  Re  Re17      1.0  0.008798749074809462  0.008759549862268299  0.9992288146827965  1.0000
  Re  Re18      1.0  0.008798749074809462  0.0037595495176370834  0.9996558266317747  1.0000
  Re  Re19      1.0  0.003070190920206429  0.0066321015725738985  0.9997731248758572  1.0000
  Re  Re20      1.0  0.0030694563657082314  0.0016241958391629617  0.9993488955443425  1.0000
  Re  Re21      1.0  0.004528041679471666  0.005894903401248833  0.9993488955443425  1.0000
  Re  Re22      1.0  0.004526448404075101  0.0008865957006553481  0.9997729073568533  1.0000
  Re  Re23      1.0  0.009528041586636974  0.0016241958391629617  0.9991976730252001  1.0000
  Re  Re24      1.0  0.009528041586636974  0.006624195978656548  0.9996246849741783  1.0000
