data_image0
_chemical_formula_structural       HGa2Cu2Pt4Ga2Cu2Pt4Ga2Cu2Pt4Ga2Cu2Pt4Ga2Cu2Pt4Ga2Cu2Pt4
_chemical_formula_sum              "H1 Ga12 Cu12 Pt24"
_cell_length_a       8.081046104431152
_cell_length_b       8.843236563245698
_cell_length_c       105.91590881347656
_cell_angle_alpha    66.03742178165676
_cell_angle_beta     90.0
_cell_angle_gamma    90.0

_space_group_name_H-M_alt    "P 1"
_space_group_IT_number       1

loop_
  _space_group_symop_operation_xyz
  'x, y, z'

loop_
  _atom_site_type_symbol
  _atom_site_label
  _atom_site_symmetry_multiplicity
  _atom_site_fract_x
  _atom_site_fract_y
  _atom_site_fract_z
  _atom_site_occupancy
  H   H1        1.0  0.0037499998340432055  0.005377819321967511  0.9998176390276318  1.0000
  Ga  Ga1       1.0  0.002499999889362137  0.0025085604940101544  0.9989791184355196  1.0000
  Ga  Ga2       1.0  0.002499999889362137  0.007508560272734428  0.9988095692619793  1.0000
  Cu  Cu1       1.0  0.0  0.005008560383372291  0.9988943438487494  1.0000
  Cu  Cu2       1.0  0.0  8.560499304349224e-06  0.999063893025862  1.0000
  Pt  Pt1       1.0  0.002499999889362137  0.005008560383372291  0.9990638933111704  1.0000
  Pt  Pt2       1.0  0.002499999889362137  8.560499304349224e-06  0.9988943441261954  1.0000
  Pt  Pt3       1.0  0.0  0.0025085604940101544  0.9988095695358531  1.0000
  Pt  Pt4       1.0  0.0  0.007508560272734428  0.9989791187244003  1.0000
  Ga  Ga3       1.0  0.002499999889362137  0.0025085604940101544  0.9993182167976071  1.0000
  Ga  Ga4       1.0  0.002499999889362137  0.007508560272734428  0.9991486676240668  1.0000
  Cu  Cu3       1.0  0.0  0.005008560383372291  0.999233442210837  1.0000
  Cu  Cu4       1.0  0.0  8.560499304349224e-06  0.9994029913879495  1.0000
  Pt  Pt5       1.0  0.002499999889362137  0.005008560383372291  0.999402991673258  1.0000
  Pt  Pt6       1.0  0.002499999889362137  8.560499304349224e-06  0.9992334424882829  1.0000
  Pt  Pt7       1.0  0.0  0.0025085604940101544  0.9991486678979405  1.0000
  Pt  Pt8       1.0  0.0  0.007508560272734428  0.9993182170864877  1.0000
  Ga  Ga5       1.0  0.002499999428371041  0.002521933384706673  0.9996584796060903  1.0000
  Ga  Ga6       1.0  0.0025000003503532326  0.007540996989204458  0.9994893014413138  1.0000
  Cu  Cu5       1.0  0.009999999557448548  0.004920526757781913  0.999575120595574  1.0000
  Cu  Cu6       1.0  0.009999999557448548  0.009991101507318443  0.9997243388016013  1.0000
  Pt  Pt9       1.0  0.002499999889362137  0.005033780745229501  0.9997213493271735  1.0000
  Pt  Pt10      1.0  0.002499999889362137  0.00999143895280053  0.9995736903839165  1.0000
  Pt  Pt11      1.0  0.009999999557448548  0.002525582590220604  0.9994878035713494  1.0000
  Pt  Pt12      1.0  9.999999663492116e-11  0.0074628576155020936  0.9996504340316256  1.0000
  Ga  Ga7       1.0  0.007499999668086411  0.0025085604940101544  0.9989791184355196  1.0000
  Ga  Ga8       1.0  0.007499999668086411  0.007508560272734428  0.9988095692619793  1.0000
  Cu  Cu7       1.0  0.004999999778724274  0.005008560383372291  0.9988943438487494  1.0000
  Cu  Cu8       1.0  0.004999999778724274  8.560499304349224e-06  0.999063893025862  1.0000
  Pt  Pt13      1.0  0.007499999668086411  0.005008560383372291  0.9990638933111704  1.0000
  Pt  Pt14      1.0  0.007499999668086411  8.560499304349224e-06  0.9988943441261954  1.0000
  Pt  Pt15      1.0  0.004999999778724274  0.0025085604940101544  0.9988095695358531  1.0000
  Pt  Pt16      1.0  0.004999999778724274  0.007508560272734428  0.9989791187244003  1.0000
  Ga  Ga9       1.0  0.007499999668086411  0.0025085604940101544  0.9993182167976071  1.0000
  Ga  Ga10      1.0  0.007499999668086411  0.007508560272734428  0.9991486676240668  1.0000
  Cu  Cu9       1.0  0.004999999778724274  0.005008560383372291  0.999233442210837  1.0000
  Cu  Cu10      1.0  0.004999999778724274  8.560499304349224e-06  0.9994029913879495  1.0000
  Pt  Pt17      1.0  0.007499999668086411  0.005008560383372291  0.999402991673258  1.0000
  Pt  Pt18      1.0  0.007499999668086411  8.560499304349224e-06  0.9992334424882829  1.0000
  Pt  Pt19      1.0  0.004999999778724274  0.0025085604940101544  0.9991486678979405  1.0000
  Pt  Pt20      1.0  0.004999999778724274  0.007508560272734428  0.9993182170864877  1.0000
  Ga  Ga11      1.0  0.007499999207095315  0.002521933384706673  0.9996584796060903  1.0000
  Ga  Ga12      1.0  0.007500000129077506  0.007540996989204458  0.9994893014413138  1.0000
  Cu  Cu11      1.0  0.004999999778724274  0.004920526757781913  0.999575120595574  1.0000
  Cu  Cu12      1.0  0.004999999778724274  0.009991101507318443  0.9997243388016013  1.0000
  Pt  Pt21      1.0  0.007499999668086411  0.005033780745229501  0.9997213493271735  1.0000
  Pt  Pt22      1.0  0.007499999668086411  0.00999143895280053  0.9995736903839165  1.0000
  Pt  Pt23      1.0  0.004999999778724274  0.002525582590220604  0.9994878035713494  1.0000
  Pt  Pt24      1.0  0.004999999778724274  0.0074628576155020936  0.9996504340316256  1.0000
