data_image0
_chemical_formula_structural       HFeNiFeNiFeNiFeNiFeNiFeNiFeNiFeNi
_chemical_formula_sum              "H1 Fe8 Ni8"
_cell_length_a       4.9451141357421875
_cell_length_b       4.9451141357421875
_cell_length_c       98.26129150390625
_cell_angle_alpha    90.0
_cell_angle_beta     90.0
_cell_angle_gamma    90.0

_space_group_name_H-M_alt    "P 1"
_space_group_IT_number       1

loop_
  _space_group_symop_operation_xyz
  'x, y, z'

loop_
  _atom_site_type_symbol
  _atom_site_label
  _atom_site_symmetry_multiplicity
  _atom_site_fract_x
  _atom_site_fract_y
  _atom_site_fract_z
  _atom_site_occupancy
  H   H1        1.0  0.0012501989085839892  0.005000000120532394  0.0001253852692661032  1.0000
  Fe  Fe1       1.0  0.0012498010575162748  0.009999999487737323  0.9998316921861616  1.0000
  Ni  Ni1       1.0  0.0037501989688501864  0.002500000060266197  0.0  1.0000
  Fe  Fe2       1.0  0.0012499542654895697  1.0000000368629052e-10  0.999465515445361  1.0000
  Ni  Ni2       1.0  0.0037499541374239006  0.002500000060266197  0.999645274224931  1.0000
  Fe  Fe3       1.0  0.0012498010575162748  0.004999999743868662  0.9998316921861616  1.0000
  Ni  Ni3       1.0  0.0037501989688501864  0.007500000180798591  0.0  1.0000
  Fe  Fe4       1.0  0.0012499542654895697  0.005000000120532394  0.999465515445361  1.0000
  Ni  Ni4       1.0  0.0037499541374239006  0.007500000180798591  0.999645274224931  1.0000
  Fe  Fe5       1.0  0.006249800895550869  0.009999999487737323  0.9998316921861616  1.0000
  Ni  Ni5       1.0  0.008750199089382581  0.002500000060266197  0.0  1.0000
  Fe  Fe6       1.0  0.006249954197690098  1.0000000368629052e-10  0.999465515445361  1.0000
  Ni  Ni6       1.0  0.008749954257956294  0.002500000060266197  0.999645274224931  1.0000
  Fe  Fe7       1.0  0.006249800895550869  0.004999999743868662  0.9998316921861616  1.0000
  Ni  Ni7       1.0  0.008750199089382581  0.007500000180798591  0.0  1.0000
  Fe  Fe8       1.0  0.006249954197690098  0.005000000120532394  0.999465515445361  1.0000
  Ni  Ni8       1.0  0.008749954257956294  0.007500000180798591  0.999645274224931  1.0000
