data_image0
_chemical_formula_structural       COSi12Ir36
_chemical_formula_sum              "C1 O1 Si12 Ir36"
_cell_length_a       9.658143692695162
_cell_length_b       7.492395401000977
_cell_length_c       103.0473861694336
_cell_angle_alpha    90.0
_cell_angle_beta     110.4335712796881
_cell_angle_gamma    67.17736882246544

_space_group_name_H-M_alt    "P 1"
_space_group_IT_number       1

loop_
  _space_group_symop_operation_xyz
  'x, y, z'

loop_
  _atom_site_type_symbol
  _atom_site_label
  _atom_site_symmetry_multiplicity
  _atom_site_fract_x
  _atom_site_fract_y
  _atom_site_fract_z
  _atom_site_occupancy
  C   C1        1.0  0.006230652579434211  0.004493258640382715  0.0002219315119819227  1.0000
  O   O1        1.0  0.006230652579434211  0.004493258640382715  0.00033838244936251375  1.0000
  Si  Si1       1.0  0.006883836473582894  0.00416666719051789  0.9995271408732651  1.0000
  Si  Si2       1.0  0.00021717013850705702  0.007500000358055809  0.9998834752652244  1.0000
  Si  Si3       1.0  0.0035505033060449754  0.0008333334660169486  0.9991708064166023  1.0000
  Si  Si4       1.0  0.006883836473582894  0.009166666752973516  0.9995271408732651  1.0000
  Si  Si5       1.0  0.00021717013850705702  0.0025000000497859077  0.9998834752652244  1.0000
  Si  Si6       1.0  0.0035505033060449754  0.0058333337742868495  0.9991708064166023  1.0000
  Si  Si7       1.0  0.00021717013850705702  0.007500000358055809  0.9993489737571869  1.0000
  Si  Si8       1.0  0.0035505033060449754  0.0008333334660169486  0.99970530763543  1.0000
  Si  Si9       1.0  0.006883836473582894  0.00416666719051789  6.164209209273023e-05  1.0000
  Si  Si10      1.0  0.00021717013850705702  0.0025000000497859077  0.9993489737571869  1.0000
  Si  Si11      1.0  0.0035505033060449754  0.0058333337742868495  0.99970530763543  1.0000
  Si  Si12      1.0  0.006883836473582894  0.009166666752973516  6.164209209273023e-05  1.0000
  Ir  Ir1       1.0  0.008550502718224868  0.0008333337897595729  0.9997053078012899  1.0000
  Ir  Ir2       1.0  0.0018838367222760162  0.004166666787733999  6.164191513601143e-05  1.0000
  Ir  Ir3       1.0  0.005217169776771606  0.007500000817360864  0.9993489736412348  1.0000
  Ir  Ir4       1.0  0.005217169776771606  0.002500000260486204  0.9993489736412348  1.0000
  Ir  Ir5       1.0  0.008550502718224868  0.005833334346634232  0.9997053078012899  1.0000
  Ir  Ir6       1.0  0.0018838367222760162  0.009166667344608657  6.164191513601143e-05  1.0000
  Ir  Ir7       1.0  0.003984843809143746  0.005616163522737463  0.9994844882807637  1.0000
  Ir  Ir8       1.0  0.007318176750597008  0.008949496614466458  0.9998408227300287  1.0000
  Ir  Ir9       1.0  0.0006515105285634993  0.0022828298547576866  0.9991281541096119  1.0000
  Ir  Ir10      1.0  0.005217169776771606  0.0018484897252450117  0.9990817228872161  1.0000
  Ir  Ir11      1.0  0.008550502718224868  0.00518182381139304  0.9994380570472712  1.0000
  Ir  Ir12      1.0  0.0018838367222760162  0.008515156809367465  0.999794391739537  1.0000
  Ir  Ir13      1.0  0.0018838367222760162  0.004818177322975192  0.9992598899422896  1.0000
  Ir  Ir14      1.0  0.005217169776771606  0.008151511352602055  0.9996162243952535  1.0000
  Ir  Ir15      1.0  0.008550502718224868  0.0014848443250007652  0.9999725585553086  1.0000
  Ir  Ir16      1.0  0.0031161630290308614  0.0010505036045240057  0.9993916260678762  1.0000
  Ir  Ir17      1.0  0.00644949619656878  0.004383837329024947  0.9997479602353292  1.0000
  Ir  Ir18      1.0  0.009782829590191356  0.007717170194669284  0.9990352919725246  1.0000
  Ir  Ir19      1.0  0.008550502718224868  0.0008333337897595729  0.9991708065824623  1.0000
  Ir  Ir20      1.0  0.0018838367222760162  0.004166666787733999  0.9995271406963084  1.0000
  Ir  Ir21      1.0  0.005217169776771606  0.007500000817360864  0.9998834748600625  1.0000
  Ir  Ir22      1.0  0.0018838367222760162  0.009166667344608657  0.9995271406963084  1.0000
  Ir  Ir23      1.0  0.005217169776771606  0.002500000260486204  0.9998834748600625  1.0000
  Ir  Ir24      1.0  0.008550502718224868  0.005833334346634232  0.9991708065824623  1.0000
  Ir  Ir25      1.0  0.007318176750597008  0.008949496614466458  0.9993063212219913  1.0000
  Ir  Ir26      1.0  0.0006515105285634993  0.0022828298547576866  0.9996626553284395  1.0000
  Ir  Ir27      1.0  0.003984843809143746  0.005616163522737463  1.8989788801215156e-05  1.0000
  Ir  Ir28      1.0  0.005217169776771606  0.0018484897252450117  0.9996162243952535  1.0000
  Ir  Ir29      1.0  0.008550502718224868  0.00518182381139304  0.9999725585553086  1.0000
  Ir  Ir30      1.0  0.0018838367222760162  0.008515156809367465  0.9992598899422896  1.0000
  Ir  Ir31      1.0  0.008550502718224868  0.0014848443250007652  0.9994380570472712  1.0000
  Ir  Ir32      1.0  0.0018838367222760162  0.004818177322975192  0.999794391739537  1.0000
  Ir  Ir33      1.0  0.005217169776771606  0.008151511352602055  0.9990817228872161  1.0000
  Ir  Ir34      1.0  0.00644949619656878  0.004383837329024947  0.9992134590165015  1.0000
  Ir  Ir35      1.0  0.009782829590191356  0.007717170194669284  0.9995697931913523  1.0000
  Ir  Ir36      1.0  0.0031161630290308614  0.0010505036045240057  0.9999261275759137  1.0000
