data_image0
_chemical_formula_structural       HPt5Rh15Pt5Rh15
_chemical_formula_sum              "H1 Pt10 Rh30"
_cell_length_a       8.682047866702947
_cell_length_b       5.49100923538208
_cell_length_c       110.35050964355469
_cell_angle_alpha    90.0
_cell_angle_beta     104.96321774561711
_cell_angle_gamma    71.56505106332615

_space_group_name_H-M_alt    "P 1"
_space_group_IT_number       1

loop_
  _space_group_symop_operation_xyz
  'x, y, z'

loop_
  _atom_site_type_symbol
  _atom_site_label
  _atom_site_symmetry_multiplicity
  _atom_site_fract_x
  _atom_site_fract_y
  _atom_site_fract_z
  _atom_site_occupancy
  H   H1        1.0  0.005094788030802894  0.0027026058272017406  6.077615491387312e-06  1.0000
  Pt  Pt1       1.0  0.005499999924794681  0.002499999880205847  0.999705442454168  1.0000
  Pt  Pt2       1.0  0.009499999699178727  0.0004999999930138244  0.9995835565729082  1.0000
  Pt  Pt3       1.0  0.001499999915394017  0.004499999884906179  0.9998273283306537  1.0000
  Pt  Pt4       1.0  0.00349999980258604  0.008500000049859693  7.110010332096265e-05  1.0000
  Pt  Pt5       1.0  0.007499999811986705  0.006500000045159361  0.9999492142268352  1.0000
  Rh  Rh1       1.0  0.00449999998119867  0.0004999999673377237  0.9998882712811316  1.0000
  Rh  Rh2       1.0  0.008500000225615954  0.008499999214184964  0.9997663854094201  1.0000
  Rh  Rh3       1.0  0.0004999999717980057  0.0024999999720380557  1.0157157617280379e-05  1.0000
  Rh  Rh4       1.0  0.0024999998589900286  0.006499999967382936  0.9996444995036902  1.0000
  Rh  Rh5       1.0  0.006499999868390693  0.004499999962682605  0.9995226136272045  1.0000
  Rh  Rh6       1.0  0.00449999998119867  0.005499999906278615  0.9998882712811316  1.0000
  Rh  Rh7       1.0  0.008500000225615954  0.003499999784069974  0.9997663854094201  1.0000
  Rh  Rh8       1.0  0.0004999999717980057  0.007499999910978947  1.0157157617280379e-05  1.0000
  Rh  Rh9       1.0  0.0024999998589900286  0.0015000000284420448  0.9996444995036902  1.0000
  Rh  Rh10      1.0  0.006499999868390693  0.009499999392797593  0.9995226136272045  1.0000
  Rh  Rh11      1.0  0.007499999811986705  0.0014999999366098356  0.9999492142268352  1.0000
  Rh  Rh12      1.0  0.001499999915394017  0.009499999993455705  0.9998273283306537  1.0000
  Rh  Rh13      1.0  0.00349999980258604  0.003499999941310168  7.110010332096265e-05  1.0000
  Rh  Rh14      1.0  0.005499999924794681  0.007499999988755372  0.999705442454168  1.0000
  Rh  Rh15      1.0  0.009499999699178727  0.005500000101563349  0.9995835565729082  1.0000
  Pt  Pt6       1.0  0.005499999924794681  0.002499999880205847  0.999096012757504  1.0000
  Pt  Pt7       1.0  0.009499999699178727  0.0004999999930138244  0.9989741268762442  1.0000
  Pt  Pt8       1.0  0.001499999915394017  0.004499999884906179  0.9992178989040593  1.0000
  Pt  Pt9       1.0  0.00349999980258604  0.008500000049859693  0.9994616706767266  1.0000
  Pt  Pt10      1.0  0.007499999811986705  0.006500000045159361  0.9993397848002409  1.0000
  Rh  Rh16      1.0  0.00449999998119867  0.0004999999673377237  0.9992788418545372  1.0000
  Rh  Rh17      1.0  0.008500000225615954  0.008499999214184964  0.9991569559828257  1.0000
  Rh  Rh18      1.0  0.0004999999717980057  0.0024999999720380557  0.999400727731023  1.0000
  Rh  Rh19      1.0  0.0024999998589900286  0.006499999967382936  0.9990350698070262  1.0000
  Rh  Rh20      1.0  0.006499999868390693  0.004499999962682605  0.9989131839305405  1.0000
  Rh  Rh21      1.0  0.00449999998119867  0.005499999906278615  0.9992788418545372  1.0000
  Rh  Rh22      1.0  0.008500000225615954  0.003499999784069974  0.9991569559828257  1.0000
  Rh  Rh23      1.0  0.0004999999717980057  0.007499999910978947  0.999400727731023  1.0000
  Rh  Rh24      1.0  0.0024999998589900286  0.0015000000284420448  0.9990350698070262  1.0000
  Rh  Rh25      1.0  0.006499999868390693  0.009499999392797593  0.9989131839305405  1.0000
  Rh  Rh26      1.0  0.007499999811986705  0.0014999999366098356  0.9993397848002409  1.0000
  Rh  Rh27      1.0  0.001499999915394017  0.009499999993455705  0.9992178989040593  1.0000
  Rh  Rh28      1.0  0.00349999980258604  0.003499999941310168  0.9994616706767266  1.0000
  Rh  Rh29      1.0  0.005499999924794681  0.007499999988755372  0.999096012757504  1.0000
  Rh  Rh30      1.0  0.009499999699178727  0.005500000101563349  0.9989741268762442  1.0000
