data_image0
_chemical_formula_structural       COMn6Al6Ge6Mn6Al6Ge6
_chemical_formula_sum              "C1 O1 Mn12 Al12 Ge12"
_cell_length_a       5.919036865234375
_cell_length_b       8.669996095656309
_cell_length_c       102.90032196044922
_cell_angle_alpha    71.56505117707799
_cell_angle_beta     90.0
_cell_angle_gamma    90.0

_space_group_name_H-M_alt    "P 1"
_space_group_IT_number       1

loop_
  _space_group_symop_operation_xyz
  'x, y, z'

loop_
  _atom_site_type_symbol
  _atom_site_label
  _atom_site_symmetry_multiplicity
  _atom_site_fract_x
  _atom_site_fract_y
  _atom_site_fract_z
  _atom_site_occupancy
  C   C1        1.0  0.009933641532104742  0.0008670766101763648  0.9999517297864625  1.0000
  O   O1        1.0  0.009933641532104742  0.0008670766101763648  6.834715446898944e-05  1.0000
  Mn  Mn1       1.0  1.8358499795887588e-05  0.0067295811630932924  0.9988772546456985  1.0000
  Mn  Mn2       1.0  1.8358499795887588e-05  0.003396247802584855  0.9992325103164698  1.0000
  Mn  Mn3       1.0  1.8358499795887588e-05  6.291439961531793e-05  0.9990548824369618  1.0000
  Mn  Mn4       1.0  1.8358499795887588e-05  0.0067295811630932924  0.9991436964214038  1.0000
  Mn  Mn5       1.0  1.8358499795887588e-05  0.003396247802584855  0.9989660685407645  1.0000
  Mn  Mn6       1.0  1.8358499795887588e-05  6.291439961531793e-05  0.9993213242126671  1.0000
  Al  Al1       1.0  0.0029612128638891754  0.005062914822527874  0.9990548824720334  1.0000
  Al  Al2       1.0  0.0029612128638891754  0.0017295811223306367  0.9988772546004449  1.0000
  Al  Al3       1.0  0.0029612128638891754  0.008396248409495512  0.9992325103466388  1.0000
  Al  Al4       1.0  0.007075504461207175  0.008396248409495512  0.9989660685709336  1.0000
  Al  Al5       1.0  0.007075504461207175  0.005062914822527874  0.9993213242477387  1.0000
  Al  Al6       1.0  0.007075504461207175  0.0017295811223306367  0.9991436963761502  1.0000
  Ge  Ge1       1.0  0.0028242943504533913  0.008396248409495512  0.9989660685709336  1.0000
  Ge  Ge2       1.0  0.0028242943504533913  0.005062914822527874  0.9993213242477387  1.0000
  Ge  Ge3       1.0  0.0028242943504533913  0.0017295811223306367  0.9991436963761502  1.0000
  Ge  Ge4       1.0  0.007212422974642959  0.005062914822527874  0.9990548824720334  1.0000
  Ge  Ge5       1.0  0.007212422974642959  0.0017295811223306367  0.9988772546004449  1.0000
  Ge  Ge6       1.0  0.007212422974642959  0.008396248409495512  0.9992325103466388  1.0000
  Mn  Mn7       1.0  1.8358499795887588e-05  0.0067295811630932924  0.999410138197109  1.0000
  Mn  Mn8       1.0  0.009927240165043117  0.0031597584979666353  0.9997500143138552  1.0000
  Mn  Mn9       1.0  0.009981641400389266  0.009937085865908094  0.9996046950556519  1.0000
  Mn  Mn10      1.0  0.009961900442837901  0.0067250148397808044  0.999686879577831  1.0000
  Mn  Mn11      1.0  1.8358499795887588e-05  0.003396247802584855  0.999498952092175  1.0000
  Mn  Mn12      1.0  0.009940042269791963  0.009906230346964771  0.9997985887011607  1.0000
  Al  Al7       1.0  0.002839742974570455  0.005083395339674017  0.9995935885724173  1.0000
  Al  Al8       1.0  0.0029612128638891754  0.0017295811223306367  0.9994101381518554  1.0000
  Al  Al9       1.0  0.0029477820141108764  0.007985117166584229  0.9997806606377971  1.0000
  Al  Al10      1.0  0.007075504461207175  0.008396248409495512  0.9994989521223441  1.0000
  Al  Al11      1.0  0.007024251356629116  0.004567267647353125  0.9998472491789676  1.0000
  Al  Al12      1.0  0.006958650403766338  0.0016817247450815816  0.9996768245415205  1.0000
  Ge  Ge7       1.0  0.0028242943504533913  0.008396248409495512  0.9994989521223441  1.0000
  Ge  Ge8       1.0  0.0022873975466582938  0.004548213823168134  0.9998640637979368  1.0000
  Ge  Ge9       1.0  0.0028492915283385646  0.0017129208586619796  0.999675284349382  1.0000
  Ge  Ge10      1.0  0.007349917365658272  0.005086957542892894  0.9995843068119977  1.0000
  Ge  Ge11      1.0  0.007212422974642959  0.0017295811223306367  0.9994101381518554  1.0000
  Ge  Ge12      1.0  0.0071280893220237946  0.007988711527009532  0.9997871474255536  1.0000
