data_image0
_chemical_formula_structural       COPt6Sn24
_chemical_formula_sum              "C1 O1 Pt6 Sn24"
_cell_length_a       6.585584907220989
_cell_length_b       9.383889025698423
_cell_length_c       109.40424346923828
_cell_angle_alpha    87.94050746611201
_cell_angle_beta     85.2065221916691
_cell_angle_gamma    69.45772013539148

_space_group_name_H-M_alt    "P 1"
_space_group_IT_number       1

loop_
  _space_group_symop_operation_xyz
  'x, y, z'

loop_
  _atom_site_type_symbol
  _atom_site_label
  _atom_site_symmetry_multiplicity
  _atom_site_fract_x
  _atom_site_fract_y
  _atom_site_fract_z
  _atom_site_occupancy
  C   C1        1.0  0.0022779665858278972  0.0024579649005498916  5.769616751574479e-05  1.0000
  O   O1        1.0  0.0022779665858278972  0.0024579649005498916  0.0001673808043591446  1.0000
  Pt  Pt1       1.0  0.0034001349846021467  0.007777778026498467  0.9995779844521242  1.0000
  Pt  Pt2       1.0  0.006733468328493862  0.0022222224144154822  0.9991777945653874  1.0000
  Pt  Pt3       1.0  0.0003412743010732696  0.003310375147495891  0.9999435421312136  1.0000
  Pt  Pt4       1.0  6.680187225837435e-05  0.005000000220456975  0.9993778896329772  1.0000
  Pt  Pt5       1.0  0.0034001349806208774  0.009444444625332218  0.9989776992570428  1.0000
  Pt  Pt6       1.0  0.006653683832464134  0.0004972590953187854  0.9997703742077582  1.0000
  Sn  Sn1       1.0  0.006874686255732394  0.007966769007542587  0.9994109326962259  1.0000
  Sn  Sn2       1.0  0.00020801942729206018  0.002411213183481741  0.9990107427892169  1.0000
  Sn  Sn3       1.0  0.003821011923766525  0.0036246645458841375  0.9998171666265018  1.0000
  Sn  Sn4       1.0  0.0077030891065292375  0.0046262785894031315  0.9988112919728426  1.0000
  Sn  Sn5       1.0  0.0010364228659166155  0.005737389372655151  0.9996116722357561  1.0000
  Sn  Sn6       1.0  0.00436975620980833  0.00018183376057216683  0.9992114823490192  1.0000
  Sn  Sn7       1.0  0.0009350013462222976  0.008550996948495607  0.9998109252363762  1.0000
  Sn  Sn8       1.0  0.004377370035230723  0.0029596117785915194  0.9994115770879788  1.0000
  Sn  Sn9       1.0  0.007710703249414023  0.007404055971488903  0.9990113872569765  1.0000
  Sn  Sn10      1.0  0.006867072324489205  0.005188991201501093  0.9992108379571453  1.0000
  Sn  Sn11      1.0  0.00020040586427244795  0.009633435606376337  0.9988106475572484  1.0000
  Sn  Sn12      1.0  0.0035337391968492606  0.0007445462666811992  0.9996110277899991  1.0000
  Sn  Sn13      1.0  0.002430513990943906  0.00704038887430029  0.9993442018493454  1.0000
  Sn  Sn14      1.0  0.005763847440656418  0.0014848330502394448  0.998944011690324  1.0000
  Sn  Sn15      1.0  0.009045206470526621  0.0024410713249808764  0.9997454745750263  1.0000
  Sn  Sn16      1.0  0.003312324339397094  0.00048077288820261874  0.9999357497243393  1.0000
  Sn  Sn17      1.0  0.006592250525724659  0.004811009663368576  0.9995449411373349  1.0000
  Sn  Sn18      1.0  0.00992558399010444  0.00925545449219954  0.999144751303114  1.0000
  Sn  Sn19      1.0  0.00242290034353015  0.004262611068258797  0.999144106564026  1.0000
  Sn  Sn20      1.0  0.006251556043515266  0.005221895676829231  0.9999524575817107  1.0000
  Sn  Sn21      1.0  0.009089567419706  0.009818166680341783  0.9995442967428478  1.0000
  Sn  Sn22      1.0  0.0065137644900287875  0.0075232341640532  0.9997533545067709  1.0000
  Sn  Sn23      1.0  0.009933197339021493  0.002033231645349223  0.9993448459926552  1.0000
  Sn  Sn24      1.0  0.003266531340642809  0.0064776762622023275  0.9989446561345927  1.0000
