data_image0
_chemical_formula_structural       HAl3Rh3Al3Rh3Al3Rh3Al3Rh3Al3Rh3Al3Rh3Al3Rh3Al3Rh3
_chemical_formula_sum              "H1 Al24 Rh24"
_cell_length_a       8.539102554321289
_cell_length_b       8.53910285916766
_cell_length_c       101.37466430664062
_cell_angle_alpha    90.0
_cell_angle_beta     90.0
_cell_angle_gamma    60.00000118094804

_space_group_name_H-M_alt    "P 1"
_space_group_IT_number       1

loop_
  _space_group_symop_operation_xyz
  'x, y, z'

loop_
  _atom_site_type_symbol
  _atom_site_label
  _atom_site_symmetry_multiplicity
  _atom_site_fract_x
  _atom_site_fract_y
  _atom_site_fract_z
  _atom_site_occupancy
  H   H1        1.0  0.0033333362539086837  0.0008333361476307962  0.0001215339056683861  1.0000
  Al  Al1       1.0  0.004166664414054044  0.0041666643661967834  0.9991489210532851  1.0000
  Al  Al2       1.0  0.0008333308292772119  0.0008333310471364385  0.9994928011579408  1.0000
  Al  Al3       1.0  0.0024999976688924275  0.002499997612213012  0.999320861105613  1.0000
  Rh  Rh1       1.0  0.004166664414054044  0.0041666643661967834  0.999406831131777  1.0000
  Rh  Rh2       1.0  0.0008333308292772119  0.0008333310471364385  0.9992348910794491  1.0000
  Rh  Rh3       1.0  0.0024999976688924275  0.002499997612213012  0.9990629510271212  1.0000
  Al  Al4       1.0  0.004166664414054044  0.0041666643661967834  0.9996647412102687  1.0000
  Al  Al5       1.0  0.0008333363184019023  0.0008333362105998624  0.0  1.0000
  Al  Al6       1.0  0.0025000015771711828  0.002500001138480716  0.999848300605537  1.0000
  Rh  Rh4       1.0  0.004166669563630303  0.004166668899969546  0.9999156171824317  1.0000
  Rh  Rh5       1.0  0.0008333343519109743  0.0008333338177753489  0.999745040030465  1.0000
  Rh  Rh6       1.0  0.0024999976688924275  0.002499997612213012  0.9995787714780867  1.0000
  Al  Al7       1.0  0.004166664783046285  0.009166663872519305  0.9991489210532851  1.0000
  Al  Al8       1.0  0.000833331040846788  0.005833330868304291  0.9994928011579408  1.0000
  Al  Al9       1.0  0.0024999977860084045  0.007499997622288063  0.999320861105613  1.0000
  Rh  Rh7       1.0  0.004166664783046285  0.009166663872519305  0.999406831131777  1.0000
  Rh  Rh8       1.0  0.000833331040846788  0.005833330868304291  0.9992348910794491  1.0000
  Rh  Rh9       1.0  0.0024999977860084045  0.007499997622288063  0.9990629510271212  1.0000
  Al  Al10      1.0  0.004166664783046285  0.009166663872519305  0.9996647412102687  1.0000
  Al  Al11      1.0  0.0008333361229330258  0.005833336409582112  0.0  1.0000
  Al  Al12      1.0  0.0025000016942871594  0.007500001148555767  0.999848300605537  1.0000
  Rh  Rh10      1.0  0.004166669244483771  0.009166668910044596  0.9999156171824317  1.0000
  Rh  Rh11      1.0  0.0008333343284767914  0.0058333338908194655  0.999745040030465  1.0000
  Rh  Rh12      1.0  0.0024999977860084045  0.007499997622288063  0.9995787714780867  1.0000
  Al  Al13      1.0  0.00916666422209854  0.0041666643661967834  0.9991489210532851  1.0000
  Al  Al14      1.0  0.005833331073584216  0.0008333310471364385  0.9994928011579408  1.0000
  Al  Al15      1.0  0.0074999979131994314  0.002499997612213012  0.999320861105613  1.0000
  Rh  Rh13      1.0  0.00916666422209854  0.0041666643661967834  0.999406831131777  1.0000
  Rh  Rh14      1.0  0.005833331073584216  0.0008333310471364385  0.9992348910794491  1.0000
  Rh  Rh15      1.0  0.0074999979131994314  0.002499997612213012  0.9990629510271212  1.0000
  Al  Al16      1.0  0.00916666422209854  0.0041666643661967834  0.9996647412102687  1.0000
  Al  Al17      1.0  0.0058333363445776535  0.0008333362105998624  0.0  1.0000
  Al  Al18      1.0  0.007500001385215678  0.002500001138480716  0.999848300605537  1.0000
  Rh  Rh16      1.0  0.009166669807937308  0.004166668899969546  0.9999156171824317  1.0000
  Rh  Rh17      1.0  0.005833334487152352  0.0008333338177753489  0.999745040030465  1.0000
  Rh  Rh18      1.0  0.0074999979131994314  0.002499997612213012  0.9995787714780867  1.0000
  Al  Al19      1.0  0.00916666502735329  0.009166663872519305  0.9991489210532851  1.0000
  Al  Al20      1.0  0.005833331285153793  0.005833330868304291  0.9994928011579408  1.0000
  Al  Al21      1.0  0.007499997594052902  0.007499997622288063  0.999320861105613  1.0000
  Rh  Rh19      1.0  0.00916666502735329  0.009166663872519305  0.999406831131777  1.0000
  Rh  Rh20      1.0  0.005833331285153793  0.005833330868304291  0.9992348910794491  1.0000
  Rh  Rh21      1.0  0.007499997594052902  0.007499997622288063  0.9990629510271212  1.0000
  Al  Al22      1.0  0.00916666502735329  0.009166663872519305  0.9996647412102687  1.0000
  Al  Al23      1.0  0.005833336367240031  0.005833336409582112  0.0  1.0000
  Al  Al24      1.0  0.007500001938594165  0.007500001148555767  0.999848300605537  1.0000
  Rh  Rh22      1.0  0.009166669488790778  0.009166668910044596  0.9999156171824317  1.0000
  Rh  Rh23      1.0  0.005833334136521287  0.0058333338908194655  0.999745040030465  1.0000
  Rh  Rh24      1.0  0.007499997594052902  0.007499997622288063  0.9995787714780867  1.0000
