data_image0
_chemical_formula_structural       HIn4As4Pt20
_chemical_formula_sum              "H1 In4 As4 Pt20"
_cell_length_a       5.774239540100098
_cell_length_b       10.884564221877712
_cell_length_c       106.90677642822266
_cell_angle_alpha    79.41494855752683
_cell_angle_beta     90.0
_cell_angle_gamma    57.960891207115296

_space_group_name_H-M_alt    "P 1"
_space_group_IT_number       1

loop_
  _space_group_symop_operation_xyz
  'x, y, z'

loop_
  _atom_site_type_symbol
  _atom_site_label
  _atom_site_symmetry_multiplicity
  _atom_site_fract_x
  _atom_site_fract_y
  _atom_site_fract_z
  _atom_site_occupancy
  H   H1        1.0  0.0004136641686631128  0.004597532128788846  1.2323107518156949e-05  1.0000
  In  In1       1.0  3.0328166890489232e-06  0.005013201188168972  0.999455569820807  1.0000
  In  In2       1.0  0.007460596353859691  0.0025571775630241203  0.9996669334261437  1.0000
  In  In3       1.0  0.002503032656554458  0.007513201270884739  0.9992398048999531  1.0000
  In  In4       1.0  0.005029003163527893  0.00998679972170446  0.9999063517193177  1.0000
  As  As1       1.0  0.0050030331541758375  1.3200850682182981e-05  0.9994555698772973  1.0000
  As  As2       1.0  0.0024836533159553653  0.007533708990846475  0.999669303613603  1.0000
  As  As3       1.0  0.007503033028775407  0.00251320089866379  0.9992398049570931  1.0000
  As  As4       1.0  0.009996967120047509  0.005014229345145233  0.9998931341331281  1.0000
  Pt  Pt1       1.0  0.009827650441521465  0.0076885843375247955  0.999470706558742  1.0000
  Pt  Pt2       1.0  0.007301201083318779  0.005241456172687228  0.9996897255032415  1.0000
  Pt  Pt3       1.0  0.0023276496827788285  0.00018858436078860417  0.9992549414605879  1.0000
  Pt  Pt4       1.0  0.004924412684040153  0.0026522882870107394  0.9998919060738909  1.0000
  Pt  Pt5       1.0  0.00761143603080682  0.009886722743103623  0.9996528133591789  1.0000
  Pt  Pt6       1.0  0.005154863498364016  0.007433025705677981  0.9998609571542966  1.0000
  Pt  Pt7       1.0  0.00017841662512253168  0.0023378174184449014  0.9994404330944743  1.0000
  Pt  Pt8       1.0  0.002678416994355791  0.004837817294371252  0.999224668177488  1.0000
  Pt  Pt9       1.0  0.004827649873783422  0.0076885843375247955  0.999470706558742  1.0000
  Pt  Pt10      1.0  0.0022489345285546802  0.005240872199376495  0.9996898033297048  1.0000
  Pt  Pt11      1.0  0.007327649927938437  0.00018858436078860417  0.9992549414605879  1.0000
  Pt  Pt12      1.0  0.00980314800903697  0.0026525614558292514  0.9998918753181416  1.0000
  Pt  Pt13      1.0  0.0026495370278187156  0.009886160275892153  0.9996527971169518  1.0000
  Pt  Pt14      1.0  1.5664985886926904e-05  0.007431976869760122  0.9998610024170679  1.0000
  Pt  Pt15      1.0  0.0051784168702821405  0.0023378174184449014  0.9994404330944743  1.0000
  Pt  Pt16      1.0  0.007678416916936967  0.004837817294371252  0.999224668177488  1.0000
  Pt  Pt17      1.0  0.007503032579135633  0.007513201270884739  0.9992398048999531  1.0000
  Pt  Pt18      1.0  0.005003032739270224  0.005013201188168972  0.999455569820807  1.0000
  Pt  Pt19      1.0  0.009971433548440514  4.5037151569346384e-05  0.9998803796823533  1.0000
  Pt  Pt20      1.0  0.002463863459770359  0.0025532018297124565  0.9996679288364675  1.0000
